/*---------------------------------------------------------------------------*\
| =========                 |                                                 |
| \\      /  F ield         | OpenFOAM: The Open Source CFD Toolbox           |
|  \\    /   O peration     | Version:  2306                                  |
|   \\  /    A nd           | Website:  www.openfoam.com                      |
|    \\/     M anipulation  |                                                 |
\*---------------------------------------------------------------------------*/
Build  : a6e826bd55-20230630 OPENFOAM=2306 version=v2306
Arch   : "LSB;label=32;scalar=64"
Exec   : decomposePar -force
Date   : Aug 26 2023
Time   : 23:35:08
Host   : nla-gpu2.ianm.kit.edu
PID    : 2985008
--> FOAM Warning : 
    From Foam::fileName Foam::cwd_L()
    in file POSIX.C at line 552
    PWD is not the cwd() - reverting to physical description
I/O    : uncollated
--> FOAM Warning : 
    From Foam::fileName Foam::cwd_L()
    in file POSIX.C at line 552
    PWD is not the cwd() - reverting to physical description
Case   : /home/greole/data/code/exasim_project/micro_benchmarks/WindsorBody/workspace/ff0b9a856d5d95d7aee377d7766ce3c4/case
nProcs : 1
trapFpe: Floating point exception trapping enabled (FOAM_SIGFPE).
fileModificationChecking : Monitoring run-time modified files using timeStampMaster (fileModificationSkew 5, maxFileModificationPolls 20)
allowSystemOperations : Allowing user-supplied system call operations

// * * * * * * * * * * * * * * * * * * * * * * * * * * * * * * * * * * * * * //
Create time

--> FOAM Warning : 
    From void* Foam::dlLibraryTable::openLibrary(const Foam::fileName&, bool)
    in file db/dynamicLibrary/dlLibraryTable/dlLibraryTable.C at line 188
    Could not load "libpetscFoam.so"
libpetscFoam.so: cannot open shared object file: No such file or directory


Decomposing mesh

Create mesh

Calculating distribution of cells
Decomposition method simple [16] (region region0)

Finished decomposition in 4.29 s

Calculating original mesh data

Distributing cells to processors

Distributing faces to processors

Distributing points to processors

Constructing processor meshes

Processor 0
    Number of cells = 476611
    Number of points = 504955
    Number of faces shared with processor 1 = 2300
    Number of faces shared with processor 4 = 6288
    Number of faces shared with processor 5 = 2
    Number of faces shared with processor 8 = 8113
    Number of processor patches = 4
    Number of processor faces = 16703
    Number of boundary faces = 37119

Processor 1
    Number of cells = 321428
    Number of points = 339626
    Number of faces shared with processor 0 = 2300
    Number of faces shared with processor 2 = 2572
    Number of faces shared with processor 5 = 4556
    Number of faces shared with processor 8 = 2
    Number of faces shared with processor 9 = 9760
    Number of processor patches = 5
    Number of processor faces = 19190
    Number of boundary faces = 14249

Processor 2
    Number of cells = 311613
    Number of points = 329293
    Number of faces shared with processor 1 = 2572
    Number of faces shared with processor 3 = 2646
    Number of faces shared with processor 6 = 4371
    Number of faces shared with processor 9 = 1
    Number of faces shared with processor 10 = 9795
    Number of faces shared with processor 11 = 1
    Number of processor patches = 6
    Number of processor faces = 19386
    Number of boundary faces = 11996

Processor 3
    Number of cells = 462502
    Number of points = 491255
    Number of faces shared with processor 2 = 2646
    Number of faces shared with processor 7 = 6864
    Number of faces shared with processor 10 = 11
    Number of faces shared with processor 11 = 11097
    Number of processor patches = 4
    Number of processor faces = 20618
    Number of boundary faces = 25687

Processor 4
    Number of cells = 476742
    Number of points = 505316
    Number of faces shared with processor 0 = 6288
    Number of faces shared with processor 5 = 2204
    Number of faces shared with processor 12 = 8127
    Number of processor patches = 3
    Number of processor faces = 16619
    Number of boundary faces = 37369

Processor 5
    Number of cells = 325804
    Number of points = 343993
    Number of faces shared with processor 0 = 2
    Number of faces shared with processor 1 = 4556
    Number of faces shared with processor 4 = 2204
    Number of faces shared with processor 6 = 2642
    Number of faces shared with processor 9 = 2
    Number of faces shared with processor 13 = 9467
    Number of faces shared with processor 14 = 1
    Number of processor patches = 7
    Number of processor faces = 18874
    Number of boundary faces = 14165

Processor 6
    Number of cells = 313508
    Number of points = 330364
    Number of faces shared with processor 2 = 4371
    Number of faces shared with processor 5 = 2642
    Number of faces shared with processor 7 = 2545
    Number of faces shared with processor 14 = 9832
    Number of processor patches = 4
    Number of processor faces = 19390
    Number of boundary faces = 12043

Processor 7
    Number of cells = 465360
    Number of points = 494188
    Number of faces shared with processor 3 = 6864
    Number of faces shared with processor 6 = 2545
    Number of faces shared with processor 14 = 10
    Number of faces shared with processor 15 = 10851
    Number of processor patches = 4
    Number of processor faces = 20270
    Number of boundary faces = 25581

Processor 8
    Number of cells = 309999
    Number of points = 337409
    Number of faces shared with processor 0 = 8113
    Number of faces shared with processor 1 = 2
    Number of faces shared with processor 9 = 2552
    Number of faces shared with processor 12 = 5443
    Number of processor patches = 4
    Number of processor faces = 16110
    Number of boundary faces = 19614

Processor 9
    Number of cells = 470724
    Number of points = 494660
    Number of faces shared with processor 1 = 9760
    Number of faces shared with processor 2 = 1
    Number of faces shared with processor 5 = 2
    Number of faces shared with processor 8 = 2552
    Number of faces shared with processor 10 = 4452
    Number of faces shared with processor 13 = 8275
    Number of faces shared with processor 14 = 1
    Number of processor patches = 7
    Number of processor faces = 25043
    Number of boundary faces = 4334

Processor 10
    Number of cells = 475332
    Number of points = 498364
    Number of faces shared with processor 2 = 9795
    Number of faces shared with processor 3 = 11
    Number of faces shared with processor 9 = 4452
    Number of faces shared with processor 11 = 4417
    Number of faces shared with processor 14 = 8575
    Number of processor patches = 5
    Number of processor faces = 27250
    Number of boundary faces = 232

Processor 11
    Number of cells = 325359
    Number of points = 348953
    Number of faces shared with processor 2 = 1
    Number of faces shared with processor 3 = 11097
    Number of faces shared with processor 10 = 4417
    Number of faces shared with processor 15 = 7465
    Number of processor patches = 4
    Number of processor faces = 22980
    Number of boundary faces = 1832

Processor 12
    Number of cells = 313432
    Number of points = 341847
    Number of faces shared with processor 4 = 8127
    Number of faces shared with processor 8 = 5443
    Number of faces shared with processor 13 = 2576
    Number of processor patches = 3
    Number of processor faces = 16146
    Number of boundary faces = 19773

Processor 13
    Number of cells = 458828
    Number of points = 482481
    Number of faces shared with processor 5 = 9467
    Number of faces shared with processor 9 = 8275
    Number of faces shared with processor 12 = 2576
    Number of faces shared with processor 14 = 4393
    Number of processor patches = 4
    Number of processor faces = 24711
    Number of boundary faces = 3890

Processor 14
    Number of cells = 476331
    Number of points = 499346
    Number of faces shared with processor 5 = 1
    Number of faces shared with processor 6 = 9832
    Number of faces shared with processor 7 = 10
    Number of faces shared with processor 9 = 1
    Number of faces shared with processor 10 = 8575
    Number of faces shared with processor 13 = 4393
    Number of faces shared with processor 15 = 4406
    Number of processor patches = 7
    Number of processor faces = 27218
    Number of boundary faces = 232

Processor 15
    Number of cells = 323563
    Number of points = 347027
    Number of faces shared with processor 7 = 10851
    Number of faces shared with processor 11 = 7465
    Number of faces shared with processor 14 = 4406
    Number of processor patches = 3
    Number of processor faces = 22722
    Number of boundary faces = 1832

Number of processor faces = 166615
Max number of cells = 476742 (20.94034439720342% above average 394196)
Max number of processor patches = 7 (51.35135135135135% above average 4.625)
Max number of faces between processors = 27250 (30.84056057377787% above average 20826.875)

Time = 0

Processor 0: field transfer
--> FOAM Warning : 
    From void* Foam::dlLibraryTable::openLibrary(const Foam::fileName&, bool)
    in file db/dynamicLibrary/dlLibraryTable/dlLibraryTable.C at line 188
    Could not load "libpetscFoam.so"
libpetscFoam.so: cannot open shared object file: No such file or directory
Processor 1: field transfer
--> FOAM Warning : 
    From void* Foam::dlLibraryTable::openLibrary(const Foam::fileName&, bool)
    in file db/dynamicLibrary/dlLibraryTable/dlLibraryTable.C at line 188
    Could not load "libpetscFoam.so"
libpetscFoam.so: cannot open shared object file: No such file or directory
Processor 2: field transfer
--> FOAM Warning : 
    From void* Foam::dlLibraryTable::openLibrary(const Foam::fileName&, bool)
    in file db/dynamicLibrary/dlLibraryTable/dlLibraryTable.C at line 188
    Could not load "libpetscFoam.so"
libpetscFoam.so: cannot open shared object file: No such file or directory
Processor 3: field transfer
--> FOAM Warning : 
    From void* Foam::dlLibraryTable::openLibrary(const Foam::fileName&, bool)
    in file db/dynamicLibrary/dlLibraryTable/dlLibraryTable.C at line 188
    Could not load "libpetscFoam.so"
libpetscFoam.so: cannot open shared object file: No such file or directory
Processor 4: field transfer
--> FOAM Warning : 
    From void* Foam::dlLibraryTable::openLibrary(const Foam::fileName&, bool)
    in file db/dynamicLibrary/dlLibraryTable/dlLibraryTable.C at line 188
    Could not load "libpetscFoam.so"
libpetscFoam.so: cannot open shared object file: No such file or directory
Processor 5: field transfer
--> FOAM Warning : 
    From void* Foam::dlLibraryTable::openLibrary(const Foam::fileName&, bool)
    in file db/dynamicLibrary/dlLibraryTable/dlLibraryTable.C at line 188
    Could not load "libpetscFoam.so"
libpetscFoam.so: cannot open shared object file: No such file or directory
Processor 6: field transfer
--> FOAM Warning : 
    From void* Foam::dlLibraryTable::openLibrary(const Foam::fileName&, bool)
    in file db/dynamicLibrary/dlLibraryTable/dlLibraryTable.C at line 188
    Could not load "libpetscFoam.so"
libpetscFoam.so: cannot open shared object file: No such file or directory
Processor 7: field transfer
--> FOAM Warning : 
    From void* Foam::dlLibraryTable::openLibrary(const Foam::fileName&, bool)
    in file db/dynamicLibrary/dlLibraryTable/dlLibraryTable.C at line 188
    Could not load "libpetscFoam.so"
libpetscFoam.so: cannot open shared object file: No such file or directory
Processor 8: field transfer
--> FOAM Warning : 
    From void* Foam::dlLibraryTable::openLibrary(const Foam::fileName&, bool)
    in file db/dynamicLibrary/dlLibraryTable/dlLibraryTable.C at line 188
    Could not load "libpetscFoam.so"
libpetscFoam.so: cannot open shared object file: No such file or directory
Processor 9: field transfer
--> FOAM Warning : 
    From void* Foam::dlLibraryTable::openLibrary(const Foam::fileName&, bool)
    in file db/dynamicLibrary/dlLibraryTable/dlLibraryTable.C at line 188
    Could not load "libpetscFoam.so"
libpetscFoam.so: cannot open shared object file: No such file or directory
Processor 10: field transfer
--> FOAM Warning : 
    From void* Foam::dlLibraryTable::openLibrary(const Foam::fileName&, bool)
    in file db/dynamicLibrary/dlLibraryTable/dlLibraryTable.C at line 188
    Could not load "libpetscFoam.so"
libpetscFoam.so: cannot open shared object file: No such file or directory
Processor 11: field transfer
--> FOAM Warning : 
    From void* Foam::dlLibraryTable::openLibrary(const Foam::fileName&, bool)
    in file db/dynamicLibrary/dlLibraryTable/dlLibraryTable.C at line 188
    Could not load "libpetscFoam.so"
libpetscFoam.so: cannot open shared object file: No such file or directory
Processor 12: field transfer
--> FOAM Warning : 
    From void* Foam::dlLibraryTable::openLibrary(const Foam::fileName&, bool)
    in file db/dynamicLibrary/dlLibraryTable/dlLibraryTable.C at line 188
    Could not load "libpetscFoam.so"
libpetscFoam.so: cannot open shared object file: No such file or directory
Processor 13: field transfer
--> FOAM Warning : 
    From void* Foam::dlLibraryTable::openLibrary(const Foam::fileName&, bool)
    in file db/dynamicLibrary/dlLibraryTable/dlLibraryTable.C at line 188
    Could not load "libpetscFoam.so"
libpetscFoam.so: cannot open shared object file: No such file or directory
Processor 14: field transfer
--> FOAM Warning : 
    From void* Foam::dlLibraryTable::openLibrary(const Foam::fileName&, bool)
    in file db/dynamicLibrary/dlLibraryTable/dlLibraryTable.C at line 188
    Could not load "libpetscFoam.so"
libpetscFoam.so: cannot open shared object file: No such file or directory
Processor 15: field transfer
--> FOAM Warning : 
    From void* Foam::dlLibraryTable::openLibrary(const Foam::fileName&, bool)
    in file db/dynamicLibrary/dlLibraryTable/dlLibraryTable.C at line 188
    Could not load "libpetscFoam.so"
libpetscFoam.so: cannot open shared object file: No such file or directory

End

