/*---------------------------------------------------------------------------*\
| =========                 |                                                 |
| \\      /  F ield         | OpenFOAM: The Open Source CFD Toolbox           |
|  \\    /   O peration     | Version:  2306                                  |
|   \\  /    A nd           | Website:  www.openfoam.com                      |
|    \\/     M anipulation  |                                                 |
\*---------------------------------------------------------------------------*/
Build  : a6e826bd55-20230630 OPENFOAM=2306 version=v2306
Arch   : "LSB;label=32;scalar=64"
Exec   : simpleFoam -parallel -case /home/greole/data/code/exasim_project/micro_benchmarks/WindsorBody/workspace/04cff0e4514f06e8e294b314dbd982e3/case
Date   : Aug 27 2023
Time   : 19:20:36
Host   : nla-gpu2.ianm.kit.edu
PID    : 3074602
I/O    : uncollated
Case   : /home/greole/data/code/exasim_project/micro_benchmarks/WindsorBody/workspace/04cff0e4514f06e8e294b314dbd982e3/case
nProcs : 16
Hosts  :
(
    (nla-gpu2.ianm.kit.edu 16)
)
Pstream initialized with:
    floatTransfer      : false
    nProcsSimpleSum    : 0
    nonBlockingExchange: 0 (tuning: 0)
    exchange algorithm : -1
    commsType          : nonBlocking
    polling iterations : 0
trapFpe: Floating point exception trapping enabled (FOAM_SIGFPE).
fileModificationChecking : Monitoring run-time modified files using timeStampMaster (fileModificationSkew 5, maxFileModificationPolls 20)
allowSystemOperations : Allowing user-supplied system call operations

// * * * * * * * * * * * * * * * * * * * * * * * * * * * * * * * * * * * * * //
Create time

--> FOAM Warning : 
    From void* Foam::dlLibraryTable::openLibrary(const Foam::fileName&, bool)
    in file db/dynamicLibrary/dlLibraryTable/dlLibraryTable.C at line 188
    Could not load "libpetscFoam.so"
libpetscFoam.so: cannot open shared object file: No such file or directory
Create mesh for time = 0


SIMPLE: convergence criteria
    field p	 tolerance 1e-08
    field U	 tolerance 1e-08
    field k	 tolerance 1e-08
    field omega	 tolerance 1e-08
    field nuTilda	 tolerance 1e-08

Reading field p

Reading field U

Reading/calculating face flux field phi

Selecting incompressible transport model Newtonian
Selecting turbulence model type RAS
Selecting RAS turbulence model SpalartAllmaras
Selecting patchDistMethod meshWave
ft2 term: inactive
RAS
{
    RASModel        SpalartAllmaras;
    turbulence      on;
    printCoeffs     on;
    sigmaNut        0.66666;
    kappa           0.41;
    Cb1             0.1355;
    Cb2             0.622;
    Cw2             0.3;
    Cw3             2;
    Cv1             7.1;
    Cs              0.3;
    ck              0.07000000000000001;
    ft2             false;
    Ct3             1.2;
    Ct4             0.5;
}

No MRF models present

Creating finite volume options from "system/fvOptions"

Selecting finite volume options type velocityDampingConstraint
    Source: velocityDamping
    - selecting all cells
    - selected 6307136 cell(s) with volume 27.82583051608782

Starting time loop

--> FOAM Warning : 
    From bool Foam::functionObjectList::read()
    in file db/functionObjects/functionObjectList/functionObjectList.C at line 1035
    Reading "system/controlDict" at line 2 to 41
    Entry 'lref' is not a dictionary
--> FOAM Warning : 
    From bool Foam::functionObjectList::read()
    in file db/functionObjects/functionObjectList/functionObjectList.C at line 1035
    Reading "system/controlDict" at line 2 to 41
    Entry 'Aref' is not a dictionary
--> FOAM Warning : 
    From bool Foam::functionObjectList::read()
    in file db/functionObjects/functionObjectList/functionObjectList.C at line 1035
    Reading "system/controlDict" at line 2 to 41
    Entry 'yawAngle' is not a dictionary
--> FOAM Warning : 
    From bool Foam::functionObjectList::read()
    in file db/functionObjects/functionObjectList/functionObjectList.C at line 1035
    Reading "system/controlDict" at line 2 to 41
    Entry 'lDomain' is not a dictionary
--> FOAM Warning : 
    From bool Foam::functionObjectList::read()
    in file db/functionObjects/functionObjectList/functionObjectList.C at line 1035
    Reading "system/controlDict" at line 2 to 41
    Entry 'bDomain' is not a dictionary
--> FOAM Warning : 
    From bool Foam::functionObjectList::read()
    in file db/functionObjects/functionObjectList/functionObjectList.C at line 1035
    Reading "system/controlDict" at line 2 to 41
    Entry 'hDomain' is not a dictionary
--> FOAM Warning : 
    From bool Foam::functionObjectList::read()
    in file db/functionObjects/functionObjectList/functionObjectList.C at line 1035
    Reading "system/controlDict" at line 2 to 41
    Entry 'xCenter' is not a dictionary
--> FOAM Warning : 
    From bool Foam::functionObjectList::read()
    in file db/functionObjects/functionObjectList/functionObjectList.C at line 1035
    Reading "system/controlDict" at line 2 to 41
    Entry 'yCenter' is not a dictionary
--> FOAM Warning : 
    From bool Foam::functionObjectList::read()
    in file db/functionObjects/functionObjectList/functionObjectList.C at line 1035
    Reading "system/controlDict" at line 2 to 41
    Entry 'zCenter' is not a dictionary
--> FOAM Warning : 
    From bool Foam::functionObjectList::read()
    in file db/functionObjects/functionObjectList/functionObjectList.C at line 1035
    Reading "system/controlDict" at line 2 to 41
    Entry 'inletPatch' is not a dictionary
--> FOAM Warning : 
    From bool Foam::functionObjectList::read()
    in file db/functionObjects/functionObjectList/functionObjectList.C at line 1035
    Reading "system/controlDict" at line 2 to 41
    Entry 'outletPatch' is not a dictionary
--> FOAM Warning : 
    From bool Foam::functionObjectList::read()
    in file db/functionObjects/functionObjectList/functionObjectList.C at line 1035
    Reading "system/controlDict" at line 2 to 41
    Entry 'wallPatches' is not a dictionary
--> FOAM Warning : 
    From bool Foam::functionObjectList::read()
    in file db/functionObjects/functionObjectList/functionObjectList.C at line 1035
    Reading "system/controlDict" at line 2 to 41
    Entry 'forcesWallPatches' is not a dictionary
--> FOAM Warning : 
    From bool Foam::functionObjectList::read()
    in file db/functionObjects/functionObjectList/functionObjectList.C at line 1035
    Reading "system/controlDict" at line 2 to 41
    Entry 'symmPatches' is not a dictionary
--> FOAM Warning : 
    From bool Foam::functionObjectList::read()
    in file db/functionObjects/functionObjectList/functionObjectList.C at line 1035
    Reading "system/controlDict" at line 2 to 41
    Entry 'Uinf' is not a dictionary
--> FOAM Warning : 
    From bool Foam::functionObjectList::read()
    in file db/functionObjects/functionObjectList/functionObjectList.C at line 1035
    Reading "system/controlDict" at line 2 to 41
    Entry 'UinfMag' is not a dictionary
--> FOAM Warning : 
    From bool Foam::functionObjectList::read()
    in file db/functionObjects/functionObjectList/functionObjectList.C at line 1035
    Reading "system/controlDict" at line 2 to 41
    Entry 'nu' is not a dictionary
--> FOAM Warning : 
    From bool Foam::functionObjectList::read()
    in file db/functionObjects/functionObjectList/functionObjectList.C at line 1035
    Reading "system/controlDict" at line 2 to 41
    Entry 'pref' is not a dictionary
--> FOAM Warning : 
    From bool Foam::functionObjectList::read()
    in file db/functionObjects/functionObjectList/functionObjectList.C at line 1035
    Reading "system/controlDict" at line 2 to 41
    Entry 'viscRatio' is not a dictionary
--> FOAM Warning : 
    From bool Foam::functionObjectList::read()
    in file db/functionObjects/functionObjectList/functionObjectList.C at line 1035
    Reading "system/controlDict" at line 2 to 41
    Entry 'Tu' is not a dictionary
--> FOAM Warning : 
    From bool Foam::functionObjectList::read()
    in file db/functionObjects/functionObjectList/functionObjectList.C at line 1035
    Reading "system/controlDict" at line 2 to 41
    Entry 'LESturbModel' is not a dictionary
--> FOAM Warning : 
    From bool Foam::functionObjectList::read()
    in file db/functionObjects/functionObjectList/functionObjectList.C at line 1035
    Reading "system/controlDict" at line 2 to 41
    Entry 'RASturbModel' is not a dictionary
--> FOAM Warning : 
    From bool Foam::functionObjectList::read()
    in file db/functionObjects/functionObjectList/functionObjectList.C at line 1035
    Reading "system/controlDict" at line 2 to 41
    Entry 'deltaTurb' is not a dictionary
--> FOAM Warning : 
    From bool Foam::functionObjectList::read()
    in file db/functionObjects/functionObjectList/functionObjectList.C at line 1035
    Reading "system/controlDict" at line 2 to 41
    Entry 'dt' is not a dictionary
--> FOAM Warning : 
    From bool Foam::functionObjectList::read()
    in file db/functionObjects/functionObjectList/functionObjectList.C at line 1035
    Reading "system/controlDict" at line 2 to 41
    Entry 'tAvg' is not a dictionary
--> FOAM Warning : 
    From bool Foam::functionObjectList::read()
    in file db/functionObjects/functionObjectList/functionObjectList.C at line 1035
    Reading "system/controlDict" at line 2 to 41
    Entry 'tEnd' is not a dictionary
--> FOAM Warning : 
    From bool Foam::functionObjectList::read()
    in file db/functionObjects/functionObjectList/functionObjectList.C at line 1035
    Reading "system/controlDict" at line 2 to 41
    Entry 'writeInterval_' is not a dictionary
--> FOAM Warning : 
    From bool Foam::functionObjectList::read()
    in file db/functionObjects/functionObjectList/functionObjectList.C at line 1035
    Reading "system/controlDict" at line 2 to 41
    Entry 'nCores' is not a dictionary
--> FOAM Warning : 
    From bool Foam::functionObjectList::read()
    in file db/functionObjects/functionObjectList/functionObjectList.C at line 1035
    Reading "system/controlDict" at line 2 to 41
    Entry 'interpScheme' is not a dictionary
--> FOAM Warning : 
    From bool Foam::functionObjectList::read()
    in file db/functionObjects/functionObjectList/functionObjectList.C at line 1035
    Reading "system/controlDict" at line 2 to 41
    Entry 'probeField' is not a dictionary
wallShearStress wallShearStress:
    processing wall patches: 
        Windsor_Body
        CFDWT_Floor
        Windsor_Pins
        Windsor_Base

pressure calc_cp:
    Operating mode: staticCoeff
    Not including hydrostatic effects

forceCoeffs forceCoeffsAll:
    rho: rhoInf
    Freestream density (rhoInf) set to 1
    Not including porosity effects
    magUInf: 40
    lRef   : 0.6375
    Aref   : 0.1124
    rhoInf : 1
    Selecting all coefficients
    - Drag force: Cd
    - Drag force front: Cd(f)
    - Drag force rear: Cd(r)
    - Lift force: Cl
    - Lift force front: Cl(f)
    - Lift force rear: Cl(r)
    - Pitch moment: CmPitch
    - Roll moment: CmRoll
    - Yaw moment: CmYaw
    - Side force: Cs
    - Side force front: Cs(f)
    - Side force rear: Cs(r)


forceCoeffs dragCoeffBase:
    rho: rhoInf
    Freestream density (rhoInf) set to 1
    Not including porosity effects
    magUInf: 40
    lRef   : 0.6375
    Aref   : 0.1124
    rhoInf : 1
    Selecting coefficients:
    - Drag force: Cd


Time = 1

velocityDampingConstraint velocityDamping damped 0 (0%) of cells, with max limit 300
[INFO] MatrixAssemblyU: 574.633 [ms]
[OGL LOG][lduLduBase.H:119] Initialising OGL
	OGL commit:  4647ee1+
	Branch: PersistentDeviceIdGuard 
	Build type: Release
	Ginkgo version: 1.5.0 ( develop)
	Ginkgo commit: 4292ffdee
	MPI is GPU aware: 1
	Forces host buffer based communication: 0
	CPU ranks per GPU: 1
	Matrix format: Coo
	End OGL_INFO
[OGL LOG][Proc: 0]: global_index_init: 11.464 [ms]
[OGL LOG][Proc: 0]Ux_local_cols: call_init: 0.041 [ms]
[OGL LOG][Proc: 0]Ux_local_rows: call_init: 0.003 [ms]
[OGL LOG][Proc: 0]Ux_local_ldu_map: call_init: 0.003 [ms]
[OGL LOG][Proc: 0]Ux_local_coeffs: call_init: 0.013 [ms]
[OGL LOG][Proc: 0]Ux_non_local_cols: call_init: 0.003 [ms]
[OGL LOG][Proc: 0]Ux_non_local_rows: call_init: 0.003 [ms]
[OGL LOG][Proc: 0]Ux_non_local_ldu_map: call_init: 0.003 [ms]
[OGL LOG][Proc: 0]Ux_non_local_coeffs: call_init: 0.004 [ms]
[OGL LOG][Proc: 0]Ux: init_local_sparsity_pattern: 81.72200000000001 [ms]
[OGL LOG][Proc: 0]Ux: init_non_local_sparsity_pattern: 2.047 [ms]
[OGL LOG][Proc: 0]Ux: update_local_matrix_data: 11.854 [ms]
[OGL LOG][Proc: 0]Ux: update_non_local_matrix_data: 0.1 [ms]
[OGL LOG][Proc: 0]device_partition: call_init: 8.800000000000001 [ms]
[OGL LOG][Proc: 0]Ux_matrix: call_init: 76.667 [ms]
[OGL LOG][Proc: 0]Ux_rhs: call_init: 3.511 [ms]
[OGL LOG][Proc: 0]Ux_solution: call_init: 1.964 [ms]
[OGL LOG][Preconditioner.H:121] Generate preconditioner BJ MaxBlockSize 1
[OGL LOG][Proc: 0]Ux: init_precond: 4.774 [ms]
[OGL LOG][StoppingCriterion.H:373] Creating stopping criterion with minIter 0 frequency 1
[OGL LOG][Proc: 0]Ux: generate_solver: 0.018 [ms]
[OGL LOG][Proc: 0]Ux: solve: 1197.194 [ms]
[OGL LOG][Proc: 0]Ux: copy_x_back: 1.31 [ms]
[OGL LOG][lduLduBase.H:336] 
Statistics:
	Time per iteration: 49883 [mu s]
	Time per residual norm calculation: 1519.000000 [mu s]
	Time per iteration and DOF: 7.908978 [ns]
	Retrieve results bandwidth 2.910000 [GByte/s]
[OGL LOG][Proc: 0]Ux: solve_multi_gpu: 1295.14 [ms]
BJhipGKOBiCGStab:  Solving for Ux, Initial residual = 0.9999999999999023, Final residual = 0.05874865666745804, No Iterations 24
[OGL LOG][lduLduBase.H:119] Initialising OGL
	OGL commit:  4647ee1+
	Branch: PersistentDeviceIdGuard 
	Build type: Release
	Ginkgo version: 1.5.0 ( develop)
	Ginkgo commit: 4292ffdee
	MPI is GPU aware: 1
	Forces host buffer based communication: 0
	CPU ranks per GPU: 1
	Matrix format: Coo
	End OGL_INFO
[OGL LOG][Proc: 0]: global_index_init: 1.151 [ms]
[OGL LOG][Proc: 0]Uy_local_cols: call_init: 0.009000000000000001 [ms]
[OGL LOG][Proc: 0]Uy_local_rows: call_init: 0.004 [ms]
[OGL LOG][Proc: 0]Uy_local_ldu_map: call_init: 0.004 [ms]
[OGL LOG][Proc: 0]Uy_local_coeffs: call_init: 0.005 [ms]
[OGL LOG][Proc: 0]Uy_non_local_cols: call_init: 0.004 [ms]
[OGL LOG][Proc: 0]Uy_non_local_rows: call_init: 0.003 [ms]
[OGL LOG][Proc: 0]Uy_non_local_ldu_map: call_init: 0.003 [ms]
[OGL LOG][Proc: 0]Uy_non_local_coeffs: call_init: 0.004 [ms]
[OGL LOG][Proc: 0]Uy: init_local_sparsity_pattern: 86.577 [ms]
[OGL LOG][Proc: 0]Uy: init_non_local_sparsity_pattern: 0.763 [ms]
[OGL LOG][Proc: 0]Uy: update_local_matrix_data: 10.392 [ms]
[OGL LOG][Proc: 0]Uy: update_non_local_matrix_data: 0.079 [ms]
[OGL LOG][Proc: 0]Uy_matrix: call_init: 47.384 [ms]
[OGL LOG][Proc: 0]Uy_rhs: call_init: 3.322 [ms]
[OGL LOG][Proc: 0]Uy_solution: call_init: 1.697 [ms]
[OGL LOG][Preconditioner.H:121] Generate preconditioner BJ MaxBlockSize 1
[OGL LOG][Proc: 0]Uy: init_precond: 0.448 [ms]
[OGL LOG][StoppingCriterion.H:373] Creating stopping criterion with minIter 0 frequency 1
[OGL LOG][Proc: 0]Uy: generate_solver: 0.002 [ms]
[OGL LOG][Proc: 0]Uy: solve: 136.92 [ms]
[OGL LOG][Proc: 0]Uy: copy_x_back: 1.242 [ms]
[OGL LOG][lduLduBase.H:336] 
Statistics:
	Time per iteration: 2633 [mu s]
	Time per residual norm calculation: 269.000000 [mu s]
	Time per iteration and DOF: 0.417464 [ns]
	Retrieve results bandwidth 3.069000 [GByte/s]
[OGL LOG][Proc: 0]Uy: solve_multi_gpu: 191.861 [ms]
BJhipGKOBiCGStab:  Solving for Uy, Initial residual = 1.000000000000004, Final residual = 0.0602609014369595, No Iterations 52
[OGL LOG][lduLduBase.H:119] Initialising OGL
	OGL commit:  4647ee1+
	Branch: PersistentDeviceIdGuard 
	Build type: Release
	Ginkgo version: 1.5.0 ( develop)
	Ginkgo commit: 4292ffdee
	MPI is GPU aware: 1
	Forces host buffer based communication: 0
	CPU ranks per GPU: 1
	Matrix format: Coo
	End OGL_INFO
[OGL LOG][Proc: 0]: global_index_init: 1.257 [ms]
[OGL LOG][Proc: 0]Uz_local_cols: call_init: 0.009000000000000001 [ms]
[OGL LOG][Proc: 0]Uz_local_rows: call_init: 0.004 [ms]
[OGL LOG][Proc: 0]Uz_local_ldu_map: call_init: 0.004 [ms]
[OGL LOG][Proc: 0]Uz_local_coeffs: call_init: 0.005 [ms]
[OGL LOG][Proc: 0]Uz_non_local_cols: call_init: 0.003 [ms]
[OGL LOG][Proc: 0]Uz_non_local_rows: call_init: 0.004 [ms]
[OGL LOG][Proc: 0]Uz_non_local_ldu_map: call_init: 0.003 [ms]
[OGL LOG][Proc: 0]Uz_non_local_coeffs: call_init: 0.003 [ms]
[OGL LOG][Proc: 0]Uz: init_local_sparsity_pattern: 87.899 [ms]
[OGL LOG][Proc: 0]Uz: init_non_local_sparsity_pattern: 0.76 [ms]
[OGL LOG][Proc: 0]Uz: update_local_matrix_data: 11.284 [ms]
[OGL LOG][Proc: 0]Uz: update_non_local_matrix_data: 0.089 [ms]
[OGL LOG][Proc: 0]Uz_matrix: call_init: 50.198 [ms]
[OGL LOG][Proc: 0]Uz_rhs: call_init: 1.731 [ms]
[OGL LOG][Proc: 0]Uz_solution: call_init: 0.89 [ms]
[OGL LOG][Preconditioner.H:121] Generate preconditioner BJ MaxBlockSize 1
[OGL LOG][Proc: 0]Uz: init_precond: 0.404 [ms]
[OGL LOG][StoppingCriterion.H:373] Creating stopping criterion with minIter 0 frequency 1
[OGL LOG][Proc: 0]Uz: generate_solver: 0.002 [ms]
[OGL LOG][Proc: 0]Uz: solve: 34.904 [ms]
[OGL LOG][Proc: 0]Uz: copy_x_back: 1.244 [ms]
[OGL LOG][lduLduBase.H:336] 
Statistics:
	Time per iteration: 34904 [mu s]
	Time per residual norm calculation: 272.000000 [mu s]
	Time per iteration and DOF: 5.534049 [ns]
	Retrieve results bandwidth 3.065000 [GByte/s]
[OGL LOG][Proc: 0]Uz: solve_multi_gpu: 90.256 [ms]
BJhipGKOBiCGStab:  Solving for Uz, Initial residual = 1.000000000000019, Final residual = 0.09952964467305385, No Iterations 1
[INFO] MomentumPredictor: 2166.304 [ms]
[INFO] MatrixAssemblyPI: 86.855 [ms]
[INFO] MatrixAssemblyPII: 40.506 [ms]
[OGL LOG][lduLduBase.H:119] Initialising OGL
	OGL commit:  4647ee1+
	Branch: PersistentDeviceIdGuard 
	Build type: Release
	Ginkgo version: 1.5.0 ( develop)
	Ginkgo commit: 4292ffdee
	MPI is GPU aware: 1
	Forces host buffer based communication: 0
	CPU ranks per GPU: 1
	Matrix format: Coo
	End OGL_INFO
[OGL LOG][Proc: 0]: global_index_init: 0.393 [ms]
[OGL LOG][Proc: 0]p_local_cols: call_init: 0.007 [ms]
[OGL LOG][Proc: 0]p_local_rows: call_init: 0.003 [ms]
[OGL LOG][Proc: 0]p_local_ldu_map: call_init: 0.003 [ms]
[OGL LOG][Proc: 0]p_local_coeffs: call_init: 0.005 [ms]
[OGL LOG][Proc: 0]p_non_local_cols: call_init: 0.004 [ms]
[OGL LOG][Proc: 0]p_non_local_rows: call_init: 0.004 [ms]
[OGL LOG][Proc: 0]p_non_local_ldu_map: call_init: 0.004 [ms]
[OGL LOG][Proc: 0]p_non_local_coeffs: call_init: 0.003 [ms]
[OGL LOG][Proc: 0]p: init_local_sparsity_pattern: 82.167 [ms]
[OGL LOG][Proc: 0]p: init_non_local_sparsity_pattern: 2.722 [ms]
[OGL LOG][Proc: 0]p: update_local_matrix_data: 9.946 [ms]
[OGL LOG][Proc: 0]p: update_non_local_matrix_data: 0.091 [ms]
[OGL LOG][Proc: 0]p_matrix: call_init: 53.019 [ms]
[OGL LOG][Proc: 0]p_rhs: call_init: 2.119 [ms]
[OGL LOG][Proc: 0]p_solution: call_init: 0.874 [ms]
[OGL LOG][Preconditioner.H:121] Generate preconditioner BJ MaxBlockSize 1
[OGL LOG][Proc: 0]p: init_precond: 0.439 [ms]
[OGL LOG][StoppingCriterion.H:373] Creating stopping criterion with minIter 0 frequency 1
[OGL LOG][Proc: 0]p: generate_solver: 0.036 [ms]
[OGL LOG][Proc: 0]p: solve: 1288.77 [ms]
[OGL LOG][Proc: 0]p: copy_x_back: 1.29 [ms]
[OGL LOG][lduLduBase.H:336] 
Statistics:
	Time per iteration: 1103 [mu s]
	Time per residual norm calculation: 252.000000 [mu s]
	Time per iteration and DOF: 0.174881 [ns]
	Retrieve results bandwidth 2.955000 [GByte/s]
[OGL LOG][Proc: 0]p: solve_multi_gpu: 1347.226 [ms]
BJhipGKOCG:  Solving for p, Initial residual = 1.000000000000205, Final residual = 0.009857861545584325, No Iterations 1168
[INFO] SolveP: 1445.366 [ms]
time step continuity errors : sum local = 0.003615897256642878, global = 4.327394903186876e-05, cumulative = 4.327394903186876e-05
[INFO] postSolveP: 23.112 [ms]
[OGL LOG][lduLduBase.H:119] Initialising OGL
	OGL commit:  4647ee1+
	Branch: PersistentDeviceIdGuard 
	Build type: Release
	Ginkgo version: 1.5.0 ( develop)
	Ginkgo commit: 4292ffdee
	MPI is GPU aware: 1
	Forces host buffer based communication: 0
	CPU ranks per GPU: 1
	Matrix format: Coo
	End OGL_INFO
[OGL LOG][Proc: 0]: global_index_init: 2.247 [ms]
[OGL LOG][Proc: 0]nuTilda_local_cols: call_init: 0.009000000000000001 [ms]
[OGL LOG][Proc: 0]nuTilda_local_rows: call_init: 0.004 [ms]
[OGL LOG][Proc: 0]nuTilda_local_ldu_map: call_init: 0.004 [ms]
[OGL LOG][Proc: 0]nuTilda_local_coeffs: call_init: 0.004 [ms]
[OGL LOG][Proc: 0]nuTilda_non_local_cols: call_init: 0.004 [ms]
[OGL LOG][Proc: 0]nuTilda_non_local_rows: call_init: 0.004 [ms]
[OGL LOG][Proc: 0]nuTilda_non_local_ldu_map: call_init: 0.004 [ms]
[OGL LOG][Proc: 0]nuTilda_non_local_coeffs: call_init: 0.003 [ms]
[OGL LOG][Proc: 0]nuTilda: init_local_sparsity_pattern: 84.072 [ms]
[OGL LOG][Proc: 0]nuTilda: init_non_local_sparsity_pattern: 3.394 [ms]
[OGL LOG][Proc: 0]nuTilda: update_local_matrix_data: 11.514 [ms]
[OGL LOG][Proc: 0]nuTilda: update_non_local_matrix_data: 0.06900000000000001 [ms]
[OGL LOG][Proc: 0]nuTilda_matrix: call_init: 40.011 [ms]
[OGL LOG][Proc: 0]nuTilda_rhs: call_init: 2.763 [ms]
[OGL LOG][Proc: 0]nuTilda_solution: call_init: 0.664 [ms]
[OGL LOG][Preconditioner.H:121] Generate preconditioner BJ MaxBlockSize 1
[OGL LOG][Proc: 0]nuTilda: init_precond: 0.38 [ms]
[OGL LOG][StoppingCriterion.H:373] Creating stopping criterion with minIter 0 frequency 1
[OGL LOG][Proc: 0]nuTilda: generate_solver: 0.002 [ms]
[OGL LOG][Proc: 0]nuTilda: solve: 37.084 [ms]
[OGL LOG][Proc: 0]nuTilda: copy_x_back: 1.275 [ms]
[OGL LOG][lduLduBase.H:336] 
Statistics:
	Time per iteration: 18542 [mu s]
	Time per residual norm calculation: 252.000000 [mu s]
	Time per iteration and DOF: 2.939845 [ns]
	Retrieve results bandwidth 2.990000 [GByte/s]
[OGL LOG][Proc: 0]nuTilda: solve_multi_gpu: 83.056 [ms]
BJhipGKOBiCGStab:  Solving for nuTilda, Initial residual = 0.9999999999971266, Final residual = 0.09379148706626485, No Iterations 2
[INFO] TimeStep: 4809.266 [ms]
ExecutionTime = 13.27 s  ClockTime = 14 s

--> FOAM Warning : 
    From virtual bool Foam::functionObjects::fieldSelection::checkSelection()
    in file functionObjects/fieldSelections/fieldSelection/fieldSelection.C at line 166
    Field k not found
--> FOAM Warning : 
    From virtual bool Foam::functionObjects::fieldSelection::checkSelection()
    in file functionObjects/fieldSelections/fieldSelection/fieldSelection.C at line 166
    Field gammaInt not found
--> FOAM Warning : 
    From virtual bool Foam::functionObjects::fieldSelection::checkSelection()
    in file functionObjects/fieldSelections/fieldSelection/fieldSelection.C at line 166
    Field omega not found
--> FOAM Warning : 
    From virtual bool Foam::functionObjects::fieldSelection::checkSelection()
    in file functionObjects/fieldSelections/fieldSelection/fieldSelection.C at line 166
    Field ReThetat not found
--> FOAM Warning : 
    From virtual bool Foam::functionObjects::fieldSelection::checkSelection()
    in file functionObjects/fieldSelections/fieldSelection/fieldSelection.C at line 166
    Field epsilon not found
--> FOAM Warning : 
    From virtual bool Foam::functionObjects::solverFieldSelection::updateSelection()
    in file functionObjects/fieldSelections/solverFieldSelection/solverFieldSelection.C at line 85
    Valid solver fields are: 3(U nuTilda p)Time = 2

velocityDampingConstraint velocityDamping damped 0 (0%) of cells, with max limit 300
[INFO] MatrixAssemblyU: 555.045 [ms]
[OGL LOG][Proc: 0]: global_index_init: 3.502 [ms]
[OGL LOG][Proc: 0]Ux_local_coeffs: call_update: 0.005 [ms]
[OGL LOG][Proc: 0]Ux_non_local_coeffs: call_update: 0 [ms]
[OGL LOG][Proc: 0]Ux: update_local_matrix_data: 11.148 [ms]
[OGL LOG][Proc: 0]Ux: update_non_local_matrix_data: 0.083 [ms]
[OGL LOG][Proc: 0]Ux_matrix: call_update: 4.206 [ms]
[OGL LOG][Proc: 0]Ux_rhs: call_update: 1.071 [ms]
[OGL LOG][Preconditioner.H:121] Generate preconditioner BJ MaxBlockSize 1
[OGL LOG][Proc: 0]Ux: init_precond: 0.38 [ms]
[OGL LOG][StoppingCriterion.H:373] Creating stopping criterion with minIter 28 frequency 1
[OGL LOG][Proc: 0]Ux: generate_solver: 0.002 [ms]
[OGL LOG][Proc: 0]Ux: solve: 57.812 [ms]
[OGL LOG][Proc: 0]Ux: copy_x_back: 1.279 [ms]
[OGL LOG][lduLduBase.H:336] 
Statistics:
	Time per iteration: 4129 [mu s]
	Time per residual norm calculation: 267.000000 [mu s]
	Time per iteration and DOF: 0.654655 [ns]
	Retrieve results bandwidth 2.981000 [GByte/s]
[OGL LOG][Proc: 0]Ux: solve_multi_gpu: 65.60299999999999 [ms]
BJhipGKOBiCGStab:  Solving for Ux, Initial residual = 0.6034159581045635, Final residual = 0.03497811448148549, No Iterations 14
[OGL LOG][Proc: 0]: global_index_init: 0.408 [ms]
[OGL LOG][Proc: 0]Uy_local_coeffs: call_update: 0 [ms]
[OGL LOG][Proc: 0]Uy_non_local_coeffs: call_update: 0 [ms]
[OGL LOG][Proc: 0]Uy: update_local_matrix_data: 11.392 [ms]
[OGL LOG][Proc: 0]Uy: update_non_local_matrix_data: 0.079 [ms]
[OGL LOG][Proc: 0]Uy_matrix: call_update: 4.147 [ms]
[OGL LOG][Proc: 0]Uy_rhs: call_update: 0.551 [ms]
[OGL LOG][Preconditioner.H:121] Generate preconditioner BJ MaxBlockSize 1
[OGL LOG][Proc: 0]Uy: init_precond: 0.424 [ms]
[OGL LOG][StoppingCriterion.H:373] Creating stopping criterion with minIter 62 frequency 2
[OGL LOG][Proc: 0]Uy: generate_solver: 0.002 [ms]
[OGL LOG][Proc: 0]Uy: solve: 74.92700000000001 [ms]
[OGL LOG][Proc: 0]Uy: copy_x_back: 1.286 [ms]
[OGL LOG][lduLduBase.H:336] 
Statistics:
	Time per iteration: 2417 [mu s]
	Time per residual norm calculation: 274.000000 [mu s]
	Time per iteration and DOF: 0.383217 [ns]
	Retrieve results bandwidth 2.964000 [GByte/s]
[OGL LOG][Proc: 0]Uy: solve_multi_gpu: 82.182 [ms]
BJhipGKOBiCGStab:  Solving for Uy, Initial residual = 0.9970041415934726, Final residual = 0.001711449996196037, No Iterations 31
[OGL LOG][Proc: 0]: global_index_init: 0.168 [ms]
[OGL LOG][Proc: 0]Uz_local_coeffs: call_update: 0 [ms]
[OGL LOG][Proc: 0]Uz_non_local_coeffs: call_update: 0 [ms]
[OGL LOG][Proc: 0]Uz: update_local_matrix_data: 13.133 [ms]
[OGL LOG][Proc: 0]Uz: update_non_local_matrix_data: 0.079 [ms]
[OGL LOG][Proc: 0]Uz_matrix: call_update: 3.143 [ms]
[OGL LOG][Proc: 0]Uz_rhs: call_update: 2.201 [ms]
[OGL LOG][Preconditioner.H:121] Generate preconditioner BJ MaxBlockSize 1
[OGL LOG][Proc: 0]Uz: init_precond: 0.4 [ms]
[OGL LOG][StoppingCriterion.H:373] Creating stopping criterion with minIter 1 frequency 1
[OGL LOG][Proc: 0]Uz: generate_solver: 0.002 [ms]
[OGL LOG][Proc: 0]Uz: solve: 47.307 [ms]
[OGL LOG][Proc: 0]Uz: copy_x_back: 1.273 [ms]
[OGL LOG][lduLduBase.H:336] 
Statistics:
	Time per iteration: 4300 [mu s]
	Time per residual norm calculation: 318.000000 [mu s]
	Time per iteration and DOF: 0.681767 [ns]
	Retrieve results bandwidth 2.995000 [GByte/s]
[OGL LOG][Proc: 0]Uz: solve_multi_gpu: 55.131 [ms]
BJhipGKOBiCGStab:  Solving for Uz, Initial residual = 0.999937185756018, Final residual = 0.07548709133115311, No Iterations 11
[INFO] MomentumPredictor: 282.367 [ms]
[INFO] MatrixAssemblyPI: 82.36499999999999 [ms]
[INFO] MatrixAssemblyPII: 41.227 [ms]
[OGL LOG][Proc: 0]: global_index_init: 0.288 [ms]
[OGL LOG][Proc: 0]p_local_coeffs: call_update: 0 [ms]
[OGL LOG][Proc: 0]p_non_local_coeffs: call_update: 0 [ms]
[OGL LOG][Proc: 0]p: update_local_matrix_data: 14.284 [ms]
[OGL LOG][Proc: 0]p: update_non_local_matrix_data: 0.06900000000000001 [ms]
[OGL LOG][Proc: 0]p_matrix: call_update: 3.221 [ms]
[OGL LOG][Proc: 0]p_rhs: call_update: 0.72 [ms]
[OGL LOG][Preconditioner.H:121] Generate preconditioner BJ MaxBlockSize 1
[OGL LOG][Proc: 0]p: init_precond: 0.379 [ms]
[OGL LOG][StoppingCriterion.H:373] Creating stopping criterion with minIter 700 frequency 10
[OGL LOG][Proc: 0]p: generate_solver: 0.002 [ms]
[OGL LOG][Proc: 0]p: solve: 826.587 [ms]
[OGL LOG][Proc: 0]p: copy_x_back: 1.406 [ms]
[OGL LOG][lduLduBase.H:336] 
Statistics:
	Time per iteration: 869 [mu s]
	Time per residual norm calculation: 259.000000 [mu s]
	Time per iteration and DOF: 0.137780 [ns]
	Retrieve results bandwidth 2.711000 [GByte/s]
[OGL LOG][Proc: 0]p: solve_multi_gpu: 832.912 [ms]
BJhipGKOCG:  Solving for p, Initial residual = 0.2215112391700637, Final residual = 0.002097832461151899, No Iterations 951
[INFO] SolveP: 849.562 [ms]
time step continuity errors : sum local = 0.04327646757370429, global = 0.001953235636344048, cumulative = 0.001996509585375916
[INFO] postSolveP: 23.292 [ms]
[OGL LOG][Proc: 0]: global_index_init: 2.639 [ms]
[OGL LOG][Proc: 0]nuTilda_local_coeffs: call_update: 0 [ms]
[OGL LOG][Proc: 0]nuTilda_non_local_coeffs: call_update: 0 [ms]
[OGL LOG][Proc: 0]nuTilda: update_local_matrix_data: 12.787 [ms]
[OGL LOG][Proc: 0]nuTilda: update_non_local_matrix_data: 0.068 [ms]
[OGL LOG][Proc: 0]nuTilda_matrix: call_update: 3.434 [ms]
[OGL LOG][Proc: 0]nuTilda_rhs: call_update: 1.075 [ms]
[OGL LOG][Preconditioner.H:121] Generate preconditioner BJ MaxBlockSize 1
[OGL LOG][Proc: 0]nuTilda: init_precond: 0.431 [ms]
[OGL LOG][StoppingCriterion.H:373] Creating stopping criterion with minIter 3 frequency 1
[OGL LOG][Proc: 0]nuTilda: generate_solver: 0.002 [ms]
[OGL LOG][Proc: 0]nuTilda: solve: 27.1 [ms]
[OGL LOG][Proc: 0]nuTilda: copy_x_back: 1.298 [ms]
[OGL LOG][lduLduBase.H:336] 
Statistics:
	Time per iteration: 13550 [mu s]
	Time per residual norm calculation: 300.000000 [mu s]
	Time per iteration and DOF: 2.148360 [ns]
	Retrieve results bandwidth 2.937000 [GByte/s]
[OGL LOG][Proc: 0]nuTilda: solve_multi_gpu: 34.165 [ms]
BJhipGKOBiCGStab:  Solving for nuTilda, Initial residual = 0.4033354488438938, Final residual = 0.006121393915623941, No Iterations 2
[INFO] TimeStep: 2177.063 [ms]
ExecutionTime = 15.89 s  ClockTime = 16 s

Time = 3

velocityDampingConstraint velocityDamping damped 894 (0.01%) of cells, with max limit 300
[INFO] MatrixAssemblyU: 568.288 [ms]
[OGL LOG][Proc: 0]: global_index_init: 0.744 [ms]
[OGL LOG][Proc: 0]Ux_local_coeffs: call_update: 0 [ms]
[OGL LOG][Proc: 0]Ux_non_local_coeffs: call_update: 0 [ms]
[OGL LOG][Proc: 0]Ux: update_local_matrix_data: 11.116 [ms]
[OGL LOG][Proc: 0]Ux: update_non_local_matrix_data: 0.078 [ms]
[OGL LOG][Proc: 0]Ux_matrix: call_update: 4.008 [ms]
[OGL LOG][Proc: 0]Ux_rhs: call_update: 0.802 [ms]
[OGL LOG][Preconditioner.H:121] Generate preconditioner BJ MaxBlockSize 1
[OGL LOG][Proc: 0]Ux: init_precond: 0.382 [ms]
[OGL LOG][StoppingCriterion.H:373] Creating stopping criterion with minIter 17 frequency 1
[OGL LOG][Proc: 0]Ux: generate_solver: 0.002 [ms]
[OGL LOG][Proc: 0]Ux: solve: 51.395 [ms]
[OGL LOG][Proc: 0]Ux: copy_x_back: 1.269 [ms]
[OGL LOG][lduLduBase.H:336] 
Statistics:
	Time per iteration: 3671 [mu s]
	Time per residual norm calculation: 307.000000 [mu s]
	Time per iteration and DOF: 0.582039 [ns]
	Retrieve results bandwidth 3.004000 [GByte/s]
[OGL LOG][Proc: 0]Ux: solve_multi_gpu: 58.676 [ms]
BJhipGKOBiCGStab:  Solving for Ux, Initial residual = 0.1300331357227309, Final residual = 0.006018422252892596, No Iterations 14
[OGL LOG][Proc: 0]: global_index_init: 0.27 [ms]
[OGL LOG][Proc: 0]Uy_local_coeffs: call_update: 0 [ms]
[OGL LOG][Proc: 0]Uy_non_local_coeffs: call_update: 0 [ms]
[OGL LOG][Proc: 0]Uy: update_local_matrix_data: 11.052 [ms]
[OGL LOG][Proc: 0]Uy: update_non_local_matrix_data: 0.068 [ms]
[OGL LOG][Proc: 0]Uy_matrix: call_update: 3.859 [ms]
[OGL LOG][Proc: 0]Uy_rhs: call_update: 1.241 [ms]
[OGL LOG][Preconditioner.H:121] Generate preconditioner BJ MaxBlockSize 1
[OGL LOG][Proc: 0]Uy: init_precond: 0.407 [ms]
[OGL LOG][StoppingCriterion.H:373] Creating stopping criterion with minIter 37 frequency 1
[OGL LOG][Proc: 0]Uy: generate_solver: 0.002 [ms]
[OGL LOG][Proc: 0]Uy: solve: 52.131 [ms]
[OGL LOG][Proc: 0]Uy: copy_x_back: 1.3 [ms]
[OGL LOG][lduLduBase.H:336] 
Statistics:
	Time per iteration: 2743 [mu s]
	Time per residual norm calculation: 275.000000 [mu s]
	Time per iteration and DOF: 0.434904 [ns]
	Retrieve results bandwidth 2.932000 [GByte/s]
[OGL LOG][Proc: 0]Uy: solve_multi_gpu: 59.754 [ms]
BJhipGKOBiCGStab:  Solving for Uy, Initial residual = 0.3010544318282751, Final residual = 0.01161256015815655, No Iterations 19
[OGL LOG][Proc: 0]: global_index_init: 0.272 [ms]
[OGL LOG][Proc: 0]Uz_local_coeffs: call_update: 0 [ms]
[OGL LOG][Proc: 0]Uz_non_local_coeffs: call_update: 0 [ms]
[OGL LOG][Proc: 0]Uz: update_local_matrix_data: 11.454 [ms]
[OGL LOG][Proc: 0]Uz: update_non_local_matrix_data: 0.081 [ms]
[OGL LOG][Proc: 0]Uz_matrix: call_update: 9.304 [ms]
[OGL LOG][Proc: 0]Uz_rhs: call_update: 0.706 [ms]
[OGL LOG][Preconditioner.H:121] Generate preconditioner BJ MaxBlockSize 1
[OGL LOG][Proc: 0]Uz: init_precond: 0.383 [ms]
[OGL LOG][StoppingCriterion.H:373] Creating stopping criterion with minIter 13 frequency 1
[OGL LOG][Proc: 0]Uz: generate_solver: 0.002 [ms]
[OGL LOG][Proc: 0]Uz: solve: 46.203 [ms]
[OGL LOG][Proc: 0]Uz: copy_x_back: 1.279 [ms]
[OGL LOG][lduLduBase.H:336] 
Statistics:
	Time per iteration: 4200 [mu s]
	Time per residual norm calculation: 255.000000 [mu s]
	Time per iteration and DOF: 0.665912 [ns]
	Retrieve results bandwidth 2.981000 [GByte/s]
[OGL LOG][Proc: 0]Uz: solve_multi_gpu: 58.689 [ms]
BJhipGKOBiCGStab:  Solving for Uz, Initial residual = 0.2880007509202835, Final residual = 0.02637172194015728, No Iterations 11
[INFO] MomentumPredictor: 251.237 [ms]
[INFO] MatrixAssemblyPI: 86.63500000000001 [ms]
[INFO] MatrixAssemblyPII: 42.266 [ms]
[OGL LOG][Proc: 0]: global_index_init: 0.283 [ms]
[OGL LOG][Proc: 0]p_local_coeffs: call_update: 0 [ms]
[OGL LOG][Proc: 0]p_non_local_coeffs: call_update: 0 [ms]
[OGL LOG][Proc: 0]p: update_local_matrix_data: 11.141 [ms]
[OGL LOG][Proc: 0]p: update_non_local_matrix_data: 0.07200000000000001 [ms]
[OGL LOG][Proc: 0]p_matrix: call_update: 3.869 [ms]
[OGL LOG][Proc: 0]p_rhs: call_update: 1.064 [ms]
[OGL LOG][Preconditioner.H:121] Generate preconditioner BJ MaxBlockSize 1
[OGL LOG][Proc: 0]p: init_precond: 0.369 [ms]
[OGL LOG][StoppingCriterion.H:373] Creating stopping criterion with minIter 570 frequency 11
[OGL LOG][Proc: 0]p: generate_solver: 0.002 [ms]
[OGL LOG][Proc: 0]p: solve: 794.487 [ms]
[OGL LOG][Proc: 0]p: copy_x_back: 1.277 [ms]
[OGL LOG][lduLduBase.H:336] 
Statistics:
	Time per iteration: 879 [mu s]
	Time per residual norm calculation: 258.000000 [mu s]
	Time per iteration and DOF: 0.139366 [ns]
	Retrieve results bandwidth 2.985000 [GByte/s]
[OGL LOG][Proc: 0]p: solve_multi_gpu: 801.657 [ms]
BJhipGKOCG:  Solving for p, Initial residual = 0.1665049111485835, Final residual = 0.001654065191026907, No Iterations 903
[INFO] SolveP: 815.096 [ms]
time step continuity errors : sum local = 0.01864268099595432, global = 0.0005584189076604279, cumulative = 0.002554928493036344
[INFO] postSolveP: 21.49 [ms]
[OGL LOG][Proc: 0]: global_index_init: 3.19 [ms]
[OGL LOG][Proc: 0]nuTilda_local_coeffs: call_update: 0 [ms]
[OGL LOG][Proc: 0]nuTilda_non_local_coeffs: call_update: 0 [ms]
[OGL LOG][Proc: 0]nuTilda: update_local_matrix_data: 11.377 [ms]
[OGL LOG][Proc: 0]nuTilda: update_non_local_matrix_data: 0.07000000000000001 [ms]
[OGL LOG][Proc: 0]nuTilda_matrix: call_update: 4.458 [ms]
[OGL LOG][Proc: 0]nuTilda_rhs: call_update: 1.037 [ms]
[OGL LOG][Preconditioner.H:121] Generate preconditioner BJ MaxBlockSize 1
[OGL LOG][Proc: 0]nuTilda: init_precond: 0.384 [ms]
[OGL LOG][StoppingCriterion.H:373] Creating stopping criterion with minIter 2 frequency 1
[OGL LOG][Proc: 0]nuTilda: generate_solver: 0.002 [ms]
[OGL LOG][Proc: 0]nuTilda: solve: 31.447 [ms]
[OGL LOG][Proc: 0]nuTilda: copy_x_back: 1.277 [ms]
[OGL LOG][lduLduBase.H:336] 
Statistics:
	Time per iteration: 15723 [mu s]
	Time per residual norm calculation: 285.000000 [mu s]
	Time per iteration and DOF: 2.492891 [ns]
	Retrieve results bandwidth 2.985000 [GByte/s]
[OGL LOG][Proc: 0]nuTilda: solve_multi_gpu: 39.439 [ms]
BJhipGKOBiCGStab:  Solving for nuTilda, Initial residual = 0.1866456355731965, Final residual = 0.01438329562967004, No Iterations 2
bounding nuTilda, min: -9.300469322191307e-05 max: 0.0008839607439771887 average: 8.026640960927958e-05
[INFO] TimeStep: 2151.231 [ms]
ExecutionTime = 18.48 s  ClockTime = 19 s

Time = 4

velocityDampingConstraint velocityDamping damped 9 (0%) of cells, with max limit 300
[INFO] MatrixAssemblyU: 572.069 [ms]
[OGL LOG][Proc: 0]: global_index_init: 0.09 [ms]
[OGL LOG][Proc: 0]Ux_local_coeffs: call_update: 0 [ms]
[OGL LOG][Proc: 0]Ux_non_local_coeffs: call_update: 0 [ms]
[OGL LOG][Proc: 0]Ux: update_local_matrix_data: 11.271 [ms]
[OGL LOG][Proc: 0]Ux: update_non_local_matrix_data: 0.08799999999999999 [ms]
[OGL LOG][Proc: 0]Ux_matrix: call_update: 4.1 [ms]
[OGL LOG][Proc: 0]Ux_rhs: call_update: 1.037 [ms]
[OGL LOG][Preconditioner.H:121] Generate preconditioner BJ MaxBlockSize 1
[OGL LOG][Proc: 0]Ux: init_precond: 0.384 [ms]
[OGL LOG][StoppingCriterion.H:373] Creating stopping criterion with minIter 16 frequency 1
[OGL LOG][Proc: 0]Ux: generate_solver: 0.002 [ms]
[OGL LOG][Proc: 0]Ux: solve: 40.855 [ms]
[OGL LOG][Proc: 0]Ux: copy_x_back: 1.268 [ms]
[OGL LOG][lduLduBase.H:336] 
Statistics:
	Time per iteration: 4085 [mu s]
	Time per residual norm calculation: 256.000000 [mu s]
	Time per iteration and DOF: 0.647679 [ns]
	Retrieve results bandwidth 3.007000 [GByte/s]
[OGL LOG][Proc: 0]Ux: solve_multi_gpu: 48.494 [ms]
BJhipGKOBiCGStab:  Solving for Ux, Initial residual = 0.1145017432698812, Final residual = 0.010855213679263, No Iterations 10
[OGL LOG][Proc: 0]: global_index_init: 0.162 [ms]
[OGL LOG][Proc: 0]Uy_local_coeffs: call_update: 0 [ms]
[OGL LOG][Proc: 0]Uy_non_local_coeffs: call_update: 0 [ms]
[OGL LOG][Proc: 0]Uy: update_local_matrix_data: 11.574 [ms]
[OGL LOG][Proc: 0]Uy: update_non_local_matrix_data: 0.076 [ms]
[OGL LOG][Proc: 0]Uy_matrix: call_update: 7.124000000000001 [ms]
[OGL LOG][Proc: 0]Uy_rhs: call_update: 0.457 [ms]
[OGL LOG][Preconditioner.H:121] Generate preconditioner BJ MaxBlockSize 1
[OGL LOG][Proc: 0]Uy: init_precond: 0.383 [ms]
[OGL LOG][StoppingCriterion.H:373] Creating stopping criterion with minIter 22 frequency 1
[OGL LOG][Proc: 0]Uy: generate_solver: 0.002 [ms]
[OGL LOG][Proc: 0]Uy: solve: 47.285 [ms]
[OGL LOG][Proc: 0]Uy: copy_x_back: 1.268 [ms]
[OGL LOG][lduLduBase.H:336] 
Statistics:
	Time per iteration: 3637 [mu s]
	Time per residual norm calculation: 261.000000 [mu s]
	Time per iteration and DOF: 0.576648 [ns]
	Retrieve results bandwidth 3.007000 [GByte/s]
[OGL LOG][Proc: 0]Uy: solve_multi_gpu: 57.344 [ms]
BJhipGKOBiCGStab:  Solving for Uy, Initial residual = 0.1521600188206569, Final residual = 0.01383478487085096, No Iterations 13
[OGL LOG][Proc: 0]: global_index_init: 0.03 [ms]
[OGL LOG][Proc: 0]Uz_local_coeffs: call_update: 0 [ms]
[OGL LOG][Proc: 0]Uz_non_local_coeffs: call_update: 0 [ms]
[OGL LOG][Proc: 0]Uz: update_local_matrix_data: 13.174 [ms]
[OGL LOG][Proc: 0]Uz: update_non_local_matrix_data: 0.079 [ms]
[OGL LOG][Proc: 0]Uz_matrix: call_update: 3.178 [ms]
[OGL LOG][Proc: 0]Uz_rhs: call_update: 1.803 [ms]
[OGL LOG][Preconditioner.H:121] Generate preconditioner BJ MaxBlockSize 1
[OGL LOG][Proc: 0]Uz: init_precond: 0.379 [ms]
[OGL LOG][StoppingCriterion.H:373] Creating stopping criterion with minIter 13 frequency 1
[OGL LOG][Proc: 0]Uz: generate_solver: 0.002 [ms]
[OGL LOG][Proc: 0]Uz: solve: 44.121 [ms]
[OGL LOG][Proc: 0]Uz: copy_x_back: 1.271 [ms]
[OGL LOG][lduLduBase.H:336] 
Statistics:
	Time per iteration: 3676 [mu s]
	Time per residual norm calculation: 272.000000 [mu s]
	Time per iteration and DOF: 0.582832 [ns]
	Retrieve results bandwidth 2.999000 [GByte/s]
[OGL LOG][Proc: 0]Uz: solve_multi_gpu: 51.573 [ms]
BJhipGKOBiCGStab:  Solving for Uz, Initial residual = 0.163431042563757, Final residual = 0.01244854690583997, No Iterations 12
[INFO] MomentumPredictor: 233.552 [ms]
[INFO] MatrixAssemblyPI: 83.63500000000001 [ms]
[INFO] MatrixAssemblyPII: 40.62 [ms]
[OGL LOG][Proc: 0]: global_index_init: 0.038 [ms]
[OGL LOG][Proc: 0]p_local_coeffs: call_update: 0 [ms]
[OGL LOG][Proc: 0]p_non_local_coeffs: call_update: 0 [ms]
[OGL LOG][Proc: 0]p: update_local_matrix_data: 13.764 [ms]
[OGL LOG][Proc: 0]p: update_non_local_matrix_data: 0.07100000000000001 [ms]
[OGL LOG][Proc: 0]p_matrix: call_update: 4.547 [ms]
[OGL LOG][Proc: 0]p_rhs: call_update: 0.53 [ms]
[OGL LOG][Preconditioner.H:121] Generate preconditioner BJ MaxBlockSize 1
[OGL LOG][Proc: 0]p: init_precond: 0.385 [ms]
[OGL LOG][StoppingCriterion.H:373] Creating stopping criterion with minIter 541 frequency 10
[OGL LOG][Proc: 0]p: generate_solver: 0.002 [ms]
[OGL LOG][Proc: 0]p: solve: 727.665 [ms]
[OGL LOG][Proc: 0]p: copy_x_back: 1.288 [ms]
[OGL LOG][lduLduBase.H:336] 
Statistics:
	Time per iteration: 855 [mu s]
	Time per residual norm calculation: 256.000000 [mu s]
	Time per iteration and DOF: 0.135561 [ns]
	Retrieve results bandwidth 2.960000 [GByte/s]
[OGL LOG][Proc: 0]p: solve_multi_gpu: 734.9830000000001 [ms]
BJhipGKOCG:  Solving for p, Initial residual = 0.1097659377485624, Final residual = 0.001079880747224659, No Iterations 851
[INFO] SolveP: 750.9 [ms]
time step continuity errors : sum local = 0.01377050823427565, global = 0.0002089068379332028, cumulative = 0.002763835330969547
[INFO] postSolveP: 21.381 [ms]
[OGL LOG][Proc: 0]: global_index_init: 3.895 [ms]
[OGL LOG][Proc: 0]nuTilda_local_coeffs: call_update: 0 [ms]
[OGL LOG][Proc: 0]nuTilda_non_local_coeffs: call_update: 0 [ms]
[OGL LOG][Proc: 0]nuTilda: update_local_matrix_data: 12.425 [ms]
[OGL LOG][Proc: 0]nuTilda: update_non_local_matrix_data: 0.076 [ms]
[OGL LOG][Proc: 0]nuTilda_matrix: call_update: 3.458 [ms]
[OGL LOG][Proc: 0]nuTilda_rhs: call_update: 1.579 [ms]
[OGL LOG][Preconditioner.H:121] Generate preconditioner BJ MaxBlockSize 1
[OGL LOG][Proc: 0]nuTilda: init_precond: 0.378 [ms]
[OGL LOG][StoppingCriterion.H:373] Creating stopping criterion with minIter 2 frequency 1
[OGL LOG][Proc: 0]nuTilda: generate_solver: 0.002 [ms]
[OGL LOG][Proc: 0]nuTilda: solve: 27.307 [ms]
[OGL LOG][Proc: 0]nuTilda: copy_x_back: 1.294 [ms]
[OGL LOG][lduLduBase.H:336] 
Statistics:
	Time per iteration: 13653 [mu s]
	Time per residual norm calculation: 270.000000 [mu s]
	Time per iteration and DOF: 2.164691 [ns]
	Retrieve results bandwidth 2.946000 [GByte/s]
[OGL LOG][Proc: 0]nuTilda: solve_multi_gpu: 34.799 [ms]
BJhipGKOBiCGStab:  Solving for nuTilda, Initial residual = 0.107748276988649, Final residual = 0.009962972569676768, No Iterations 2
bounding nuTilda, min: -2.307068476797688e-06 max: 0.001037326583235602 average: 8.545539317680765e-05
[INFO] TimeStep: 2060.866 [ms]
ExecutionTime = 21 s  ClockTime = 22 s

Time = 5

velocityDampingConstraint velocityDamping damped 37 (0%) of cells, with max limit 300
[INFO] MatrixAssemblyU: 569.806 [ms]
[OGL LOG][Proc: 0]: global_index_init: 0.074 [ms]
[OGL LOG][Proc: 0]Ux_local_coeffs: call_update: 0 [ms]
[OGL LOG][Proc: 0]Ux_non_local_coeffs: call_update: 0 [ms]
[OGL LOG][Proc: 0]Ux: update_local_matrix_data: 11.15 [ms]
[OGL LOG][Proc: 0]Ux: update_non_local_matrix_data: 0.089 [ms]
[OGL LOG][Proc: 0]Ux_matrix: call_update: 3.729 [ms]
[OGL LOG][Proc: 0]Ux_rhs: call_update: 0.648 [ms]
[OGL LOG][Preconditioner.H:121] Generate preconditioner BJ MaxBlockSize 1
[OGL LOG][Proc: 0]Ux: init_precond: 0.43 [ms]
[OGL LOG][StoppingCriterion.H:373] Creating stopping criterion with minIter 12 frequency 1
[OGL LOG][Proc: 0]Ux: generate_solver: 0.002 [ms]
[OGL LOG][Proc: 0]Ux: solve: 44.558 [ms]
[OGL LOG][Proc: 0]Ux: copy_x_back: 1.282 [ms]
[OGL LOG][lduLduBase.H:336] 
Statistics:
	Time per iteration: 3713 [mu s]
	Time per residual norm calculation: 272.000000 [mu s]
	Time per iteration and DOF: 0.588698 [ns]
	Retrieve results bandwidth 2.974000 [GByte/s]
[OGL LOG][Proc: 0]Ux: solve_multi_gpu: 51.468 [ms]
BJhipGKOBiCGStab:  Solving for Ux, Initial residual = 0.04940770325134564, Final residual = 0.003382950896940398, No Iterations 12
[OGL LOG][Proc: 0]: global_index_init: 1.846 [ms]
[OGL LOG][Proc: 0]Uy_local_coeffs: call_update: 0 [ms]
[OGL LOG][Proc: 0]Uy_non_local_coeffs: call_update: 0 [ms]
[OGL LOG][Proc: 0]Uy: update_local_matrix_data: 11.399 [ms]
[OGL LOG][Proc: 0]Uy: update_non_local_matrix_data: 0.066 [ms]
[OGL LOG][Proc: 0]Uy_matrix: call_update: 3.276 [ms]
[OGL LOG][Proc: 0]Uy_rhs: call_update: 0.614 [ms]
[OGL LOG][Preconditioner.H:121] Generate preconditioner BJ MaxBlockSize 1
[OGL LOG][Proc: 0]Uy: init_precond: 0.38 [ms]
[OGL LOG][StoppingCriterion.H:373] Creating stopping criterion with minIter 16 frequency 1
[OGL LOG][Proc: 0]Uy: generate_solver: 0.002 [ms]
[OGL LOG][Proc: 0]Uy: solve: 44.98 [ms]
[OGL LOG][Proc: 0]Uy: copy_x_back: 1.278 [ms]
[OGL LOG][lduLduBase.H:336] 
Statistics:
	Time per iteration: 3748 [mu s]
	Time per residual norm calculation: 271.000000 [mu s]
	Time per iteration and DOF: 0.594248 [ns]
	Retrieve results bandwidth 2.983000 [GByte/s]
[OGL LOG][Proc: 0]Uy: solve_multi_gpu: 51.325 [ms]
BJhipGKOBiCGStab:  Solving for Uy, Initial residual = 0.1090521719549104, Final residual = 0.008471065095412858, No Iterations 12
[OGL LOG][Proc: 0]: global_index_init: 0.198 [ms]
[OGL LOG][Proc: 0]Uz_local_coeffs: call_update: 0 [ms]
[OGL LOG][Proc: 0]Uz_non_local_coeffs: call_update: 0 [ms]
[OGL LOG][Proc: 0]Uz: update_local_matrix_data: 11.522 [ms]
[OGL LOG][Proc: 0]Uz: update_non_local_matrix_data: 0.097 [ms]
[OGL LOG][Proc: 0]Uz_matrix: call_update: 3.396 [ms]
[OGL LOG][Proc: 0]Uz_rhs: call_update: 1.146 [ms]
[OGL LOG][Preconditioner.H:121] Generate preconditioner BJ MaxBlockSize 1
[OGL LOG][Proc: 0]Uz: init_precond: 0.399 [ms]
[OGL LOG][StoppingCriterion.H:373] Creating stopping criterion with minIter 14 frequency 1
[OGL LOG][Proc: 0]Uz: generate_solver: 0.002 [ms]
[OGL LOG][Proc: 0]Uz: solve: 44.836 [ms]
[OGL LOG][Proc: 0]Uz: copy_x_back: 1.271 [ms]
[OGL LOG][lduLduBase.H:336] 
Statistics:
	Time per iteration: 4076 [mu s]
	Time per residual norm calculation: 257.000000 [mu s]
	Time per iteration and DOF: 0.646252 [ns]
	Retrieve results bandwidth 2.999000 [GByte/s]
[OGL LOG][Proc: 0]Uz: solve_multi_gpu: 51.845 [ms]
BJhipGKOBiCGStab:  Solving for Uz, Initial residual = 0.1255971815201535, Final residual = 0.01136909904164028, No Iterations 11
[INFO] MomentumPredictor: 230.764 [ms]
[INFO] MatrixAssemblyPI: 85.68600000000001 [ms]
[INFO] MatrixAssemblyPII: 40.434 [ms]
[OGL LOG][Proc: 0]: global_index_init: 0.211 [ms]
[OGL LOG][Proc: 0]p_local_coeffs: call_update: 0 [ms]
[OGL LOG][Proc: 0]p_non_local_coeffs: call_update: 0 [ms]
[OGL LOG][Proc: 0]p: update_local_matrix_data: 10.971 [ms]
[OGL LOG][Proc: 0]p: update_non_local_matrix_data: 0.068 [ms]
[OGL LOG][Proc: 0]p_matrix: call_update: 3.511 [ms]
[OGL LOG][Proc: 0]p_rhs: call_update: 1.684 [ms]
[OGL LOG][Preconditioner.H:121] Generate preconditioner BJ MaxBlockSize 1
[OGL LOG][Proc: 0]p: init_precond: 0.409 [ms]
[OGL LOG][StoppingCriterion.H:373] Creating stopping criterion with minIter 510 frequency 10
[OGL LOG][Proc: 0]p: generate_solver: 0.002 [ms]
[OGL LOG][Proc: 0]p: solve: 721.061 [ms]
[OGL LOG][Proc: 0]p: copy_x_back: 1.382 [ms]
[OGL LOG][lduLduBase.H:336] 
Statistics:
	Time per iteration: 911 [mu s]
	Time per residual norm calculation: 260.000000 [mu s]
	Time per iteration and DOF: 0.144440 [ns]
	Retrieve results bandwidth 2.758000 [GByte/s]
[OGL LOG][Proc: 0]p: solve_multi_gpu: 728.6460000000001 [ms]
BJhipGKOCG:  Solving for p, Initial residual = 0.1090084035204582, Final residual = 0.001062142228833235, No Iterations 791
[INFO] SolveP: 741.9450000000001 [ms]
time step continuity errors : sum local = 0.01011942256043981, global = -0.0007214985863046876, cumulative = 0.002042336744664859
[INFO] postSolveP: 21.037 [ms]
[OGL LOG][Proc: 0]: global_index_init: 4.11 [ms]
[OGL LOG][Proc: 0]nuTilda_local_coeffs: call_update: 0 [ms]
[OGL LOG][Proc: 0]nuTilda_non_local_coeffs: call_update: 0 [ms]
[OGL LOG][Proc: 0]nuTilda: update_local_matrix_data: 11.692 [ms]
[OGL LOG][Proc: 0]nuTilda: update_non_local_matrix_data: 0.07000000000000001 [ms]
[OGL LOG][Proc: 0]nuTilda_matrix: call_update: 6.358000000000001 [ms]
[OGL LOG][Proc: 0]nuTilda_rhs: call_update: 0.637 [ms]
[OGL LOG][Preconditioner.H:121] Generate preconditioner BJ MaxBlockSize 1
[OGL LOG][Proc: 0]nuTilda: init_precond: 0.385 [ms]
[OGL LOG][StoppingCriterion.H:373] Creating stopping criterion with minIter 2 frequency 1
[OGL LOG][Proc: 0]nuTilda: generate_solver: 0.002 [ms]
[OGL LOG][Proc: 0]nuTilda: solve: 30.854 [ms]
[OGL LOG][Proc: 0]nuTilda: copy_x_back: 1.271 [ms]
[OGL LOG][lduLduBase.H:336] 
Statistics:
	Time per iteration: 15427 [mu s]
	Time per residual norm calculation: 257.000000 [mu s]
	Time per iteration and DOF: 2.445960 [ns]
	Retrieve results bandwidth 2.999000 [GByte/s]
[OGL LOG][Proc: 0]nuTilda: solve_multi_gpu: 40.346 [ms]
BJhipGKOBiCGStab:  Solving for nuTilda, Initial residual = 0.059759884157171, Final residual = 0.002781637010315015, No Iterations 2
[INFO] TimeStep: 2043.102 [ms]
ExecutionTime = 23.5 s  ClockTime = 24 s

Time = 6

velocityDampingConstraint velocityDamping damped 0 (0%) of cells, with max limit 300
[INFO] MatrixAssemblyU: 571.6609999999999 [ms]
[OGL LOG][Proc: 0]: global_index_init: 0.074 [ms]
[OGL LOG][Proc: 0]Ux_local_coeffs: call_update: 0 [ms]
[OGL LOG][Proc: 0]Ux_non_local_coeffs: call_update: 0 [ms]
[OGL LOG][Proc: 0]Ux: update_local_matrix_data: 10.994 [ms]
[OGL LOG][Proc: 0]Ux: update_non_local_matrix_data: 0.101 [ms]
[OGL LOG][Proc: 0]Ux_matrix: call_update: 3.682 [ms]
[OGL LOG][Proc: 0]Ux_rhs: call_update: 0.9500000000000001 [ms]
[OGL LOG][Preconditioner.H:121] Generate preconditioner BJ MaxBlockSize 1
[OGL LOG][Proc: 0]Ux: init_precond: 0.376 [ms]
[OGL LOG][StoppingCriterion.H:373] Creating stopping criterion with minIter 14 frequency 1
[OGL LOG][Proc: 0]Ux: generate_solver: 0.002 [ms]
[OGL LOG][Proc: 0]Ux: solve: 41.759 [ms]
[OGL LOG][Proc: 0]Ux: copy_x_back: 1.335 [ms]
[OGL LOG][lduLduBase.H:336] 
Statistics:
	Time per iteration: 4175 [mu s]
	Time per residual norm calculation: 269.000000 [mu s]
	Time per iteration and DOF: 0.661949 [ns]
	Retrieve results bandwidth 2.856000 [GByte/s]
[OGL LOG][Proc: 0]Ux: solve_multi_gpu: 48.976 [ms]
BJhipGKOBiCGStab:  Solving for Ux, Initial residual = 0.05086240294478338, Final residual = 0.005047715696530359, No Iterations 10
[OGL LOG][Proc: 0]: global_index_init: 2.953 [ms]
[OGL LOG][Proc: 0]Uy_local_coeffs: call_update: 0 [ms]
[OGL LOG][Proc: 0]Uy_non_local_coeffs: call_update: 0 [ms]
[OGL LOG][Proc: 0]Uy: update_local_matrix_data: 11.069 [ms]
[OGL LOG][Proc: 0]Uy: update_non_local_matrix_data: 0.07100000000000001 [ms]
[OGL LOG][Proc: 0]Uy_matrix: call_update: 3.488 [ms]
[OGL LOG][Proc: 0]Uy_rhs: call_update: 2.048 [ms]
[OGL LOG][Preconditioner.H:121] Generate preconditioner BJ MaxBlockSize 1
[OGL LOG][Proc: 0]Uy: init_precond: 0.377 [ms]
[OGL LOG][StoppingCriterion.H:373] Creating stopping criterion with minIter 14 frequency 1
[OGL LOG][Proc: 0]Uy: generate_solver: 0.002 [ms]
[OGL LOG][Proc: 0]Uy: solve: 49.385 [ms]
[OGL LOG][Proc: 0]Uy: copy_x_back: 1.293 [ms]
[OGL LOG][lduLduBase.H:336] 
Statistics:
	Time per iteration: 3527 [mu s]
	Time per residual norm calculation: 313.000000 [mu s]
	Time per iteration and DOF: 0.559208 [ns]
	Retrieve results bandwidth 2.948000 [GByte/s]
[OGL LOG][Proc: 0]Uy: solve_multi_gpu: 57.405 [ms]
BJhipGKOBiCGStab:  Solving for Uy, Initial residual = 0.09816476537423546, Final residual = 0.005008514102916578, No Iterations 14
[OGL LOG][Proc: 0]: global_index_init: 0.304 [ms]
[OGL LOG][Proc: 0]Uz_local_coeffs: call_update: 0 [ms]
[OGL LOG][Proc: 0]Uz_non_local_coeffs: call_update: 0 [ms]
[OGL LOG][Proc: 0]Uz: update_local_matrix_data: 11.264 [ms]
[OGL LOG][Proc: 0]Uz: update_non_local_matrix_data: 0.083 [ms]
[OGL LOG][Proc: 0]Uz_matrix: call_update: 5.508 [ms]
[OGL LOG][Proc: 0]Uz_rhs: call_update: 1.982 [ms]
[OGL LOG][Preconditioner.H:121] Generate preconditioner BJ MaxBlockSize 1
[OGL LOG][Proc: 0]Uz: init_precond: 0.415 [ms]
[OGL LOG][StoppingCriterion.H:373] Creating stopping criterion with minIter 13 frequency 1
[OGL LOG][Proc: 0]Uz: generate_solver: 0.002 [ms]
[OGL LOG][Proc: 0]Uz: solve: 50.943 [ms]
[OGL LOG][Proc: 0]Uz: copy_x_back: 1.281 [ms]
[OGL LOG][lduLduBase.H:336] 
Statistics:
	Time per iteration: 4245 [mu s]
	Time per residual norm calculation: 269.000000 [mu s]
	Time per iteration and DOF: 0.673047 [ns]
	Retrieve results bandwidth 2.976000 [GByte/s]
[OGL LOG][Proc: 0]Uz: solve_multi_gpu: 60.936 [ms]
BJhipGKOBiCGStab:  Solving for Uz, Initial residual = 0.09554698091528362, Final residual = 0.007278229157731937, No Iterations 12
[INFO] MomentumPredictor: 243.549 [ms]
[INFO] MatrixAssemblyPI: 83.401 [ms]
[INFO] MatrixAssemblyPII: 40.112 [ms]
[OGL LOG][Proc: 0]: global_index_init: 0.046 [ms]
[OGL LOG][Proc: 0]p_local_coeffs: call_update: 0 [ms]
[OGL LOG][Proc: 0]p_non_local_coeffs: call_update: 0 [ms]
[OGL LOG][Proc: 0]p: update_local_matrix_data: 10.542 [ms]
[OGL LOG][Proc: 0]p: update_non_local_matrix_data: 0.06900000000000001 [ms]
[OGL LOG][Proc: 0]p_matrix: call_update: 4.207 [ms]
[OGL LOG][Proc: 0]p_rhs: call_update: 2.172 [ms]
[OGL LOG][Preconditioner.H:121] Generate preconditioner BJ MaxBlockSize 1
[OGL LOG][Proc: 0]p: init_precond: 0.412 [ms]
[OGL LOG][StoppingCriterion.H:373] Creating stopping criterion with minIter 474 frequency 10
[OGL LOG][Proc: 0]p: generate_solver: 0.002 [ms]
[OGL LOG][Proc: 0]p: solve: 411.849 [ms]
[OGL LOG][Proc: 0]p: copy_x_back: 1.269 [ms]
[OGL LOG][lduLduBase.H:336] 
Statistics:
	Time per iteration: 856 [mu s]
	Time per residual norm calculation: 270.000000 [mu s]
	Time per iteration and DOF: 0.135719 [ns]
	Retrieve results bandwidth 3.004000 [GByte/s]
[OGL LOG][Proc: 0]p: solve_multi_gpu: 420.522 [ms]
BJhipGKOCG:  Solving for p, Initial residual = 0.09640210955780908, Final residual = 0.000452506445161905, No Iterations 481
[INFO] SolveP: 433.178 [ms]
time step continuity errors : sum local = 0.003789912369364318, global = -0.0002380159071438268, cumulative = 0.001804320837521033
[INFO] postSolveP: 21.751 [ms]
[OGL LOG][Proc: 0]: global_index_init: 3.377 [ms]
[OGL LOG][Proc: 0]nuTilda_local_coeffs: call_update: 0 [ms]
[OGL LOG][Proc: 0]nuTilda_non_local_coeffs: call_update: 0 [ms]
[OGL LOG][Proc: 0]nuTilda: update_local_matrix_data: 11.426 [ms]
[OGL LOG][Proc: 0]nuTilda: update_non_local_matrix_data: 0.07100000000000001 [ms]
[OGL LOG][Proc: 0]nuTilda_matrix: call_update: 5.988 [ms]
[OGL LOG][Proc: 0]nuTilda_rhs: call_update: 0.742 [ms]
[OGL LOG][Preconditioner.H:121] Generate preconditioner BJ MaxBlockSize 1
[OGL LOG][Proc: 0]nuTilda: init_precond: 0.373 [ms]
[OGL LOG][StoppingCriterion.H:373] Creating stopping criterion with minIter 3 frequency 1
[OGL LOG][Proc: 0]nuTilda: generate_solver: 0.002 [ms]
[OGL LOG][Proc: 0]nuTilda: solve: 28.32 [ms]
[OGL LOG][Proc: 0]nuTilda: copy_x_back: 1.281 [ms]
[OGL LOG][lduLduBase.H:336] 
Statistics:
	Time per iteration: 14160 [mu s]
	Time per residual norm calculation: 312.000000 [mu s]
	Time per iteration and DOF: 2.245076 [ns]
	Retrieve results bandwidth 2.976000 [GByte/s]
[OGL LOG][Proc: 0]nuTilda: solve_multi_gpu: 37.525 [ms]
BJhipGKOBiCGStab:  Solving for nuTilda, Initial residual = 0.06043819603233925, Final residual = 0.005005747172336397, No Iterations 2
[INFO] TimeStep: 1738.195 [ms]
ExecutionTime = 25.69 s  ClockTime = 26 s

Time = 7

velocityDampingConstraint velocityDamping damped 0 (0%) of cells, with max limit 300
[INFO] MatrixAssemblyU: 568.043 [ms]
[OGL LOG][Proc: 0]: global_index_init: 0.08400000000000001 [ms]
[OGL LOG][Proc: 0]Ux_local_coeffs: call_update: 0 [ms]
[OGL LOG][Proc: 0]Ux_non_local_coeffs: call_update: 0 [ms]
[OGL LOG][Proc: 0]Ux: update_local_matrix_data: 11.135 [ms]
[OGL LOG][Proc: 0]Ux: update_non_local_matrix_data: 0.07000000000000001 [ms]
[OGL LOG][Proc: 0]Ux_matrix: call_update: 4.301 [ms]
[OGL LOG][Proc: 0]Ux_rhs: call_update: 0.769 [ms]
[OGL LOG][Preconditioner.H:121] Generate preconditioner BJ MaxBlockSize 1
[OGL LOG][Proc: 0]Ux: init_precond: 0.386 [ms]
[OGL LOG][StoppingCriterion.H:373] Creating stopping criterion with minIter 12 frequency 1
[OGL LOG][Proc: 0]Ux: generate_solver: 0.002 [ms]
[OGL LOG][Proc: 0]Ux: solve: 45.284 [ms]
[OGL LOG][Proc: 0]Ux: copy_x_back: 1.301 [ms]
[OGL LOG][lduLduBase.H:336] 
Statistics:
	Time per iteration: 3773 [mu s]
	Time per residual norm calculation: 271.000000 [mu s]
	Time per iteration and DOF: 0.598211 [ns]
	Retrieve results bandwidth 2.930000 [GByte/s]
[OGL LOG][Proc: 0]Ux: solve_multi_gpu: 52.84 [ms]
BJhipGKOBiCGStab:  Solving for Ux, Initial residual = 0.02656565358016757, Final residual = 0.002019479336608318, No Iterations 12
[OGL LOG][Proc: 0]: global_index_init: 0.099 [ms]
[OGL LOG][Proc: 0]Uy_local_coeffs: call_update: 0 [ms]
[OGL LOG][Proc: 0]Uy_non_local_coeffs: call_update: 0 [ms]
[OGL LOG][Proc: 0]Uy: update_local_matrix_data: 11.02 [ms]
[OGL LOG][Proc: 0]Uy: update_non_local_matrix_data: 0.068 [ms]
[OGL LOG][Proc: 0]Uy_matrix: call_update: 7.094 [ms]
[OGL LOG][Proc: 0]Uy_rhs: call_update: 0.543 [ms]
[OGL LOG][Preconditioner.H:121] Generate preconditioner BJ MaxBlockSize 1
[OGL LOG][Proc: 0]Uy: init_precond: 0.386 [ms]
[OGL LOG][StoppingCriterion.H:373] Creating stopping criterion with minIter 16 frequency 1
[OGL LOG][Proc: 0]Uy: generate_solver: 0.002 [ms]
[OGL LOG][Proc: 0]Uy: solve: 51.72 [ms]
[OGL LOG][Proc: 0]Uy: copy_x_back: 1.252 [ms]
[OGL LOG][lduLduBase.H:336] 
Statistics:
	Time per iteration: 5172 [mu s]
	Time per residual norm calculation: 252.000000 [mu s]
	Time per iteration and DOF: 0.820024 [ns]
	Retrieve results bandwidth 3.045000 [GByte/s]
[OGL LOG][Proc: 0]Uy: solve_multi_gpu: 61.82 [ms]
BJhipGKOBiCGStab:  Solving for Uy, Initial residual = 0.07707999646394906, Final residual = 0.007702098736980363, No Iterations 10
[OGL LOG][Proc: 0]: global_index_init: 0.111 [ms]
[OGL LOG][Proc: 0]Uz_local_coeffs: call_update: 0 [ms]
[OGL LOG][Proc: 0]Uz_non_local_coeffs: call_update: 0 [ms]
[OGL LOG][Proc: 0]Uz: update_local_matrix_data: 11.533 [ms]
[OGL LOG][Proc: 0]Uz: update_non_local_matrix_data: 0.081 [ms]
[OGL LOG][Proc: 0]Uz_matrix: call_update: 3.858 [ms]
[OGL LOG][Proc: 0]Uz_rhs: call_update: 0.6910000000000001 [ms]
[OGL LOG][Preconditioner.H:121] Generate preconditioner BJ MaxBlockSize 1
[OGL LOG][Proc: 0]Uz: init_precond: 0.382 [ms]
[OGL LOG][StoppingCriterion.H:373] Creating stopping criterion with minIter 14 frequency 1
[OGL LOG][Proc: 0]Uz: generate_solver: 0.002 [ms]
[OGL LOG][Proc: 0]Uz: solve: 45.204 [ms]
[OGL LOG][Proc: 0]Uz: copy_x_back: 1.271 [ms]
[OGL LOG][lduLduBase.H:336] 
Statistics:
	Time per iteration: 3477 [mu s]
	Time per residual norm calculation: 311.000000 [mu s]
	Time per iteration and DOF: 0.551280 [ns]
	Retrieve results bandwidth 2.999000 [GByte/s]
[OGL LOG][Proc: 0]Uz: solve_multi_gpu: 52.209 [ms]
BJhipGKOBiCGStab:  Solving for Uz, Initial residual = 0.06847062805811126, Final residual = 0.004270320664329808, No Iterations 13
[INFO] MomentumPredictor: 240.223 [ms]
[INFO] MatrixAssemblyPI: 82.664 [ms]
[INFO] MatrixAssemblyPII: 40.513 [ms]
[OGL LOG][Proc: 0]: global_index_init: 0.041 [ms]
[OGL LOG][Proc: 0]p_local_coeffs: call_update: 0 [ms]
[OGL LOG][Proc: 0]p_non_local_coeffs: call_update: 0 [ms]
[OGL LOG][Proc: 0]p: update_local_matrix_data: 10.979 [ms]
[OGL LOG][Proc: 0]p: update_non_local_matrix_data: 0.07200000000000001 [ms]
[OGL LOG][Proc: 0]p_matrix: call_update: 4.204 [ms]
[OGL LOG][Proc: 0]p_rhs: call_update: 1.903 [ms]
[OGL LOG][Preconditioner.H:121] Generate preconditioner BJ MaxBlockSize 1
[OGL LOG][Proc: 0]p: init_precond: 0.392 [ms]
[OGL LOG][StoppingCriterion.H:373] Creating stopping criterion with minIter 288 frequency 8
[OGL LOG][Proc: 0]p: generate_solver: 0.001 [ms]
[OGL LOG][Proc: 0]p: solve: 305.712 [ms]
[OGL LOG][Proc: 0]p: copy_x_back: 1.254 [ms]
[OGL LOG][lduLduBase.H:336] 
Statistics:
	Time per iteration: 866 [mu s]
	Time per residual norm calculation: 257.000000 [mu s]
	Time per iteration and DOF: 0.137305 [ns]
	Retrieve results bandwidth 3.040000 [GByte/s]
[OGL LOG][Proc: 0]p: solve_multi_gpu: 314.016 [ms]
BJhipGKOCG:  Solving for p, Initial residual = 0.08284128152503969, Final residual = 0.0008196634702080689, No Iterations 353
[INFO] SolveP: 327.202 [ms]
time step continuity errors : sum local = 0.006770119996366672, global = 4.142734341351088e-05, cumulative = 0.001845748180934544
[INFO] postSolveP: 21.92 [ms]
[OGL LOG][Proc: 0]: global_index_init: 2.31 [ms]
[OGL LOG][Proc: 0]nuTilda_local_coeffs: call_update: 0 [ms]
[OGL LOG][Proc: 0]nuTilda_non_local_coeffs: call_update: 0 [ms]
[OGL LOG][Proc: 0]nuTilda: update_local_matrix_data: 11.575 [ms]
[OGL LOG][Proc: 0]nuTilda: update_non_local_matrix_data: 0.073 [ms]
[OGL LOG][Proc: 0]nuTilda_matrix: call_update: 3.643 [ms]
[OGL LOG][Proc: 0]nuTilda_rhs: call_update: 0.905 [ms]
[OGL LOG][Preconditioner.H:121] Generate preconditioner BJ MaxBlockSize 1
[OGL LOG][Proc: 0]nuTilda: init_precond: 0.379 [ms]
[OGL LOG][StoppingCriterion.H:373] Creating stopping criterion with minIter 2 frequency 1
[OGL LOG][Proc: 0]nuTilda: generate_solver: 0.002 [ms]
[OGL LOG][Proc: 0]nuTilda: solve: 28.818 [ms]
[OGL LOG][Proc: 0]nuTilda: copy_x_back: 1.27 [ms]
[OGL LOG][lduLduBase.H:336] 
Statistics:
	Time per iteration: 14409 [mu s]
	Time per residual norm calculation: 257.000000 [mu s]
	Time per iteration and DOF: 2.284555 [ns]
	Retrieve results bandwidth 3.002000 [GByte/s]
[OGL LOG][Proc: 0]nuTilda: solve_multi_gpu: 35.847 [ms]
BJhipGKOBiCGStab:  Solving for nuTilda, Initial residual = 0.04610824756259927, Final residual = 0.00197614815136917, No Iterations 2
[INFO] TimeStep: 1614.711 [ms]
ExecutionTime = 27.77 s  ClockTime = 28 s

Time = 8

velocityDampingConstraint velocityDamping damped 0 (0%) of cells, with max limit 300
[INFO] MatrixAssemblyU: 555.05 [ms]
[OGL LOG][Proc: 0]: global_index_init: 0.1 [ms]
[OGL LOG][Proc: 0]Ux_local_coeffs: call_update: 0 [ms]
[OGL LOG][Proc: 0]Ux_non_local_coeffs: call_update: 0 [ms]
[OGL LOG][Proc: 0]Ux: update_local_matrix_data: 11.284 [ms]
[OGL LOG][Proc: 0]Ux: update_non_local_matrix_data: 0.07100000000000001 [ms]
[OGL LOG][Proc: 0]Ux_matrix: call_update: 3.472 [ms]
[OGL LOG][Proc: 0]Ux_rhs: call_update: 1.094 [ms]
[OGL LOG][Preconditioner.H:121] Generate preconditioner BJ MaxBlockSize 1
[OGL LOG][Proc: 0]Ux: init_precond: 0.385 [ms]
[OGL LOG][StoppingCriterion.H:373] Creating stopping criterion with minIter 14 frequency 1
[OGL LOG][Proc: 0]Ux: generate_solver: 0.002 [ms]
[OGL LOG][Proc: 0]Ux: solve: 43.579 [ms]
[OGL LOG][Proc: 0]Ux: copy_x_back: 1.258 [ms]
[OGL LOG][lduLduBase.H:336] 
Statistics:
	Time per iteration: 3961 [mu s]
	Time per residual norm calculation: 255.000000 [mu s]
	Time per iteration and DOF: 0.628019 [ns]
	Retrieve results bandwidth 3.030000 [GByte/s]
[OGL LOG][Proc: 0]Ux: solve_multi_gpu: 50.589 [ms]
BJhipGKOBiCGStab:  Solving for Ux, Initial residual = 0.02038375037342096, Final residual = 0.00197166683058301, No Iterations 11
[OGL LOG][Proc: 0]: global_index_init: 0.094 [ms]
[OGL LOG][Proc: 0]Uy_local_coeffs: call_update: 0 [ms]
[OGL LOG][Proc: 0]Uy_non_local_coeffs: call_update: 0 [ms]
[OGL LOG][Proc: 0]Uy: update_local_matrix_data: 11.598 [ms]
[OGL LOG][Proc: 0]Uy: update_non_local_matrix_data: 0.081 [ms]
[OGL LOG][Proc: 0]Uy_matrix: call_update: 3.567 [ms]
[OGL LOG][Proc: 0]Uy_rhs: call_update: 0.759 [ms]
[OGL LOG][Preconditioner.H:121] Generate preconditioner BJ MaxBlockSize 1
[OGL LOG][Proc: 0]Uy: init_precond: 0.379 [ms]
[OGL LOG][StoppingCriterion.H:373] Creating stopping criterion with minIter 12 frequency 1
[OGL LOG][Proc: 0]Uy: generate_solver: 0.002 [ms]
[OGL LOG][Proc: 0]Uy: solve: 44.568 [ms]
[OGL LOG][Proc: 0]Uy: copy_x_back: 1.273 [ms]
[OGL LOG][lduLduBase.H:336] 
Statistics:
	Time per iteration: 3714 [mu s]
	Time per residual norm calculation: 266.000000 [mu s]
	Time per iteration and DOF: 0.588857 [ns]
	Retrieve results bandwidth 2.995000 [GByte/s]
[OGL LOG][Proc: 0]Uy: solve_multi_gpu: 51.338 [ms]
BJhipGKOBiCGStab:  Solving for Uy, Initial residual = 0.05413356882760084, Final residual = 0.004287160450583134, No Iterations 12
[OGL LOG][Proc: 0]: global_index_init: 0.184 [ms]
[OGL LOG][Proc: 0]Uz_local_coeffs: call_update: 0 [ms]
[OGL LOG][Proc: 0]Uz_non_local_coeffs: call_update: 0 [ms]
[OGL LOG][Proc: 0]Uz: update_local_matrix_data: 13.08 [ms]
[OGL LOG][Proc: 0]Uz: update_non_local_matrix_data: 0.06900000000000001 [ms]
[OGL LOG][Proc: 0]Uz_matrix: call_update: 3.19 [ms]
[OGL LOG][Proc: 0]Uz_rhs: call_update: 1.781 [ms]
[OGL LOG][Preconditioner.H:121] Generate preconditioner BJ MaxBlockSize 1
[OGL LOG][Proc: 0]Uz: init_precond: 0.383 [ms]
[OGL LOG][StoppingCriterion.H:373] Creating stopping criterion with minIter 15 frequency 1
[OGL LOG][Proc: 0]Uz: generate_solver: 0.002 [ms]
[OGL LOG][Proc: 0]Uz: solve: 47.24 [ms]
[OGL LOG][Proc: 0]Uz: copy_x_back: 1.253 [ms]
[OGL LOG][lduLduBase.H:336] 
Statistics:
	Time per iteration: 4294 [mu s]
	Time per residual norm calculation: 268.000000 [mu s]
	Time per iteration and DOF: 0.680816 [ns]
	Retrieve results bandwidth 3.043000 [GByte/s]
[OGL LOG][Proc: 0]Uz: solve_multi_gpu: 54.642 [ms]
BJhipGKOBiCGStab:  Solving for Uz, Initial residual = 0.05745752476646588, Final residual = 0.005483169534578703, No Iterations 11
[INFO] MomentumPredictor: 232.405 [ms]
[INFO] MatrixAssemblyPI: 83.175 [ms]
[INFO] MatrixAssemblyPII: 40.529 [ms]
[OGL LOG][Proc: 0]: global_index_init: 0.04 [ms]
[OGL LOG][Proc: 0]p_local_coeffs: call_update: 0 [ms]
[OGL LOG][Proc: 0]p_non_local_coeffs: call_update: 0 [ms]
[OGL LOG][Proc: 0]p: update_local_matrix_data: 14.215 [ms]
[OGL LOG][Proc: 0]p: update_non_local_matrix_data: 0.07000000000000001 [ms]
[OGL LOG][Proc: 0]p_matrix: call_update: 3.49 [ms]
[OGL LOG][Proc: 0]p_rhs: call_update: 0.469 [ms]
[OGL LOG][Preconditioner.H:121] Generate preconditioner BJ MaxBlockSize 1
[OGL LOG][Proc: 0]p: init_precond: 0.368 [ms]
[OGL LOG][StoppingCriterion.H:373] Creating stopping criterion with minIter 211 frequency 6
[OGL LOG][Proc: 0]p: generate_solver: 0.002 [ms]
[OGL LOG][Proc: 0]p: solve: 290.129 [ms]
[OGL LOG][Proc: 0]p: copy_x_back: 1.259 [ms]
[OGL LOG][lduLduBase.H:336] 
Statistics:
	Time per iteration: 876 [mu s]
	Time per residual norm calculation: 255.000000 [mu s]
	Time per iteration and DOF: 0.138890 [ns]
	Retrieve results bandwidth 3.028000 [GByte/s]
[OGL LOG][Proc: 0]p: solve_multi_gpu: 296.29 [ms]
BJhipGKOCG:  Solving for p, Initial residual = 0.07210609440134327, Final residual = 0.0007137882416204477, No Iterations 331
[INFO] SolveP: 312.538 [ms]
time step continuity errors : sum local = 0.005909638714066621, global = -4.45387848315682e-05, cumulative = 0.001801209396102975
[INFO] postSolveP: 21.673 [ms]
[OGL LOG][Proc: 0]: global_index_init: 4.39 [ms]
[OGL LOG][Proc: 0]nuTilda_local_coeffs: call_update: 0 [ms]
[OGL LOG][Proc: 0]nuTilda_non_local_coeffs: call_update: 0 [ms]
[OGL LOG][Proc: 0]nuTilda: update_local_matrix_data: 12.491 [ms]
[OGL LOG][Proc: 0]nuTilda: update_non_local_matrix_data: 0.07000000000000001 [ms]
[OGL LOG][Proc: 0]nuTilda_matrix: call_update: 3.477 [ms]
[OGL LOG][Proc: 0]nuTilda_rhs: call_update: 1.106 [ms]
[OGL LOG][Preconditioner.H:121] Generate preconditioner BJ MaxBlockSize 1
[OGL LOG][Proc: 0]nuTilda: init_precond: 0.379 [ms]
[OGL LOG][StoppingCriterion.H:373] Creating stopping criterion with minIter 3 frequency 1
[OGL LOG][Proc: 0]nuTilda: generate_solver: 0.002 [ms]
[OGL LOG][Proc: 0]nuTilda: solve: 27.857 [ms]
[OGL LOG][Proc: 0]nuTilda: copy_x_back: 1.268 [ms]
[OGL LOG][lduLduBase.H:336] 
Statistics:
	Time per iteration: 13928 [mu s]
	Time per residual norm calculation: 269.000000 [mu s]
	Time per iteration and DOF: 2.208292 [ns]
	Retrieve results bandwidth 3.007000 [GByte/s]
[OGL LOG][Proc: 0]nuTilda: solve_multi_gpu: 34.887 [ms]
BJhipGKOBiCGStab:  Solving for nuTilda, Initial residual = 0.05811822992225497, Final residual = 0.004555244295161897, No Iterations 2
[INFO] TimeStep: 1579.384 [ms]
ExecutionTime = 29.8 s  ClockTime = 30 s

Time = 9

velocityDampingConstraint velocityDamping damped 0 (0%) of cells, with max limit 300
[INFO] MatrixAssemblyU: 544.4690000000001 [ms]
[OGL LOG][Proc: 0]: global_index_init: 0.09 [ms]
[OGL LOG][Proc: 0]Ux_local_coeffs: call_update: 0 [ms]
[OGL LOG][Proc: 0]Ux_non_local_coeffs: call_update: 0 [ms]
[OGL LOG][Proc: 0]Ux: update_local_matrix_data: 10.704 [ms]
[OGL LOG][Proc: 0]Ux: update_non_local_matrix_data: 0.07200000000000001 [ms]
[OGL LOG][Proc: 0]Ux_matrix: call_update: 4.161 [ms]
[OGL LOG][Proc: 0]Ux_rhs: call_update: 1.128 [ms]
[OGL LOG][Preconditioner.H:121] Generate preconditioner BJ MaxBlockSize 1
[OGL LOG][Proc: 0]Ux: init_precond: 0.464 [ms]
[OGL LOG][StoppingCriterion.H:373] Creating stopping criterion with minIter 13 frequency 1
[OGL LOG][Proc: 0]Ux: generate_solver: 0.001 [ms]
[OGL LOG][Proc: 0]Ux: solve: 50.008 [ms]
[OGL LOG][Proc: 0]Ux: copy_x_back: 1.257 [ms]
[OGL LOG][lduLduBase.H:336] 
Statistics:
	Time per iteration: 3846 [mu s]
	Time per residual norm calculation: 253.000000 [mu s]
	Time per iteration and DOF: 0.609785 [ns]
	Retrieve results bandwidth 3.033000 [GByte/s]
[OGL LOG][Proc: 0]Ux: solve_multi_gpu: 57.835 [ms]
BJhipGKOBiCGStab:  Solving for Ux, Initial residual = 0.01699967709603423, Final residual = 0.001631811967378168, No Iterations 13
[OGL LOG][Proc: 0]: global_index_init: 0.154 [ms]
[OGL LOG][Proc: 0]Uy_local_coeffs: call_update: 0 [ms]
[OGL LOG][Proc: 0]Uy_non_local_coeffs: call_update: 0 [ms]
[OGL LOG][Proc: 0]Uy: update_local_matrix_data: 11.162 [ms]
[OGL LOG][Proc: 0]Uy: update_non_local_matrix_data: 0.06900000000000001 [ms]
[OGL LOG][Proc: 0]Uy_matrix: call_update: 3.317 [ms]
[OGL LOG][Proc: 0]Uy_rhs: call_update: 0.9440000000000001 [ms]
[OGL LOG][Preconditioner.H:121] Generate preconditioner BJ MaxBlockSize 1
[OGL LOG][Proc: 0]Uy: init_precond: 0.378 [ms]
[OGL LOG][StoppingCriterion.H:373] Creating stopping criterion with minIter 14 frequency 1
[OGL LOG][Proc: 0]Uy: generate_solver: 0.002 [ms]
[OGL LOG][Proc: 0]Uy: solve: 44.533 [ms]
[OGL LOG][Proc: 0]Uy: copy_x_back: 1.25 [ms]
[OGL LOG][lduLduBase.H:336] 
Statistics:
	Time per iteration: 3711 [mu s]
	Time per residual norm calculation: 266.000000 [mu s]
	Time per iteration and DOF: 0.588381 [ns]
	Retrieve results bandwidth 3.050000 [GByte/s]
[OGL LOG][Proc: 0]Uy: solve_multi_gpu: 51.217 [ms]
BJhipGKOBiCGStab:  Solving for Uy, Initial residual = 0.04643778083926076, Final residual = 0.003223375459072178, No Iterations 12
[OGL LOG][Proc: 0]: global_index_init: 0.298 [ms]
[OGL LOG][Proc: 0]Uz_local_coeffs: call_update: 0 [ms]
[OGL LOG][Proc: 0]Uz_non_local_coeffs: call_update: 0 [ms]
[OGL LOG][Proc: 0]Uz: update_local_matrix_data: 11.467 [ms]
[OGL LOG][Proc: 0]Uz: update_non_local_matrix_data: 0.068 [ms]
[OGL LOG][Proc: 0]Uz_matrix: call_update: 6.784 [ms]
[OGL LOG][Proc: 0]Uz_rhs: call_update: 0.492 [ms]
[OGL LOG][Preconditioner.H:121] Generate preconditioner BJ MaxBlockSize 1
[OGL LOG][Proc: 0]Uz: init_precond: 0.379 [ms]
[OGL LOG][StoppingCriterion.H:373] Creating stopping criterion with minIter 13 frequency 1
[OGL LOG][Proc: 0]Uz: generate_solver: 0.002 [ms]
[OGL LOG][Proc: 0]Uz: solve: 43.441 [ms]
[OGL LOG][Proc: 0]Uz: copy_x_back: 1.256 [ms]
[OGL LOG][lduLduBase.H:336] 
Statistics:
	Time per iteration: 3949 [mu s]
	Time per residual norm calculation: 264.000000 [mu s]
	Time per iteration and DOF: 0.626116 [ns]
	Retrieve results bandwidth 3.035000 [GByte/s]
[OGL LOG][Proc: 0]Uz: solve_multi_gpu: 53.16 [ms]
BJhipGKOBiCGStab:  Solving for Uz, Initial residual = 0.0466990850727594, Final residual = 0.004616965078561718, No Iterations 11
[INFO] MomentumPredictor: 235.309 [ms]
[INFO] MatrixAssemblyPI: 83.16500000000001 [ms]
[INFO] MatrixAssemblyPII: 40.328 [ms]
[OGL LOG][Proc: 0]: global_index_init: 0.039 [ms]
[OGL LOG][Proc: 0]p_local_coeffs: call_update: 0 [ms]
[OGL LOG][Proc: 0]p_non_local_coeffs: call_update: 0 [ms]
[OGL LOG][Proc: 0]p: update_local_matrix_data: 10.951 [ms]
[OGL LOG][Proc: 0]p: update_non_local_matrix_data: 0.07200000000000001 [ms]
[OGL LOG][Proc: 0]p_matrix: call_update: 4.298 [ms]
[OGL LOG][Proc: 0]p_rhs: call_update: 0.77 [ms]
[OGL LOG][Preconditioner.H:121] Generate preconditioner BJ MaxBlockSize 1
[OGL LOG][Proc: 0]p: init_precond: 0.363 [ms]
[OGL LOG][StoppingCriterion.H:373] Creating stopping criterion with minIter 198 frequency 6
[OGL LOG][Proc: 0]p: generate_solver: 0.002 [ms]
[OGL LOG][Proc: 0]p: solve: 254.658 [ms]
[OGL LOG][Proc: 0]p: copy_x_back: 1.261 [ms]
[OGL LOG][lduLduBase.H:336] 
Statistics:
	Time per iteration: 899 [mu s]
	Time per residual norm calculation: 258.000000 [mu s]
	Time per iteration and DOF: 0.142537 [ns]
	Retrieve results bandwidth 3.023000 [GByte/s]
[OGL LOG][Proc: 0]p: solve_multi_gpu: 261.927 [ms]
BJhipGKOCG:  Solving for p, Initial residual = 0.06536874749216237, Final residual = 0.0006339822141405003, No Iterations 283
[INFO] SolveP: 275.072 [ms]
time step continuity errors : sum local = 0.005265030857270495, global = -0.0002186899991762099, cumulative = 0.001582519396926765
[INFO] postSolveP: 21.737 [ms]
[OGL LOG][Proc: 0]: global_index_init: 1.151 [ms]
[OGL LOG][Proc: 0]nuTilda_local_coeffs: call_update: 0 [ms]
[OGL LOG][Proc: 0]nuTilda_non_local_coeffs: call_update: 0 [ms]
[OGL LOG][Proc: 0]nuTilda: update_local_matrix_data: 11.68 [ms]
[OGL LOG][Proc: 0]nuTilda: update_non_local_matrix_data: 0.07000000000000001 [ms]
[OGL LOG][Proc: 0]nuTilda_matrix: call_update: 3.646 [ms]
[OGL LOG][Proc: 0]nuTilda_rhs: call_update: 1.018 [ms]
[OGL LOG][Preconditioner.H:121] Generate preconditioner BJ MaxBlockSize 1
[OGL LOG][Proc: 0]nuTilda: init_precond: 0.37 [ms]
[OGL LOG][StoppingCriterion.H:373] Creating stopping criterion with minIter 2 frequency 1
[OGL LOG][Proc: 0]nuTilda: generate_solver: 0.002 [ms]
[OGL LOG][Proc: 0]nuTilda: solve: 36 [ms]
[OGL LOG][Proc: 0]nuTilda: copy_x_back: 1.285 [ms]
[OGL LOG][lduLduBase.H:336] 
Statistics:
	Time per iteration: 18000 [mu s]
	Time per residual norm calculation: 254.000000 [mu s]
	Time per iteration and DOF: 2.853910 [ns]
	Retrieve results bandwidth 2.967000 [GByte/s]
[OGL LOG][Proc: 0]nuTilda: solve_multi_gpu: 43.159 [ms]
BJhipGKOBiCGStab:  Solving for nuTilda, Initial residual = 0.04084237471483462, Final residual = 0.001821750631936569, No Iterations 2
[INFO] TimeStep: 1536.652 [ms]
ExecutionTime = 31.76 s  ClockTime = 32 s

Time = 10

velocityDampingConstraint velocityDamping damped 0 (0%) of cells, with max limit 300
[INFO] MatrixAssemblyU: 542.177 [ms]
[OGL LOG][Proc: 0]: global_index_init: 0.026 [ms]
[OGL LOG][Proc: 0]Ux_local_coeffs: call_update: 0 [ms]
[OGL LOG][Proc: 0]Ux_non_local_coeffs: call_update: 0 [ms]
[OGL LOG][Proc: 0]Ux: update_local_matrix_data: 11.055 [ms]
[OGL LOG][Proc: 0]Ux: update_non_local_matrix_data: 0.068 [ms]
[OGL LOG][Proc: 0]Ux_matrix: call_update: 3.855 [ms]
[OGL LOG][Proc: 0]Ux_rhs: call_update: 1.245 [ms]
[OGL LOG][Preconditioner.H:121] Generate preconditioner BJ MaxBlockSize 1
[OGL LOG][Proc: 0]Ux: init_precond: 0.407 [ms]
[OGL LOG][StoppingCriterion.H:373] Creating stopping criterion with minIter 16 frequency 1
[OGL LOG][Proc: 0]Ux: generate_solver: 0.002 [ms]
[OGL LOG][Proc: 0]Ux: solve: 45.878 [ms]
[OGL LOG][Proc: 0]Ux: copy_x_back: 1.255 [ms]
[OGL LOG][lduLduBase.H:336] 
Statistics:
	Time per iteration: 3529 [mu s]
	Time per residual norm calculation: 275.000000 [mu s]
	Time per iteration and DOF: 0.559525 [ns]
	Retrieve results bandwidth 3.038000 [GByte/s]
[OGL LOG][Proc: 0]Ux: solve_multi_gpu: 53.444 [ms]
BJhipGKOBiCGStab:  Solving for Ux, Initial residual = 0.01508950842164724, Final residual = 0.001453254814783208, No Iterations 13
[OGL LOG][Proc: 0]: global_index_init: 0.092 [ms]
[OGL LOG][Proc: 0]Uy_local_coeffs: call_update: 0 [ms]
[OGL LOG][Proc: 0]Uy_non_local_coeffs: call_update: 0 [ms]
[OGL LOG][Proc: 0]Uy: update_local_matrix_data: 11.162 [ms]
[OGL LOG][Proc: 0]Uy: update_non_local_matrix_data: 0.067 [ms]
[OGL LOG][Proc: 0]Uy_matrix: call_update: 3.208 [ms]
[OGL LOG][Proc: 0]Uy_rhs: call_update: 1.452 [ms]
[OGL LOG][Preconditioner.H:121] Generate preconditioner BJ MaxBlockSize 1
[OGL LOG][Proc: 0]Uy: init_precond: 0.367 [ms]
[OGL LOG][StoppingCriterion.H:373] Creating stopping criterion with minIter 14 frequency 1
[OGL LOG][Proc: 0]Uy: generate_solver: 0.002 [ms]
[OGL LOG][Proc: 0]Uy: solve: 41.524 [ms]
[OGL LOG][Proc: 0]Uy: copy_x_back: 1.264 [ms]
[OGL LOG][lduLduBase.H:336] 
Statistics:
	Time per iteration: 4152 [mu s]
	Time per residual norm calculation: 254.000000 [mu s]
	Time per iteration and DOF: 0.658302 [ns]
	Retrieve results bandwidth 3.016000 [GByte/s]
[OGL LOG][Proc: 0]Uy: solve_multi_gpu: 48.654 [ms]
BJhipGKOBiCGStab:  Solving for Uy, Initial residual = 0.048492242737104, Final residual = 0.004808703612870001, No Iterations 10
[OGL LOG][Proc: 0]: global_index_init: 0.181 [ms]
[OGL LOG][Proc: 0]Uz_local_coeffs: call_update: 0 [ms]
[OGL LOG][Proc: 0]Uz_non_local_coeffs: call_update: 0 [ms]
[OGL LOG][Proc: 0]Uz: update_local_matrix_data: 11.474 [ms]
[OGL LOG][Proc: 0]Uz: update_non_local_matrix_data: 0.079 [ms]
[OGL LOG][Proc: 0]Uz_matrix: call_update: 4.661 [ms]
[OGL LOG][Proc: 0]Uz_rhs: call_update: 0.455 [ms]
[OGL LOG][Preconditioner.H:121] Generate preconditioner BJ MaxBlockSize 1
[OGL LOG][Proc: 0]Uz: init_precond: 0.39 [ms]
[OGL LOG][StoppingCriterion.H:373] Creating stopping criterion with minIter 13 frequency 1
[OGL LOG][Proc: 0]Uz: generate_solver: 0.002 [ms]
[OGL LOG][Proc: 0]Uz: solve: 45.804 [ms]
[OGL LOG][Proc: 0]Uz: copy_x_back: 1.268 [ms]
[OGL LOG][lduLduBase.H:336] 
Statistics:
	Time per iteration: 4164 [mu s]
	Time per residual norm calculation: 270.000000 [mu s]
	Time per iteration and DOF: 0.660205 [ns]
	Retrieve results bandwidth 3.007000 [GByte/s]
[OGL LOG][Proc: 0]Uz: solve_multi_gpu: 53.359 [ms]
BJhipGKOBiCGStab:  Solving for Uz, Initial residual = 0.04208399312920293, Final residual = 0.004057815147522617, No Iterations 11
[INFO] MomentumPredictor: 230.841 [ms]
[INFO] MatrixAssemblyPI: 82.729 [ms]
[INFO] MatrixAssemblyPII: 40.336 [ms]
[OGL LOG][Proc: 0]: global_index_init: 0.13 [ms]
[OGL LOG][Proc: 0]p_local_coeffs: call_update: 0 [ms]
[OGL LOG][Proc: 0]p_non_local_coeffs: call_update: 0 [ms]
[OGL LOG][Proc: 0]p: update_local_matrix_data: 10.552 [ms]
[OGL LOG][Proc: 0]p: update_non_local_matrix_data: 0.07200000000000001 [ms]
[OGL LOG][Proc: 0]p_matrix: call_update: 4.871 [ms]
[OGL LOG][Proc: 0]p_rhs: call_update: 0.961 [ms]
[OGL LOG][Preconditioner.H:121] Generate preconditioner BJ MaxBlockSize 1
[OGL LOG][Proc: 0]p: init_precond: 0.369 [ms]
[OGL LOG][StoppingCriterion.H:373] Creating stopping criterion with minIter 169 frequency 6
[OGL LOG][Proc: 0]p: generate_solver: 0.002 [ms]
[OGL LOG][Proc: 0]p: solve: 252.418 [ms]
[OGL LOG][Proc: 0]p: copy_x_back: 1.252 [ms]
[OGL LOG][lduLduBase.H:336] 
Statistics:
	Time per iteration: 891 [mu s]
	Time per residual norm calculation: 259.000000 [mu s]
	Time per iteration and DOF: 0.141269 [ns]
	Retrieve results bandwidth 3.045000 [GByte/s]
[OGL LOG][Proc: 0]p: solve_multi_gpu: 260.436 [ms]
BJhipGKOCG:  Solving for p, Initial residual = 0.06011663388193129, Final residual = 0.0005853533889546128, No Iterations 283
[INFO] SolveP: 273.112 [ms]
time step continuity errors : sum local = 0.00482751898637039, global = -0.0001501371379545359, cumulative = 0.00143238225897223
[INFO] postSolveP: 21.497 [ms]
[OGL LOG][Proc: 0]: global_index_init: 0.311 [ms]
[OGL LOG][Proc: 0]nuTilda_local_coeffs: call_update: 0 [ms]
[OGL LOG][Proc: 0]nuTilda_non_local_coeffs: call_update: 0 [ms]
[OGL LOG][Proc: 0]nuTilda: update_local_matrix_data: 11.526 [ms]
[OGL LOG][Proc: 0]nuTilda: update_non_local_matrix_data: 0.073 [ms]
[OGL LOG][Proc: 0]nuTilda_matrix: call_update: 3.75 [ms]
[OGL LOG][Proc: 0]nuTilda_rhs: call_update: 0.906 [ms]
[OGL LOG][Preconditioner.H:121] Generate preconditioner BJ MaxBlockSize 1
[OGL LOG][Proc: 0]nuTilda: init_precond: 0.375 [ms]
[OGL LOG][StoppingCriterion.H:373] Creating stopping criterion with minIter 3 frequency 1
[OGL LOG][Proc: 0]nuTilda: generate_solver: 0.002 [ms]
[OGL LOG][Proc: 0]nuTilda: solve: 27.419 [ms]
[OGL LOG][Proc: 0]nuTilda: copy_x_back: 1.272 [ms]
[OGL LOG][lduLduBase.H:336] 
Statistics:
	Time per iteration: 13709 [mu s]
	Time per residual norm calculation: 316.000000 [mu s]
	Time per iteration and DOF: 2.173570 [ns]
	Retrieve results bandwidth 2.997000 [GByte/s]
[OGL LOG][Proc: 0]nuTilda: solve_multi_gpu: 34.55 [ms]
[...]
[OGL LOG][Proc: 0]nuTilda: update_non_local_matrix_data: 0.074 [ms]
[OGL LOG][Proc: 0]nuTilda_matrix: call_update: 4.146 [ms]
[OGL LOG][Proc: 0]nuTilda_rhs: call_update: 0.52 [ms]
[OGL LOG][Preconditioner.H:121] Generate preconditioner BJ MaxBlockSize 1
[OGL LOG][Proc: 0]nuTilda: init_precond: 0.427 [ms]
[OGL LOG][StoppingCriterion.H:373] Creating stopping criterion with minIter 2 frequency 1
[OGL LOG][Proc: 0]nuTilda: generate_solver: 0.002 [ms]
[OGL LOG][Proc: 0]nuTilda: solve: 28.015 [ms]
[OGL LOG][Proc: 0]nuTilda: copy_x_back: 1.263 [ms]
[OGL LOG][lduLduBase.H:336] 
Statistics:
	Time per iteration: 14007 [mu s]
	Time per residual norm calculation: 256.000000 [mu s]
	Time per iteration and DOF: 2.220818 [ns]
	Retrieve results bandwidth 3.018000 [GByte/s]
[OGL LOG][Proc: 0]nuTilda: solve_multi_gpu: 35.192 [ms]
BJhipGKOBiCGStab:  Solving for nuTilda, Initial residual = 0.01232130482974449, Final residual = 0.0008910846437534627, No Iterations 2
[INFO] TimeStep: 1399.089 [ms]
ExecutionTime = 107.21 s  ClockTime = 108 s

Time = 48

velocityDampingConstraint velocityDamping damped 0 (0%) of cells, with max limit 300
[INFO] MatrixAssemblyU: 539.53 [ms]
[OGL LOG][Proc: 0]: global_index_init: 0.092 [ms]
[OGL LOG][Proc: 0]Ux_local_coeffs: call_update: 0 [ms]
[OGL LOG][Proc: 0]Ux_non_local_coeffs: call_update: 0 [ms]
[OGL LOG][Proc: 0]Ux: update_local_matrix_data: 10.774 [ms]
[OGL LOG][Proc: 0]Ux: update_non_local_matrix_data: 0.092 [ms]
[OGL LOG][Proc: 0]Ux_matrix: call_update: 3.849 [ms]
[OGL LOG][Proc: 0]Ux_rhs: call_update: 0.749 [ms]
[OGL LOG][Preconditioner.H:121] Generate preconditioner BJ MaxBlockSize 1
[OGL LOG][Proc: 0]Ux: init_precond: 0.385 [ms]
[OGL LOG][StoppingCriterion.H:373] Creating stopping criterion with minIter 12 frequency 1
[OGL LOG][Proc: 0]Ux: generate_solver: 0.002 [ms]
[OGL LOG][Proc: 0]Ux: solve: 40.388 [ms]
[OGL LOG][Proc: 0]Ux: copy_x_back: 1.255 [ms]
[OGL LOG][lduLduBase.H:336] 
Statistics:
	Time per iteration: 4038 [mu s]
	Time per residual norm calculation: 317.000000 [mu s]
	Time per iteration and DOF: 0.640227 [ns]
	Retrieve results bandwidth 3.038000 [GByte/s]
[OGL LOG][Proc: 0]Ux: solve_multi_gpu: 47.452 [ms]
BJhipGKOBiCGStab:  Solving for Ux, Initial residual = 0.02930797664776921, Final residual = 0.002703166760294549, No Iterations 10
[OGL LOG][Proc: 0]: global_index_init: 0.197 [ms]
[OGL LOG][Proc: 0]Uy_local_coeffs: call_update: 0 [ms]
[OGL LOG][Proc: 0]Uy_non_local_coeffs: call_update: 0 [ms]
[OGL LOG][Proc: 0]Uy: update_local_matrix_data: 11.066 [ms]
[OGL LOG][Proc: 0]Uy: update_non_local_matrix_data: 0.074 [ms]
[OGL LOG][Proc: 0]Uy_matrix: call_update: 3.32 [ms]
[OGL LOG][Proc: 0]Uy_rhs: call_update: 0.781 [ms]
[OGL LOG][Preconditioner.H:121] Generate preconditioner BJ MaxBlockSize 1
[OGL LOG][Proc: 0]Uy: init_precond: 0.393 [ms]
[OGL LOG][StoppingCriterion.H:373] Creating stopping criterion with minIter 12 frequency 1
[OGL LOG][Proc: 0]Uy: generate_solver: 0.002 [ms]
[OGL LOG][Proc: 0]Uy: solve: 46.665 [ms]
[OGL LOG][Proc: 0]Uy: copy_x_back: 1.288 [ms]
[OGL LOG][lduLduBase.H:336] 
Statistics:
	Time per iteration: 3589 [mu s]
	Time per residual norm calculation: 268.000000 [mu s]
	Time per iteration and DOF: 0.569038 [ns]
	Retrieve results bandwidth 2.960000 [GByte/s]
[OGL LOG][Proc: 0]Uy: solve_multi_gpu: 53.268 [ms]
BJhipGKOBiCGStab:  Solving for Uy, Initial residual = 0.130918317988036, Final residual = 0.005932980867562267, No Iterations 13
[OGL LOG][Proc: 0]: global_index_init: 0.144 [ms]
[OGL LOG][Proc: 0]Uz_local_coeffs: call_update: 0 [ms]
[OGL LOG][Proc: 0]Uz_non_local_coeffs: call_update: 0 [ms]
[OGL LOG][Proc: 0]Uz: update_local_matrix_data: 11.088 [ms]
[OGL LOG][Proc: 0]Uz: update_non_local_matrix_data: 0.083 [ms]
[OGL LOG][Proc: 0]Uz_matrix: call_update: 4.028 [ms]
[OGL LOG][Proc: 0]Uz_rhs: call_update: 0.924 [ms]
[OGL LOG][Preconditioner.H:121] Generate preconditioner BJ MaxBlockSize 1
[OGL LOG][Proc: 0]Uz: init_precond: 0.418 [ms]
[OGL LOG][StoppingCriterion.H:373] Creating stopping criterion with minIter 12 frequency 1
[OGL LOG][Proc: 0]Uz: generate_solver: 0.002 [ms]
[OGL LOG][Proc: 0]Uz: solve: 47.926 [ms]
[OGL LOG][Proc: 0]Uz: copy_x_back: 1.253 [ms]
[OGL LOG][lduLduBase.H:336] 
Statistics:
	Time per iteration: 3423 [mu s]
	Time per residual norm calculation: 264.000000 [mu s]
	Time per iteration and DOF: 0.542719 [ns]
	Retrieve results bandwidth 3.043000 [GByte/s]
[OGL LOG][Proc: 0]Uz: solve_multi_gpu: 55.39 [ms]
BJhipGKOBiCGStab:  Solving for Uz, Initial residual = 0.1448406637586321, Final residual = 0.008732236843482247, No Iterations 14
[INFO] MomentumPredictor: 229.098 [ms]
[INFO] MatrixAssemblyPI: 82.965 [ms]
[INFO] MatrixAssemblyPII: 40.233 [ms]
[OGL LOG][Proc: 0]: global_index_init: 0.041 [ms]
[OGL LOG][Proc: 0]p_local_coeffs: call_update: 0 [ms]
[OGL LOG][Proc: 0]p_non_local_coeffs: call_update: 0 [ms]
[OGL LOG][Proc: 0]p: update_local_matrix_data: 11.009 [ms]
[OGL LOG][Proc: 0]p: update_non_local_matrix_data: 0.07200000000000001 [ms]
[OGL LOG][Proc: 0]p_matrix: call_update: 4.253 [ms]
[OGL LOG][Proc: 0]p_rhs: call_update: 0.727 [ms]
[OGL LOG][Preconditioner.H:121] Generate preconditioner BJ MaxBlockSize 1
[OGL LOG][Proc: 0]p: init_precond: 0.385 [ms]
[OGL LOG][StoppingCriterion.H:373] Creating stopping criterion with minIter 87 frequency 4
[OGL LOG][Proc: 0]p: generate_solver: 0.002 [ms]
[OGL LOG][Proc: 0]p: solve: 189.947 [ms]
[OGL LOG][Proc: 0]p: copy_x_back: 1.255 [ms]
[OGL LOG][lduLduBase.H:336] 
Statistics:
	Time per iteration: 964 [mu s]
	Time per residual norm calculation: 258.000000 [mu s]
	Time per iteration and DOF: 0.152843 [ns]
	Retrieve results bandwidth 3.038000 [GByte/s]
[OGL LOG][Proc: 0]p: solve_multi_gpu: 197.133 [ms]
BJhipGKOCG:  Solving for p, Initial residual = 0.07538817280704335, Final residual = 0.0007495326968899599, No Iterations 197
[INFO] SolveP: 210.287 [ms]
time step continuity errors : sum local = 0.03663447626781438, global = -0.001068535847400754, cumulative = -0.005917636626277187
[INFO] postSolveP: 21.914 [ms]
[OGL LOG][Proc: 0]: global_index_init: 1.37 [ms]
[OGL LOG][Proc: 0]nuTilda_local_coeffs: call_update: 0 [ms]
[OGL LOG][Proc: 0]nuTilda_non_local_coeffs: call_update: 0 [ms]
[OGL LOG][Proc: 0]nuTilda: update_local_matrix_data: 11.705 [ms]
[OGL LOG][Proc: 0]nuTilda: update_non_local_matrix_data: 0.114 [ms]
[OGL LOG][Proc: 0]nuTilda_matrix: call_update: 3.74 [ms]
[OGL LOG][Proc: 0]nuTilda_rhs: call_update: 0.841 [ms]
[OGL LOG][Preconditioner.H:121] Generate preconditioner BJ MaxBlockSize 1
[OGL LOG][Proc: 0]nuTilda: init_precond: 0.382 [ms]
[OGL LOG][StoppingCriterion.H:373] Creating stopping criterion with minIter 3 frequency 1
[OGL LOG][Proc: 0]nuTilda: generate_solver: 0.002 [ms]
[OGL LOG][Proc: 0]nuTilda: solve: 27.523 [ms]
[OGL LOG][Proc: 0]nuTilda: copy_x_back: 1.248 [ms]
[OGL LOG][lduLduBase.H:336] 
Statistics:
	Time per iteration: 13761 [mu s]
	Time per residual norm calculation: 270.000000 [mu s]
	Time per iteration and DOF: 2.181814 [ns]
	Retrieve results bandwidth 3.055000 [GByte/s]
[OGL LOG][Proc: 0]nuTilda: solve_multi_gpu: 34.596 [ms]
BJhipGKOBiCGStab:  Solving for nuTilda, Initial residual = 0.01628232532155268, Final residual = 0.001595716514096106, No Iterations 2
[INFO] TimeStep: 1455.019 [ms]
ExecutionTime = 109.09 s  ClockTime = 110 s

Time = 49

velocityDampingConstraint velocityDamping damped 0 (0%) of cells, with max limit 300
[INFO] MatrixAssemblyU: 541.943 [ms]
[OGL LOG][Proc: 0]: global_index_init: 0.081 [ms]
[OGL LOG][Proc: 0]Ux_local_coeffs: call_update: 0 [ms]
[OGL LOG][Proc: 0]Ux_non_local_coeffs: call_update: 0 [ms]
[OGL LOG][Proc: 0]Ux: update_local_matrix_data: 10.817 [ms]
[OGL LOG][Proc: 0]Ux: update_non_local_matrix_data: 0.07000000000000001 [ms]
[OGL LOG][Proc: 0]Ux_matrix: call_update: 3.685 [ms]
[OGL LOG][Proc: 0]Ux_rhs: call_update: 0.9570000000000001 [ms]
[OGL LOG][Preconditioner.H:121] Generate preconditioner BJ MaxBlockSize 1
[OGL LOG][Proc: 0]Ux: init_precond: 0.378 [ms]
[OGL LOG][StoppingCriterion.H:373] Creating stopping criterion with minIter 12 frequency 1
[OGL LOG][Proc: 0]Ux: generate_solver: 0.002 [ms]
[OGL LOG][Proc: 0]Ux: solve: 40.231 [ms]
[OGL LOG][Proc: 0]Ux: copy_x_back: 1.277 [ms]
[OGL LOG][lduLduBase.H:336] 
Statistics:
	Time per iteration: 4470 [mu s]
	Time per residual norm calculation: 253.000000 [mu s]
	Time per iteration and DOF: 0.708721 [ns]
	Retrieve results bandwidth 2.985000 [GByte/s]
[OGL LOG][Proc: 0]Ux: solve_multi_gpu: 47.468 [ms]
BJhipGKOBiCGStab:  Solving for Ux, Initial residual = 0.0303245256943689, Final residual = 0.002839660548285961, No Iterations 9
[OGL LOG][Proc: 0]: global_index_init: 0.031 [ms]
[OGL LOG][Proc: 0]Uy_local_coeffs: call_update: 0 [ms]
[OGL LOG][Proc: 0]Uy_non_local_coeffs: call_update: 0 [ms]
[OGL LOG][Proc: 0]Uy: update_local_matrix_data: 10.966 [ms]
[OGL LOG][Proc: 0]Uy: update_non_local_matrix_data: 0.075 [ms]
[OGL LOG][Proc: 0]Uy_matrix: call_update: 3.553 [ms]
[OGL LOG][Proc: 0]Uy_rhs: call_update: 0.885 [ms]
[OGL LOG][Preconditioner.H:121] Generate preconditioner BJ MaxBlockSize 1
[OGL LOG][Proc: 0]Uy: init_precond: 0.376 [ms]
[OGL LOG][StoppingCriterion.H:373] Creating stopping criterion with minIter 15 frequency 1
[OGL LOG][Proc: 0]Uy: generate_solver: 0.002 [ms]
[OGL LOG][Proc: 0]Uy: solve: 39.67 [ms]
[OGL LOG][Proc: 0]Uy: copy_x_back: 1.263 [ms]
[OGL LOG][lduLduBase.H:336] 
Statistics:
	Time per iteration: 3967 [mu s]
	Time per residual norm calculation: 271.000000 [mu s]
	Time per iteration and DOF: 0.628970 [ns]
	Retrieve results bandwidth 3.018000 [GByte/s]
[OGL LOG][Proc: 0]Uy: solve_multi_gpu: 46.606 [ms]
BJhipGKOBiCGStab:  Solving for Uy, Initial residual = 0.1269223229692688, Final residual = 0.01204139101403848, No Iterations 10
[OGL LOG][Proc: 0]: global_index_init: 0.235 [ms]
[OGL LOG][Proc: 0]Uz_local_coeffs: call_update: 0 [ms]
[OGL LOG][Proc: 0]Uz_non_local_coeffs: call_update: 0 [ms]
[OGL LOG][Proc: 0]Uz: update_local_matrix_data: 11.253 [ms]
[OGL LOG][Proc: 0]Uz: update_non_local_matrix_data: 0.068 [ms]
[OGL LOG][Proc: 0]Uz_matrix: call_update: 3.419 [ms]
[OGL LOG][Proc: 0]Uz_rhs: call_update: 1.431 [ms]
[OGL LOG][Preconditioner.H:121] Generate preconditioner BJ MaxBlockSize 1
[OGL LOG][Proc: 0]Uz: init_precond: 0.391 [ms]
[OGL LOG][StoppingCriterion.H:373] Creating stopping criterion with minIter 16 frequency 1
[OGL LOG][Proc: 0]Uz: generate_solver: 0.002 [ms]
[OGL LOG][Proc: 0]Uz: solve: 40.965 [ms]
[OGL LOG][Proc: 0]Uz: copy_x_back: 1.256 [ms]
[OGL LOG][lduLduBase.H:336] 
Statistics:
	Time per iteration: 3724 [mu s]
	Time per residual norm calculation: 277.000000 [mu s]
	Time per iteration and DOF: 0.590442 [ns]
	Retrieve results bandwidth 3.035000 [GByte/s]
[OGL LOG][Proc: 0]Uz: solve_multi_gpu: 48.316 [ms]
BJhipGKOBiCGStab:  Solving for Uz, Initial residual = 0.1353130842371174, Final residual = 0.01028029173853706, No Iterations 11
[INFO] MomentumPredictor: 215.484 [ms]
[INFO] MatrixAssemblyPI: 82.92 [ms]
[INFO] MatrixAssemblyPII: 40.069 [ms]
[OGL LOG][Proc: 0]: global_index_init: 0.042 [ms]
[OGL LOG][Proc: 0]p_local_coeffs: call_update: 0 [ms]
[OGL LOG][Proc: 0]p_non_local_coeffs: call_update: 0 [ms]
[OGL LOG][Proc: 0]p: update_local_matrix_data: 11.028 [ms]
[OGL LOG][Proc: 0]p: update_non_local_matrix_data: 0.07200000000000001 [ms]
[OGL LOG][Proc: 0]p_matrix: call_update: 3.888 [ms]
[OGL LOG][Proc: 0]p_rhs: call_update: 1.652 [ms]
[OGL LOG][Preconditioner.H:121] Generate preconditioner BJ MaxBlockSize 1
[OGL LOG][Proc: 0]p: init_precond: 0.372 [ms]
[OGL LOG][StoppingCriterion.H:373] Creating stopping criterion with minIter 118 frequency 5
[OGL LOG][Proc: 0]p: generate_solver: 0.002 [ms]
[OGL LOG][Proc: 0]p: solve: 121.481 [ms]
[OGL LOG][Proc: 0]p: copy_x_back: 1.255 [ms]
[OGL LOG][lduLduBase.H:336] 
Statistics:
	Time per iteration: 1003 [mu s]
	Time per residual norm calculation: 271.000000 [mu s]
	Time per iteration and DOF: 0.159026 [ns]
	Retrieve results bandwidth 3.038000 [GByte/s]
[OGL LOG][Proc: 0]p: solve_multi_gpu: 129.237 [ms]
BJhipGKOCG:  Solving for p, Initial residual = 0.07404948327148766, Final residual = 0.0006433385861770837, No Iterations 121
[INFO] SolveP: 142.362 [ms]
time step continuity errors : sum local = 0.02958000977746541, global = -0.001136452711540911, cumulative = -0.007054089337818098
[INFO] postSolveP: 21.577 [ms]
[OGL LOG][Proc: 0]: global_index_init: 0.797 [ms]
[OGL LOG][Proc: 0]nuTilda_local_coeffs: call_update: 0 [ms]
[OGL LOG][Proc: 0]nuTilda_non_local_coeffs: call_update: 0 [ms]
[OGL LOG][Proc: 0]nuTilda: update_local_matrix_data: 11.804 [ms]
[OGL LOG][Proc: 0]nuTilda: update_non_local_matrix_data: 0.07200000000000001 [ms]
[OGL LOG][Proc: 0]nuTilda_matrix: call_update: 3.596 [ms]
[OGL LOG][Proc: 0]nuTilda_rhs: call_update: 2.705 [ms]
[OGL LOG][Preconditioner.H:121] Generate preconditioner BJ MaxBlockSize 1
[OGL LOG][Proc: 0]nuTilda: init_precond: 0.373 [ms]
[OGL LOG][StoppingCriterion.H:373] Creating stopping criterion with minIter 2 frequency 1
[OGL LOG][Proc: 0]nuTilda: generate_solver: 0.002 [ms]
[OGL LOG][Proc: 0]nuTilda: solve: 31.639 [ms]
[OGL LOG][Proc: 0]nuTilda: copy_x_back: 1.261 [ms]
[OGL LOG][lduLduBase.H:336] 
Statistics:
	Time per iteration: 15819 [mu s]
	Time per residual norm calculation: 253.000000 [mu s]
	Time per iteration and DOF: 2.508111 [ns]
	Retrieve results bandwidth 3.023000 [GByte/s]
[OGL LOG][Proc: 0]nuTilda: solve_multi_gpu: 40.428 [ms]
BJhipGKOBiCGStab:  Solving for nuTilda, Initial residual = 0.01179814914197311, Final residual = 0.0008571984448806942, No Iterations 2
[INFO] TimeStep: 1376.76 [ms]
ExecutionTime = 110.91 s  ClockTime = 112 s

Time = 50

velocityDampingConstraint velocityDamping damped 0 (0%) of cells, with max limit 300
[INFO] MatrixAssemblyU: 537.899 [ms]
[OGL LOG][Proc: 0]: global_index_init: 0.078 [ms]
[OGL LOG][Proc: 0]Ux_local_coeffs: call_update: 0 [ms]
[OGL LOG][Proc: 0]Ux_non_local_coeffs: call_update: 0 [ms]
[OGL LOG][Proc: 0]Ux: update_local_matrix_data: 11.098 [ms]
[OGL LOG][Proc: 0]Ux: update_non_local_matrix_data: 0.08500000000000001 [ms]
[OGL LOG][Proc: 0]Ux_matrix: call_update: 7.07 [ms]
[OGL LOG][Proc: 0]Ux_rhs: call_update: 0.5650000000000001 [ms]
[OGL LOG][Preconditioner.H:121] Generate preconditioner BJ MaxBlockSize 1
[OGL LOG][Proc: 0]Ux: init_precond: 0.385 [ms]
[OGL LOG][StoppingCriterion.H:373] Creating stopping criterion with minIter 11 frequency 1
[OGL LOG][Proc: 0]Ux: generate_solver: 0.002 [ms]
[OGL LOG][Proc: 0]Ux: solve: 41.278 [ms]
[OGL LOG][Proc: 0]Ux: copy_x_back: 1.252 [ms]
[OGL LOG][lduLduBase.H:336] 
Statistics:
	Time per iteration: 4127 [mu s]
	Time per residual norm calculation: 267.000000 [mu s]
	Time per iteration and DOF: 0.654338 [ns]
	Retrieve results bandwidth 3.045000 [GByte/s]
[OGL LOG][Proc: 0]Ux: solve_multi_gpu: 51.738 [ms]
BJhipGKOBiCGStab:  Solving for Ux, Initial residual = 0.02609778094002781, Final residual = 0.002352518389115973, No Iterations 10
[OGL LOG][Proc: 0]: global_index_init: 0.467 [ms]
[OGL LOG][Proc: 0]Uy_local_coeffs: call_update: 0 [ms]
[OGL LOG][Proc: 0]Uy_non_local_coeffs: call_update: 0 [ms]
[OGL LOG][Proc: 0]Uy: update_local_matrix_data: 10.947 [ms]
[OGL LOG][Proc: 0]Uy: update_non_local_matrix_data: 0.07200000000000001 [ms]
[OGL LOG][Proc: 0]Uy_matrix: call_update: 6.328 [ms]
[OGL LOG][Proc: 0]Uy_rhs: call_update: 0.5760000000000001 [ms]
[OGL LOG][Preconditioner.H:121] Generate preconditioner BJ MaxBlockSize 1
[OGL LOG][Proc: 0]Uy: init_precond: 0.382 [ms]
[OGL LOG][StoppingCriterion.H:373] Creating stopping criterion with minIter 12 frequency 1
[OGL LOG][Proc: 0]Uy: generate_solver: 0.002 [ms]
[OGL LOG][Proc: 0]Uy: solve: 44.169 [ms]
[OGL LOG][Proc: 0]Uy: copy_x_back: 1.282 [ms]
[OGL LOG][lduLduBase.H:336] 
Statistics:
	Time per iteration: 4015 [mu s]
	Time per residual norm calculation: 268.000000 [mu s]
	Time per iteration and DOF: 0.636581 [ns]
	Retrieve results bandwidth 2.974000 [GByte/s]
[OGL LOG][Proc: 0]Uy: solve_multi_gpu: 53.57 [ms]
BJhipGKOBiCGStab:  Solving for Uy, Initial residual = 0.1105566255248619, Final residual = 0.01050687788875737, No Iterations 11
[OGL LOG][Proc: 0]: global_index_init: 0.279 [ms]
[OGL LOG][Proc: 0]Uz_local_coeffs: call_update: 0 [ms]
[OGL LOG][Proc: 0]Uz_non_local_coeffs: call_update: 0 [ms]
[OGL LOG][Proc: 0]Uz: update_local_matrix_data: 11.506 [ms]
[OGL LOG][Proc: 0]Uz: update_non_local_matrix_data: 0.089 [ms]
[OGL LOG][Proc: 0]Uz_matrix: call_update: 3.588 [ms]
[OGL LOG][Proc: 0]Uz_rhs: call_update: 0.836 [ms]
[OGL LOG][Preconditioner.H:121] Generate preconditioner BJ MaxBlockSize 1
[OGL LOG][Proc: 0]Uz: init_precond: 0.423 [ms]
[OGL LOG][StoppingCriterion.H:373] Creating stopping criterion with minIter 13 frequency 1
[OGL LOG][Proc: 0]Uz: generate_solver: 0.002 [ms]
[OGL LOG][Proc: 0]Uz: solve: 44.291 [ms]
[OGL LOG][Proc: 0]Uz: copy_x_back: 1.274 [ms]
[OGL LOG][lduLduBase.H:336] 
Statistics:
	Time per iteration: 3690 [mu s]
	Time per residual norm calculation: 256.000000 [mu s]
	Time per iteration and DOF: 0.585052 [ns]
	Retrieve results bandwidth 2.992000 [GByte/s]
[OGL LOG][Proc: 0]Uz: solve_multi_gpu: 51.219 [ms]
BJhipGKOBiCGStab:  Solving for Uz, Initial residual = 0.1304320682365207, Final residual = 0.01241522798043869, No Iterations 12
[INFO] MomentumPredictor: 230.309 [ms]
[INFO] MatrixAssemblyPI: 84.879 [ms]
[INFO] MatrixAssemblyPII: 40.387 [ms]
[OGL LOG][Proc: 0]: global_index_init: 0.065 [ms]
[OGL LOG][Proc: 0]p_local_coeffs: call_update: 0 [ms]
[OGL LOG][Proc: 0]p_non_local_coeffs: call_update: 0 [ms]
[OGL LOG][Proc: 0]p: update_local_matrix_data: 10.855 [ms]
[OGL LOG][Proc: 0]p: update_non_local_matrix_data: 0.07200000000000001 [ms]
[OGL LOG][Proc: 0]p_matrix: call_update: 4.235 [ms]
[OGL LOG][Proc: 0]p_rhs: call_update: 1.128 [ms]
[OGL LOG][Preconditioner.H:121] Generate preconditioner BJ MaxBlockSize 1
[OGL LOG][Proc: 0]p: init_precond: 0.413 [ms]
[OGL LOG][StoppingCriterion.H:373] Creating stopping criterion with minIter 72 frequency 4
[OGL LOG][Proc: 0]p: generate_solver: 0.002 [ms]
[OGL LOG][Proc: 0]p: solve: 137.686 [ms]
[OGL LOG][Proc: 0]p: copy_x_back: 1.253 [ms]
[OGL LOG][lduLduBase.H:336] 
Statistics:
	Time per iteration: 976 [mu s]
	Time per residual norm calculation: 258.000000 [mu s]
	Time per iteration and DOF: 0.154745 [ns]
	Retrieve results bandwidth 3.043000 [GByte/s]
[OGL LOG][Proc: 0]p: solve_multi_gpu: 145.288 [ms]
BJhipGKOCG:  Solving for p, Initial residual = 0.07330357784583134, Final residual = 0.0007291284196147198, No Iterations 141
[INFO] SolveP: 158.22 [ms]
time step continuity errors : sum local = 0.03158313302312944, global = -0.001586154428260437, cumulative = -0.008640243766078535
[INFO] postSolveP: 21.952 [ms]
[OGL LOG][Proc: 0]: global_index_init: 0.341 [ms]
[OGL LOG][Proc: 0]nuTilda_local_coeffs: call_update: 0 [ms]
[OGL LOG][Proc: 0]nuTilda_non_local_coeffs: call_update: 0 [ms]
[OGL LOG][Proc: 0]nuTilda: update_local_matrix_data: 11.753 [ms]
[OGL LOG][Proc: 0]nuTilda: update_non_local_matrix_data: 0.082 [ms]
[OGL LOG][Proc: 0]nuTilda_matrix: call_update: 5.878 [ms]
[OGL LOG][Proc: 0]nuTilda_rhs: call_update: 0.5720000000000001 [ms]
[OGL LOG][Preconditioner.H:121] Generate preconditioner BJ MaxBlockSize 1
[OGL LOG][Proc: 0]nuTilda: init_precond: 0.385 [ms]
[OGL LOG][StoppingCriterion.H:373] Creating stopping criterion with minIter 3 frequency 1
[OGL LOG][Proc: 0]nuTilda: generate_solver: 0.002 [ms]
[OGL LOG][Proc: 0]nuTilda: solve: 28.981 [ms]
[OGL LOG][Proc: 0]nuTilda: copy_x_back: 1.271 [ms]
[OGL LOG][lduLduBase.H:336] 
Statistics:
	Time per iteration: 14490 [mu s]
	Time per residual norm calculation: 290.000000 [mu s]
	Time per iteration and DOF: 2.297398 [ns]
	Retrieve results bandwidth 2.999000 [GByte/s]
[OGL LOG][Proc: 0]nuTilda: solve_multi_gpu: 37.933 [ms]
BJhipGKOBiCGStab:  Solving for nuTilda, Initial residual = 0.01554558933503969, Final residual = 0.001540287723653973, No Iterations 2
[INFO] TimeStep: 1404.393 [ms]
ExecutionTime = 112.73 s  ClockTime = 114 s

End

Finalising parallel run
