/*---------------------------------------------------------------------------*\
| =========                 |                                                 |
| \\      /  F ield         | OpenFOAM: The Open Source CFD Toolbox           |
|  \\    /   O peration     | Version:  2306                                  |
|   \\  /    A nd           | Website:  www.openfoam.com                      |
|    \\/     M anipulation  |                                                 |
\*---------------------------------------------------------------------------*/
Build  : a6e826bd55-20230630 OPENFOAM=2306 version=v2306
Arch   : "LSB;label=32;scalar=64"
Exec   : icoFoam -parallel -case /tmp/lidDrivenCavity/workspace/f91a90457fa60861ac230cb055e2d813/case
Date   : Dec 20 2023
Time   : 22:49:47
Host   : nla-gpu2.ianm.kit.edu
PID    : 386414
I/O    : uncollated
Case   : /tmp/lidDrivenCavity/workspace/f91a90457fa60861ac230cb055e2d813/case
nProcs : 8
Hosts  :
(
    (nla-gpu2.ianm.kit.edu 8)
)
Pstream initialized with:
    floatTransfer      : false
    nProcsSimpleSum    : 0
    nonBlockingExchange: 0 (tuning: 0)
    exchange algorithm : -1
    commsType          : nonBlocking
    polling iterations : 0
trapFpe: Floating point exception trapping enabled (FOAM_SIGFPE).
fileModificationChecking : Monitoring run-time modified files using timeStampMaster (fileModificationSkew 5, maxFileModificationPolls 20)
allowSystemOperations : Allowing user-supplied system call operations

// * * * * * * * * * * * * * * * * * * * * * * * * * * * * * * * * * * * * * //
Create time

--> FOAM Warning : 
    From void* Foam::dlLibraryTable::openLibrary(const Foam::fileName&, bool)
    in file db/dynamicLibrary/dlLibraryTable/dlLibraryTable.C at line 188
    Could not load "libpetscFoam.so"
libpetscFoam.so: cannot open shared object file: No such file or directory
Create mesh for time = 0


PISO: Operating solver in PISO mode

Reading transportProperties

Reading field p

Reading field U

Reading/calculating face flux field phi


Starting time loop

Time = 0.00025

Courant Number mean: 8.24341e-18 max: 2.08167e-14
[INFO] MatrixAssemblyU: 106.339 [ms]
DILUPBiCGStab:  Solving for Ux, Initial residual = 1, Final residual = 0.00959752, No Iterations 5
DILUPBiCGStab:  Solving for Uy:  solution singularity
DILUPBiCGStab:  Solving for Uz:  solution singularity
[INFO] MomentumPredictor: 485.284 [ms]
[INFO] MatrixAssemblyPI: 106.239 [ms]
[INFO] AdjustPhi: 6.856 [ms]
[INFO] ConstrainPressure: 0.015 [ms]
[INFO] MatrixAssemblyPII: 29.54 [ms]
[OGL LOG][lduLduBase.H:119] Initialising OGL
	OGL commit:  1421b02+
	Branch: feat/on_device_permute 
	Build type: Release
	Ginkgo version: 1.7.0 ( develop)
	Ginkgo commit: sparse-communicator
	MPI is GPU aware: 1
	Forces host buffer based communication: 0
	CPU ranks per GPU: 1
	Matrix format: Ell
	End OGL_INFO
[OGL LOG][Proc: 0]: global_index_init: 4.173 [ms]
[OGL LOG][Proc: 0]p_local_cols: call_init: 0.032 [ms]
[OGL LOG][Proc: 0]p_local_rows: call_init: 0.002 [ms]
[OGL LOG][Proc: 0]p_local_ldu_map: call_init: 0.011 [ms]
[OGL LOG][Proc: 0]p_local_coeffs: call_init: 0.166 [ms]
[OGL LOG][Proc: 0]p_non_local_cols: call_init: 0.005 [ms]
[OGL LOG][Proc: 0]p_non_local_rows: call_init: 0.002 [ms]
[OGL LOG][Proc: 0]p_non_local_ldu_map: call_init: 0.002 [ms]
[OGL LOG][Proc: 0]p_non_local_coeffs: call_init: 0.002 [ms]
[OGL LOG][Proc: 0]p: init_local_sparsity_pattern: 259.109 [ms]
[OGL LOG][Proc: 0]p: init_non_local_sparsity_pattern: 4.338 [ms]
[OGL LOG][Proc: 0]p: update_local_matrix_data: 58.415 [ms]
[OGL LOG][Proc: 0]p: update_non_local_matrix_data: 0.15 [ms]
[OGL LOG][Proc: 0]device_partition: call_init: 0.119 [ms]
[OGL LOG][Proc: 0]p_matrix: call_init: 69.287 [ms]
[OGL LOG][Proc: 0]p_rhs: call_init: 4.174 [ms]
[OGL LOG][Proc: 0]p_solution: call_init: 1.174 [ms]
[OGL LOG][Proc: 0]p: init_precond: 0.102 [ms]
[OGL LOG][StoppingCriterion.H:237] Creating stopping criterion with minIter 0 frequency 1
[OGL LOG][Proc: 0]p: generate_solver: 0.031 [ms]
[OGL LOG][Proc: 0]p: solve: 3040.43 [ms]
[OGL LOG][Proc: 0]p: copy_x_back: 3.081 [ms]
[OGL LOG][lduLduBase.H:330] 
Statistics:
	Time per iteration: 1887 [mu s]
	Time per residual norm calculation: 812.000000 [mu s]
	Time per iteration and DOF: 0.235875 [ns]
	Retrieve results bandwidth 2.596000 [GByte/s]
[OGL LOG][Proc: 0]p: solve_multi_gpu: 3122.78 [ms]
nonehipGKOCG:  Solving for p, Initial residual = 1, Final residual = 9.86509e-05, No Iterations 1611
[INFO] SolveP: 3684.52 [ms]
time step continuity errors : sum local = 7.58051e-09, global = -2.14053e-21, cumulative = -2.14053e-21
[INFO] ContinuityError: 15.16 [ms]
[INFO] CorrectBoundary: 0.431 [ms]
[INFO] PISOStep: 3882.21 [ms]
[INFO] MatrixAssemblyPI: 104.437 [ms]
[INFO] AdjustPhi: 5.448 [ms]
[INFO] ConstrainPressure: 0.004 [ms]
[INFO] MatrixAssemblyPII: 30.366 [ms]
[OGL LOG][Proc: 0]: global_index_init: 0.222 [ms]
[OGL LOG][Proc: 0]p_local_coeffs: call_update: 0.004 [ms]
[OGL LOG][Proc: 0]p_non_local_coeffs: call_update: 0 [ms]
[OGL LOG][Proc: 0]p: update_local_matrix_data: 18.148 [ms]
[OGL LOG][Proc: 0]p: update_non_local_matrix_data: 0.155 [ms]
[OGL LOG][Proc: 0]p: regenerate_distributed_matrix: 70.391 [ms]
[OGL LOG][Proc: 0]p_matrix: call_update: 79.825 [ms]
[OGL LOG][Proc: 0]p_rhs: call_update: 5.777 [ms]
[OGL LOG][Proc: 0]p: init_precond: 0.065 [ms]
[OGL LOG][StoppingCriterion.H:237] Creating stopping criterion with minIter 966 frequency 17
[OGL LOG][Proc: 0]p: generate_solver: 0.005 [ms]
[OGL LOG][Proc: 0]p: solve: 1337.18 [ms]
[OGL LOG][Proc: 0]p: copy_x_back: 2.854 [ms]
[OGL LOG][lduLduBase.H:330] 
Statistics:
	Time per iteration: 836 [mu s]
	Time per residual norm calculation: 279.000000 [mu s]
	Time per iteration and DOF: 0.104500 [ns]
	Retrieve results bandwidth 2.803000 [GByte/s]
[OGL LOG][Proc: 0]p: solve_multi_gpu: 1427.88 [ms]
nonehipGKOCG:  Solving for p, Initial residual = 0.786527, Final residual = 8.91153e-05, No Iterations 1599
[INFO] SolveP: 1451.71 [ms]
time step continuity errors : sum local = 8.55768e-09, global = -6.8349e-23, cumulative = -2.20888e-21
[INFO] ContinuityError: 15.015 [ms]
[INFO] CorrectBoundary: 0.448 [ms]
[INFO] PISOStep: 1647.31 [ms]
[INFO] TimeStep: 6136.69 [ms]
ExecutionTime = 7.86 s  ClockTime = 7 s

Time = 0.0005

Courant Number mean: 0.0159725 max: 0.41252
[INFO] MatrixAssemblyU: 84.445 [ms]
DILUPBiCGStab:  Solving for Ux, Initial residual = 0.129596, Final residual = 0.00510255, No Iterations 5
DILUPBiCGStab:  Solving for Uy, Initial residual = 0.426763, Final residual = 0.0132344, No Iterations 5
DILUPBiCGStab:  Solving for Uz, Initial residual = 0.993463, Final residual = 0.0333254, No Iterations 5
[INFO] MomentumPredictor: 880.659 [ms]
[INFO] MatrixAssemblyPI: 103.073 [ms]
[INFO] AdjustPhi: 6.438 [ms]
[INFO] ConstrainPressure: 0.005 [ms]
[INFO] MatrixAssemblyPII: 30.112 [ms]
[OGL LOG][Proc: 0]: global_index_init: 0.045 [ms]
[OGL LOG][Proc: 0]p_local_coeffs: call_update: 0 [ms]
[OGL LOG][Proc: 0]p_non_local_coeffs: call_update: 0 [ms]
[OGL LOG][Proc: 0]p: update_local_matrix_data: 23.409 [ms]
[OGL LOG][Proc: 0]p: update_non_local_matrix_data: 0.222 [ms]
[OGL LOG][Proc: 0]p: regenerate_distributed_matrix: 71.992 [ms]
[OGL LOG][Proc: 0]p_matrix: call_update: 72.788 [ms]
[OGL LOG][Proc: 0]p_rhs: call_update: 4.181 [ms]
[OGL LOG][Proc: 0]p: init_precond: 0.066 [ms]
[OGL LOG][StoppingCriterion.H:237] Creating stopping criterion with minIter 959 frequency 17
[OGL LOG][Proc: 0]p: generate_solver: 0.005 [ms]
[OGL LOG][Proc: 0]p: solve: 1240.87 [ms]
[OGL LOG][Proc: 0]p: copy_x_back: 2.808 [ms]
[OGL LOG][lduLduBase.H:330] 
Statistics:
	Time per iteration: 784 [mu s]
	Time per residual norm calculation: 282.000000 [mu s]
	Time per iteration and DOF: 0.098000 [ns]
	Retrieve results bandwidth 2.849000 [GByte/s]
[OGL LOG][Proc: 0]p: solve_multi_gpu: 1321.95 [ms]
nonehipGKOCG:  Solving for p, Initial residual = 0.824095, Final residual = 8.59292e-05, No Iterations 1582
[INFO] SolveP: 1349.9 [ms]
time step continuity errors : sum local = 1.25885e-08, global = -1.58513e-21, cumulative = -3.79401e-21
[INFO] ContinuityError: 15.024 [ms]
[INFO] CorrectBoundary: 0.413 [ms]
[INFO] PISOStep: 1544.84 [ms]
[INFO] MatrixAssemblyPI: 102.177 [ms]
[INFO] AdjustPhi: 6.5 [ms]
[INFO] ConstrainPressure: 0.004 [ms]
[INFO] MatrixAssemblyPII: 29.206 [ms]
[OGL LOG][Proc: 0]: global_index_init: 0.092 [ms]
[OGL LOG][Proc: 0]p_local_coeffs: call_update: 0 [ms]
[OGL LOG][Proc: 0]p_non_local_coeffs: call_update: 0 [ms]
[OGL LOG][Proc: 0]p: update_local_matrix_data: 18.138 [ms]
[OGL LOG][Proc: 0]p: update_non_local_matrix_data: 0.126 [ms]
[OGL LOG][Proc: 0]p: regenerate_distributed_matrix: 60.716 [ms]
[OGL LOG][Proc: 0]p_matrix: call_update: 61.58 [ms]
[OGL LOG][Proc: 0]p_rhs: call_update: 4.257 [ms]
[OGL LOG][Proc: 0]p: init_precond: 0.057 [ms]
[OGL LOG][StoppingCriterion.H:237] Creating stopping criterion with minIter 949 frequency 17
[OGL LOG][Proc: 0]p: generate_solver: 0.004 [ms]
[OGL LOG][Proc: 0]p: solve: 1221.39 [ms]
[OGL LOG][Proc: 0]p: copy_x_back: 3 [ms]
[OGL LOG][lduLduBase.H:330] 
Statistics:
	Time per iteration: 780 [mu s]
	Time per residual norm calculation: 318.000000 [mu s]
	Time per iteration and DOF: 0.097500 [ns]
	Retrieve results bandwidth 2.666000 [GByte/s]
[OGL LOG][Proc: 0]p: solve_multi_gpu: 1292.44 [ms]
nonehipGKOCG:  Solving for p, Initial residual = 0.767378, Final residual = 9.63115e-05, No Iterations 1565
[INFO] SolveP: 1314.61 [ms]
time step continuity errors : sum local = 1.43634e-08, global = -2.19271e-22, cumulative = -4.01328e-21
[INFO] ContinuityError: 15.005 [ms]
[INFO] CorrectBoundary: 0.413 [ms]
[INFO] PISOStep: 1505.45 [ms]
[INFO] TimeStep: 4029.62 [ms]
ExecutionTime = 12.83 s  ClockTime = 11 s

Time = 0.00075

Courant Number mean: 0.0243584 max: 0.471981
[INFO] MatrixAssemblyU: 80.616 [ms]
DILUPBiCGStab:  Solving for Ux, Initial residual = 0.0547592, Final residual = 0.00175942, No Iterations 5
DILUPBiCGStab:  Solving for Uy, Initial residual = 0.18208, Final residual = 0.00707533, No Iterations 5
DILUPBiCGStab:  Solving for Uz, Initial residual = 0.81556, Final residual = 0.02527, No Iterations 5
[INFO] MomentumPredictor: 874.318 [ms]
[INFO] MatrixAssemblyPI: 106.207 [ms]
[INFO] AdjustPhi: 6.097 [ms]
[INFO] ConstrainPressure: 0.004 [ms]
[INFO] MatrixAssemblyPII: 29.518 [ms]
[OGL LOG][Proc: 0]: global_index_init: 0.039 [ms]
[OGL LOG][Proc: 0]p_local_coeffs: call_update: 0 [ms]
[OGL LOG][Proc: 0]p_non_local_coeffs: call_update: 0 [ms]
[OGL LOG][Proc: 0]p: update_local_matrix_data: 18.013 [ms]
[OGL LOG][Proc: 0]p: update_non_local_matrix_data: 0.159 [ms]
[OGL LOG][Proc: 0]p: regenerate_distributed_matrix: 67.52 [ms]
[OGL LOG][Proc: 0]p_matrix: call_update: 68.306 [ms]
[OGL LOG][Proc: 0]p_rhs: call_update: 3.877 [ms]
[OGL LOG][Proc: 0]p: init_precond: 0.058 [ms]
[OGL LOG][StoppingCriterion.H:237] Creating stopping criterion with minIter 939 frequency 17
[OGL LOG][Proc: 0]p: generate_solver: 0.005 [ms]
[OGL LOG][Proc: 0]p: solve: 1267.04 [ms]
[OGL LOG][Proc: 0]p: copy_x_back: 2.819 [ms]
[OGL LOG][lduLduBase.H:330] 
Statistics:
	Time per iteration: 800 [mu s]
	Time per residual norm calculation: 280.000000 [mu s]
	Time per iteration and DOF: 0.100000 [ns]
	Retrieve results bandwidth 2.837000 [GByte/s]
[OGL LOG][Proc: 0]p: solve_multi_gpu: 1345.05 [ms]
nonehipGKOCG:  Solving for p, Initial residual = 0.848662, Final residual = 6.9521e-05, No Iterations 1582
[INFO] SolveP: 1367.84 [ms]
time step continuity errors : sum local = 9.31313e-09, global = 1.77446e-22, cumulative = -3.83583e-21
[INFO] ContinuityError: 16.091 [ms]
[INFO] CorrectBoundary: 0.589 [ms]
[INFO] PISOStep: 1563.84 [ms]
[INFO] MatrixAssemblyPI: 100.568 [ms]
[INFO] AdjustPhi: 8.728 [ms]
[INFO] ConstrainPressure: 0.005 [ms]
[INFO] MatrixAssemblyPII: 29.522 [ms]
[OGL LOG][Proc: 0]: global_index_init: 0.04 [ms]
[OGL LOG][Proc: 0]p_local_coeffs: call_update: 0 [ms]
[OGL LOG][Proc: 0]p_non_local_coeffs: call_update: 0 [ms]
[OGL LOG][Proc: 0]p: update_local_matrix_data: 18.175 [ms]
[OGL LOG][Proc: 0]p: update_non_local_matrix_data: 0.129 [ms]
[OGL LOG][Proc: 0]p: regenerate_distributed_matrix: 63.057 [ms]
[OGL LOG][Proc: 0]p_matrix: call_update: 64.655 [ms]
[OGL LOG][Proc: 0]p_rhs: call_update: 2.193 [ms]
[OGL LOG][Proc: 0]p: init_precond: 0.064 [ms]
[OGL LOG][StoppingCriterion.H:237] Creating stopping criterion with minIter 949 frequency 17
[OGL LOG][Proc: 0]p: generate_solver: 0.004 [ms]
[OGL LOG][Proc: 0]p: solve: 1231.28 [ms]
[OGL LOG][Proc: 0]p: copy_x_back: 3.002 [ms]
[OGL LOG][lduLduBase.H:330] 
Statistics:
	Time per iteration: 778 [mu s]
	Time per residual norm calculation: 276.000000 [mu s]
	Time per iteration and DOF: 0.097250 [ns]
	Retrieve results bandwidth 2.664000 [GByte/s]
[OGL LOG][Proc: 0]p: solve_multi_gpu: 1302.96 [ms]
nonehipGKOCG:  Solving for p, Initial residual = 0.815327, Final residual = 6.4846e-05, No Iterations 1582
[INFO] SolveP: 1325.59 [ms]
time step continuity errors : sum local = 8.49963e-09, global = -7.1208e-22, cumulative = -4.54791e-21
[INFO] ContinuityError: 14.387 [ms]
[INFO] CorrectBoundary: 0.423 [ms]
[INFO] PISOStep: 1515.55 [ms]
[INFO] TimeStep: 4047.74 [ms]
ExecutionTime = 17.8 s  ClockTime = 15 s

Time = 0.001

Courant Number mean: 0.029233 max: 0.467776
[INFO] MatrixAssemblyU: 84.779 [ms]
DILUPBiCGStab:  Solving for Ux, Initial residual = 0.0346513, Final residual = 0.00116378, No Iterations 5
DILUPBiCGStab:  Solving for Uy, Initial residual = 0.129011, Final residual = 0.00438848, No Iterations 5
DILUPBiCGStab:  Solving for Uz, Initial residual = 0.601226, Final residual = 0.0148395, No Iterations 5
[INFO] MomentumPredictor: 883.168 [ms]
[INFO] MatrixAssemblyPI: 101.615 [ms]
[INFO] AdjustPhi: 8.064 [ms]
[INFO] ConstrainPressure: 0.005 [ms]
[INFO] MatrixAssemblyPII: 29.333 [ms]
[OGL LOG][Proc: 0]: global_index_init: 0.13 [ms]
[OGL LOG][Proc: 0]p_local_coeffs: call_update: 0 [ms]
[OGL LOG][Proc: 0]p_non_local_coeffs: call_update: 0 [ms]
[OGL LOG][Proc: 0]p: update_local_matrix_data: 24.432 [ms]
[OGL LOG][Proc: 0]p: update_non_local_matrix_data: 0.163 [ms]
[OGL LOG][Proc: 0]p: regenerate_distributed_matrix: 59.772 [ms]
[OGL LOG][Proc: 0]p_matrix: call_update: 60.604 [ms]
[OGL LOG][Proc: 0]p_rhs: call_update: 2.668 [ms]
[OGL LOG][Proc: 0]p: init_precond: 0.059 [ms]
[OGL LOG][StoppingCriterion.H:237] Creating stopping criterion with minIter 949 frequency 17
[OGL LOG][Proc: 0]p: generate_solver: 0.005 [ms]
[OGL LOG][Proc: 0]p: solve: 748.677 [ms]
[OGL LOG][Proc: 0]p: copy_x_back: 2.732 [ms]
[OGL LOG][lduLduBase.H:330] 
Statistics:
	Time per iteration: 785 [mu s]
	Time per residual norm calculation: 291.000000 [mu s]
	Time per iteration and DOF: 0.098125 [ns]
	Retrieve results bandwidth 2.928000 [GByte/s]
[OGL LOG][Proc: 0]p: solve_multi_gpu: 819.477 [ms]
nonehipGKOCG:  Solving for p, Initial residual = 0.76929, Final residual = 4.98897e-05, No Iterations 953
[INFO] SolveP: 848.336 [ms]
time step continuity errors : sum local = 6.52627e-09, global = -5.27328e-24, cumulative = -4.55318e-21
[INFO] ContinuityError: 14.406 [ms]
[INFO] CorrectBoundary: 0.537 [ms]
[INFO] PISOStep: 1038.85 [ms]
[INFO] MatrixAssemblyPI: 99.291 [ms]
[INFO] AdjustPhi: 7.03 [ms]
[INFO] ConstrainPressure: 0.005 [ms]
[INFO] MatrixAssemblyPII: 29.516 [ms]
[OGL LOG][Proc: 0]: global_index_init: 0.182 [ms]
[OGL LOG][Proc: 0]p_local_coeffs: call_update: 0 [ms]
[OGL LOG][Proc: 0]p_non_local_coeffs: call_update: 0 [ms]
[OGL LOG][Proc: 0]p: update_local_matrix_data: 18.676 [ms]
[OGL LOG][Proc: 0]p: update_non_local_matrix_data: 0.142 [ms]
[OGL LOG][Proc: 0]p: regenerate_distributed_matrix: 61.509 [ms]
[OGL LOG][Proc: 0]p_matrix: call_update: 62.729 [ms]
[OGL LOG][Proc: 0]p_rhs: call_update: 4.298 [ms]
[OGL LOG][Proc: 0]p: init_precond: 0.06 [ms]
[OGL LOG][StoppingCriterion.H:237] Creating stopping criterion with minIter 571 frequency 13
[OGL LOG][Proc: 0]p: generate_solver: 0.004 [ms]
[OGL LOG][Proc: 0]p: solve: 619.375 [ms]
[OGL LOG][Proc: 0]p: copy_x_back: 3.056 [ms]
[OGL LOG][lduLduBase.H:330] 
Statistics:
	Time per iteration: 806 [mu s]
	Time per residual norm calculation: 280.000000 [mu s]
	Time per iteration and DOF: 0.100750 [ns]
	Retrieve results bandwidth 2.617000 [GByte/s]
[OGL LOG][Proc: 0]p: solve_multi_gpu: 691.394 [ms]
nonehipGKOCG:  Solving for p, Initial residual = 0.706609, Final residual = 7.74911e-05, No Iterations 768
[INFO] SolveP: 714.378 [ms]
time step continuity errors : sum local = 9.68102e-09, global = -8.68695e-22, cumulative = -5.42188e-21
[INFO] ContinuityError: 13.824 [ms]
[INFO] CorrectBoundary: 0.418 [ms]
[INFO] PISOStep: 904.576 [ms]
[INFO] TimeStep: 2924.95 [ms]
ExecutionTime = 21.23 s  ClockTime = 18 s

Time = 0.00125

Courant Number mean: 0.0333806 max: 0.472901
[INFO] MatrixAssemblyU: 78.65 [ms]
DILUPBiCGStab:  Solving for Ux, Initial residual = 0.0270933, Final residual = 0.000842227, No Iterations 5
DILUPBiCGStab:  Solving for Uy, Initial residual = 0.0811952, Final residual = 0.00325899, No Iterations 5
DILUPBiCGStab:  Solving for Uz, Initial residual = 0.448038, Final residual = 0.0108872, No Iterations 5
[INFO] MomentumPredictor: 876.945 [ms]
[INFO] MatrixAssemblyPI: 101.36 [ms]
[INFO] AdjustPhi: 7.567 [ms]
[INFO] ConstrainPressure: 0.005 [ms]
[INFO] MatrixAssemblyPII: 29.532 [ms]
[OGL LOG][Proc: 0]: global_index_init: 0.045 [ms]
[OGL LOG][Proc: 0]p_local_coeffs: call_update: 0 [ms]
[OGL LOG][Proc: 0]p_non_local_coeffs: call_update: 0 [ms]
[OGL LOG][Proc: 0]p: update_local_matrix_data: 19.103 [ms]
[OGL LOG][Proc: 0]p: update_non_local_matrix_data: 0.13 [ms]
[OGL LOG][Proc: 0]p: regenerate_distributed_matrix: 55.511 [ms]
[OGL LOG][Proc: 0]p_matrix: call_update: 56.291 [ms]
[OGL LOG][Proc: 0]p_rhs: call_update: 4.026 [ms]
[OGL LOG][Proc: 0]p: init_precond: 0.061 [ms]
[OGL LOG][StoppingCriterion.H:237] Creating stopping criterion with minIter 460 frequency 12
[OGL LOG][Proc: 0]p: generate_solver: 0.004 [ms]
[OGL LOG][Proc: 0]p: solve: 602.003 [ms]
[OGL LOG][Proc: 0]p: copy_x_back: 2.813 [ms]
[OGL LOG][lduLduBase.H:330] 
Statistics:
	Time per iteration: 808 [mu s]
	Time per residual norm calculation: 306.000000 [mu s]
	Time per iteration and DOF: 0.101000 [ns]
	Retrieve results bandwidth 2.843000 [GByte/s]
[OGL LOG][Proc: 0]p: solve_multi_gpu: 667.198 [ms]
nonehipGKOCG:  Solving for p, Initial residual = 0.774771, Final residual = 9.14657e-05, No Iterations 745
[INFO] SolveP: 690.629 [ms]
time step continuity errors : sum local = 9.38441e-09, global = -8.10534e-22, cumulative = -6.23241e-21
[INFO] ContinuityError: 14.725 [ms]
[INFO] CorrectBoundary: 0.408 [ms]
[INFO] PISOStep: 880.207 [ms]
[INFO] MatrixAssemblyPI: 101.552 [ms]
[INFO] AdjustPhi: 5.541 [ms]
[INFO] ConstrainPressure: 0.004 [ms]
[INFO] MatrixAssemblyPII: 30.062 [ms]
[OGL LOG][Proc: 0]: global_index_init: 0.033 [ms]
[OGL LOG][Proc: 0]p_local_coeffs: call_update: 0 [ms]
[OGL LOG][Proc: 0]p_non_local_coeffs: call_update: 0 [ms]
[OGL LOG][Proc: 0]p: update_local_matrix_data: 17.822 [ms]
[OGL LOG][Proc: 0]p: update_non_local_matrix_data: 0.173 [ms]
[OGL LOG][Proc: 0]p: regenerate_distributed_matrix: 62.877 [ms]
[OGL LOG][Proc: 0]p_matrix: call_update: 63.705 [ms]
[OGL LOG][Proc: 0]p_rhs: call_update: 9.021 [ms]
[OGL LOG][Proc: 0]p: init_precond: 0.059 [ms]
[OGL LOG][StoppingCriterion.H:237] Creating stopping criterion with minIter 447 frequency 12
[OGL LOG][Proc: 0]p: generate_solver: 0.005 [ms]
[OGL LOG][Proc: 0]p: solve: 635.251 [ms]
[OGL LOG][Proc: 0]p: copy_x_back: 3.1 [ms]
[OGL LOG][lduLduBase.H:330] 
Statistics:
	Time per iteration: 852 [mu s]
	Time per residual norm calculation: 275.000000 [mu s]
	Time per iteration and DOF: 0.106500 [ns]
	Retrieve results bandwidth 2.580000 [GByte/s]
[OGL LOG][Proc: 0]p: solve_multi_gpu: 713.185 [ms]
nonehipGKOCG:  Solving for p, Initial residual = 0.723577, Final residual = 8.58785e-05, No Iterations 745
[INFO] SolveP: 735.619 [ms]
time step continuity errors : sum local = 8.57265e-09, global = -1.00758e-21, cumulative = -7.23999e-21
[INFO] ContinuityError: 17.031 [ms]
[INFO] CorrectBoundary: 0.991 [ms]
[INFO] PISOStep: 926.556 [ms]
[INFO] TimeStep: 2775.67 [ms]
ExecutionTime = 24.43 s  ClockTime = 21 s

Time = 0.0015

Courant Number mean: 0.036686 max: 0.475571
[INFO] MatrixAssemblyU: 79.692 [ms]
DILUPBiCGStab:  Solving for Ux, Initial residual = 0.0203802, Final residual = 0.00060337, No Iterations 5
DILUPBiCGStab:  Solving for Uy, Initial residual = 0.0656707, Final residual = 0.00224178, No Iterations 5
DILUPBiCGStab:  Solving for Uz, Initial residual = 0.325557, Final residual = 0.0077672, No Iterations 5
[INFO] MomentumPredictor: 876.821 [ms]
[INFO] MatrixAssemblyPI: 101.715 [ms]
[INFO] AdjustPhi: 7.756 [ms]
[INFO] ConstrainPressure: 0.004 [ms]
[INFO] MatrixAssemblyPII: 29.356 [ms]
[OGL LOG][Proc: 0]: global_index_init: 0.126 [ms]
[OGL LOG][Proc: 0]p_local_coeffs: call_update: 0 [ms]
[OGL LOG][Proc: 0]p_non_local_coeffs: call_update: 0 [ms]
[OGL LOG][Proc: 0]p: update_local_matrix_data: 18.878 [ms]
[OGL LOG][Proc: 0]p: update_non_local_matrix_data: 0.136 [ms]
[OGL LOG][Proc: 0]p: regenerate_distributed_matrix: 57.36 [ms]
[OGL LOG][Proc: 0]p_matrix: call_update: 58.145 [ms]
[OGL LOG][Proc: 0]p_rhs: call_update: 3.54 [ms]
[OGL LOG][Proc: 0]p: init_precond: 0.059 [ms]
[OGL LOG][StoppingCriterion.H:237] Creating stopping criterion with minIter 447 frequency 9
[OGL LOG][Proc: 0]p: generate_solver: 0.004 [ms]
[OGL LOG][Proc: 0]p: solve: 608.921 [ms]
[OGL LOG][Proc: 0]p: copy_x_back: 2.771 [ms]
[OGL LOG][lduLduBase.H:330] 
Statistics:
	Time per iteration: 814 [mu s]
	Time per residual norm calculation: 279.000000 [mu s]
	Time per iteration and DOF: 0.101750 [ns]
	Retrieve results bandwidth 2.887000 [GByte/s]
[OGL LOG][Proc: 0]p: solve_multi_gpu: 674.946 [ms]
nonehipGKOCG:  Solving for p, Initial residual = 0.681281, Final residual = 9.50863e-05, No Iterations 748
[INFO] SolveP: 698.607 [ms]
time step continuity errors : sum local = 9.83361e-09, global = -1.71113e-21, cumulative = -8.95112e-21
[INFO] ContinuityError: 14.41 [ms]
[INFO] CorrectBoundary: 0.46 [ms]
[INFO] PISOStep: 888.326 [ms]
[INFO] MatrixAssemblyPI: 99.628 [ms]
[INFO] AdjustPhi: 6.344 [ms]
[INFO] ConstrainPressure: 0.005 [ms]
[INFO] MatrixAssemblyPII: 29.448 [ms]
[OGL LOG][Proc: 0]: global_index_init: 0.101 [ms]
[OGL LOG][Proc: 0]p_local_coeffs: call_update: 0 [ms]
[OGL LOG][Proc: 0]p_non_local_coeffs: call_update: 0 [ms]
[OGL LOG][Proc: 0]p: update_local_matrix_data: 18.781 [ms]
[OGL LOG][Proc: 0]p: update_non_local_matrix_data: 0.126 [ms]
[OGL LOG][Proc: 0]p: regenerate_distributed_matrix: 56.061 [ms]
[OGL LOG][Proc: 0]p_matrix: call_update: 56.839 [ms]
[OGL LOG][Proc: 0]p_rhs: call_update: 3.481 [ms]
[OGL LOG][Proc: 0]p: init_precond: 0.067 [ms]
[OGL LOG][StoppingCriterion.H:237] Creating stopping criterion with minIter 448 frequency 12
[OGL LOG][Proc: 0]p: generate_solver: 0.004 [ms]
[OGL LOG][Proc: 0]p: solve: 610.669 [ms]
[OGL LOG][Proc: 0]p: copy_x_back: 2.775 [ms]
[OGL LOG][lduLduBase.H:330] 
Statistics:
	Time per iteration: 819 [mu s]
	Time per residual norm calculation: 282.000000 [mu s]
	Time per iteration and DOF: 0.102375 [ns]
	Retrieve results bandwidth 2.882000 [GByte/s]
[OGL LOG][Proc: 0]p: solve_multi_gpu: 675.836 [ms]
nonehipGKOCG:  Solving for p, Initial residual = 0.620503, Final residual = 7.9399e-05, No Iterations 745
[INFO] SolveP: 699.245 [ms]
time step continuity errors : sum local = 7.70279e-09, global = -1.58224e-21, cumulative = -1.05334e-20
[INFO] ContinuityError: 14.218 [ms]
[INFO] CorrectBoundary: 0.411 [ms]
[INFO] PISOStep: 885.009 [ms]
[INFO] TimeStep: 2743.23 [ms]
ExecutionTime = 27.6 s  ClockTime = 24 s

Time = 0.00175

Courant Number mean: 0.039604 max: 0.477516
[INFO] MatrixAssemblyU: 78.735 [ms]
DILUPBiCGStab:  Solving for Ux, Initial residual = 0.017394, Final residual = 0.000478467, No Iterations 5
DILUPBiCGStab:  Solving for Uy, Initial residual = 0.048853, Final residual = 0.00163363, No Iterations 5
DILUPBiCGStab:  Solving for Uz, Initial residual = 0.252205, Final residual = 0.00727576, No Iterations 5
[INFO] MomentumPredictor: 866.39 [ms]
[INFO] MatrixAssemblyPI: 102.194 [ms]
[INFO] AdjustPhi: 8.76 [ms]
[INFO] ConstrainPressure: 0.005 [ms]
[INFO] MatrixAssemblyPII: 29.305 [ms]
[OGL LOG][Proc: 0]: global_index_init: 0.104 [ms]
[OGL LOG][Proc: 0]p_local_coeffs: call_update: 0 [ms]
[OGL LOG][Proc: 0]p_non_local_coeffs: call_update: 0 [ms]
[OGL LOG][Proc: 0]p: update_local_matrix_data: 18.354 [ms]
[OGL LOG][Proc: 0]p: update_non_local_matrix_data: 0.147 [ms]
[OGL LOG][Proc: 0]p: regenerate_distributed_matrix: 57.805 [ms]
[OGL LOG][Proc: 0]p_matrix: call_update: 58.639 [ms]
[OGL LOG][Proc: 0]p_rhs: call_update: 3.242 [ms]
[OGL LOG][Proc: 0]p: init_precond: 0.063 [ms]
[OGL LOG][StoppingCriterion.H:237] Creating stopping criterion with minIter 447 frequency 12
[OGL LOG][Proc: 0]p: generate_solver: 0.005 [ms]
[OGL LOG][Proc: 0]p: solve: 1208.56 [ms]
[OGL LOG][Proc: 0]p: copy_x_back: 2.925 [ms]
[OGL LOG][lduLduBase.H:330] 
Statistics:
	Time per iteration: 792 [mu s]
	Time per residual norm calculation: 274.000000 [mu s]
	Time per iteration and DOF: 0.099000 [ns]
	Retrieve results bandwidth 2.735000 [GByte/s]
[OGL LOG][Proc: 0]p: solve_multi_gpu: 1275.37 [ms]
nonehipGKOCG:  Solving for p, Initial residual = 0.67719, Final residual = 7.90008e-05, No Iterations 1525
[INFO] SolveP: 1298.11 [ms]
time step continuity errors : sum local = 6.10937e-09, global = -3.22835e-21, cumulative = -1.37617e-20
[INFO] ContinuityError: 14.399 [ms]
[INFO] CorrectBoundary: 0.396 [ms]
[INFO] PISOStep: 1489.79 [ms]
[INFO] MatrixAssemblyPI: 98.955 [ms]
[INFO] AdjustPhi: 6.413 [ms]
[INFO] ConstrainPressure: 0.005 [ms]
[INFO] MatrixAssemblyPII: 29.924 [ms]
[OGL LOG][Proc: 0]: global_index_init: 0.077 [ms]
[OGL LOG][Proc: 0]p_local_coeffs: call_update: 0 [ms]
[OGL LOG][Proc: 0]p_non_local_coeffs: call_update: 0 [ms]
[OGL LOG][Proc: 0]p: update_local_matrix_data: 24.294 [ms]
[OGL LOG][Proc: 0]p: update_non_local_matrix_data: 0.168 [ms]
[OGL LOG][Proc: 0]p: regenerate_distributed_matrix: 77.11 [ms]
[OGL LOG][Proc: 0]p_matrix: call_update: 77.885 [ms]
[OGL LOG][Proc: 0]p_rhs: call_update: 7.324 [ms]
[OGL LOG][Proc: 0]p: init_precond: 0.058 [ms]
[OGL LOG][StoppingCriterion.H:237] Creating stopping criterion with minIter 915 frequency 17
[OGL LOG][Proc: 0]p: generate_solver: 0.004 [ms]
[OGL LOG][Proc: 0]p: solve: 1198.25 [ms]
[OGL LOG][Proc: 0]p: copy_x_back: 2.785 [ms]
[OGL LOG][lduLduBase.H:330] 
Statistics:
	Time per iteration: 791 [mu s]
	Time per residual norm calculation: 273.000000 [mu s]
	Time per iteration and DOF: 0.098875 [ns]
	Retrieve results bandwidth 2.872000 [GByte/s]
[OGL LOG][Proc: 0]p: solve_multi_gpu: 1287.42 [ms]
nonehipGKOCG:  Solving for p, Initial residual = 0.617335, Final residual = 9.62084e-05, No Iterations 1514
[INFO] SolveP: 1315.87 [ms]
time step continuity errors : sum local = 7.40154e-09, global = -2.60217e-21, cumulative = -1.63639e-20
[INFO] ContinuityError: 14.842 [ms]
[INFO] CorrectBoundary: 0.777 [ms]
[INFO] PISOStep: 1502.67 [ms]
[INFO] TimeStep: 3951.52 [ms]
ExecutionTime = 32.45 s  ClockTime = 28 s

Time = 0.002

Courant Number mean: 0.0421308 max: 0.47922
[INFO] MatrixAssemblyU: 78.674 [ms]
DILUPBiCGStab:  Solving for Ux, Initial residual = 0.0142546, Final residual = 0.000366422, No Iterations 5
DILUPBiCGStab:  Solving for Uy, Initial residual = 0.0416185, Final residual = 0.00126875, No Iterations 5
DILUPBiCGStab:  Solving for Uz, Initial residual = 0.196402, Final residual = 0.00547694, No Iterations 5
[INFO] MomentumPredictor: 873.056 [ms]
[INFO] MatrixAssemblyPI: 101.887 [ms]
[INFO] AdjustPhi: 5.587 [ms]
[INFO] ConstrainPressure: 0.005 [ms]
[INFO] MatrixAssemblyPII: 29.21 [ms]
[OGL LOG][Proc: 0]: global_index_init: 0.09 [ms]
[OGL LOG][Proc: 0]p_local_coeffs: call_update: 0 [ms]
[OGL LOG][Proc: 0]p_non_local_coeffs: call_update: 0 [ms]
[OGL LOG][Proc: 0]p: update_local_matrix_data: 19.399 [ms]
[OGL LOG][Proc: 0]p: update_non_local_matrix_data: 0.125 [ms]
[OGL LOG][Proc: 0]p: regenerate_distributed_matrix: 59.9 [ms]
[OGL LOG][Proc: 0]p_matrix: call_update: 60.682 [ms]
[OGL LOG][Proc: 0]p_rhs: call_update: 4.298 [ms]
[OGL LOG][Proc: 0]p: init_precond: 0.058 [ms]
[OGL LOG][StoppingCriterion.H:237] Creating stopping criterion with minIter 908 frequency 17
[OGL LOG][Proc: 0]p: generate_solver: 0.004 [ms]
[OGL LOG][Proc: 0]p: solve: 1203.55 [ms]
[OGL LOG][Proc: 0]p: copy_x_back: 2.784 [ms]
[OGL LOG][lduLduBase.H:330] 
Statistics:
	Time per iteration: 786 [mu s]
	Time per residual norm calculation: 280.000000 [mu s]
	Time per iteration and DOF: 0.098250 [ns]
	Retrieve results bandwidth 2.873000 [GByte/s]
[OGL LOG][Proc: 0]p: solve_multi_gpu: 1273.01 [ms]
nonehipGKOCG:  Solving for p, Initial residual = 0.585988, Final residual = 7.98417e-05, No Iterations 1531
[INFO] SolveP: 1296.99 [ms]
time step continuity errors : sum local = 5.87745e-09, global = -2.63108e-21, cumulative = -1.8995e-20
[INFO] ContinuityError: 15.341 [ms]
[INFO] CorrectBoundary: 0.744 [ms]
[INFO] PISOStep: 1484.82 [ms]
[INFO] MatrixAssemblyPI: 98.773 [ms]
[INFO] AdjustPhi: 7.089 [ms]
[INFO] ConstrainPressure: 0.004 [ms]
[INFO] MatrixAssemblyPII: 29.516 [ms]
[OGL LOG][Proc: 0]: global_index_init: 0.035 [ms]
[OGL LOG][Proc: 0]p_local_coeffs: call_update: 0 [ms]
[OGL LOG][Proc: 0]p_non_local_coeffs: call_update: 0 [ms]
[OGL LOG][Proc: 0]p: update_local_matrix_data: 18.21 [ms]
[OGL LOG][Proc: 0]p: update_non_local_matrix_data: 0.124 [ms]
[OGL LOG][Proc: 0]p: regenerate_distributed_matrix: 55.647 [ms]
[OGL LOG][Proc: 0]p_matrix: call_update: 56.47 [ms]
[OGL LOG][Proc: 0]p_rhs: call_update: 5.58 [ms]
[OGL LOG][Proc: 0]p: init_precond: 0.06 [ms]
[OGL LOG][StoppingCriterion.H:237] Creating stopping criterion with minIter 918 frequency 17
[OGL LOG][Proc: 0]p: generate_solver: 0.004 [ms]
[OGL LOG][Proc: 0]p: solve: 1187.26 [ms]
[OGL LOG][Proc: 0]p: copy_x_back: 2.786 [ms]
[OGL LOG][lduLduBase.H:330] 
Statistics:
	Time per iteration: 775 [mu s]
	Time per residual norm calculation: 276.000000 [mu s]
	Time per iteration and DOF: 0.096875 [ns]
	Retrieve results bandwidth 2.871000 [GByte/s]
[OGL LOG][Proc: 0]p: solve_multi_gpu: 1253.94 [ms]
nonehipGKOCG:  Solving for p, Initial residual = 0.528141, Final residual = 7.61315e-05, No Iterations 1531
[INFO] SolveP: 1276.78 [ms]
time step continuity errors : sum local = 5.59106e-09, global = -2.02223e-21, cumulative = -2.10172e-20
[INFO] ContinuityError: 13.947 [ms]
[INFO] CorrectBoundary: 0.57 [ms]
[INFO] PISOStep: 1462.82 [ms]
[INFO] TimeStep: 3912.79 [ms]
ExecutionTime = 37.26 s  ClockTime = 32 s

Time = 0.00225

Courant Number mean: 0.0444171 max: 0.48037
[INFO] MatrixAssemblyU: 77.74 [ms]
DILUPBiCGStab:  Solving for Ux, Initial residual = 0.0125407, Final residual = 0.000301391, No Iterations 5
DILUPBiCGStab:  Solving for Uy, Initial residual = 0.0334825, Final residual = 0.000894095, No Iterations 5
DILUPBiCGStab:  Solving for Uz, Initial residual = 0.158191, Final residual = 0.00517927, No Iterations 5
[INFO] MomentumPredictor: 874.152 [ms]
[INFO] MatrixAssemblyPI: 101.62 [ms]
[INFO] AdjustPhi: 6.069 [ms]
[INFO] ConstrainPressure: 0.005 [ms]
[INFO] MatrixAssemblyPII: 29.239 [ms]
[OGL LOG][Proc: 0]: global_index_init: 0.075 [ms]
[OGL LOG][Proc: 0]p_local_coeffs: call_update: 0 [ms]
[OGL LOG][Proc: 0]p_non_local_coeffs: call_update: 0 [ms]
[OGL LOG][Proc: 0]p: update_local_matrix_data: 18.44 [ms]
[OGL LOG][Proc: 0]p: update_non_local_matrix_data: 0.125 [ms]
[OGL LOG][Proc: 0]p: regenerate_distributed_matrix: 56.301 [ms]
[OGL LOG][Proc: 0]p_matrix: call_update: 57.125 [ms]
[OGL LOG][Proc: 0]p_rhs: call_update: 5.757 [ms]
[OGL LOG][Proc: 0]p: init_precond: 0.059 [ms]
[OGL LOG][StoppingCriterion.H:237] Creating stopping criterion with minIter 918 frequency 17
[OGL LOG][Proc: 0]p: generate_solver: 0.004 [ms]
[OGL LOG][Proc: 0]p: solve: 1174.43 [ms]
[OGL LOG][Proc: 0]p: copy_x_back: 2.939 [ms]
[OGL LOG][lduLduBase.H:330] 
Statistics:
	Time per iteration: 775 [mu s]
	Time per residual norm calculation: 315.000000 [mu s]
	Time per iteration and DOF: 0.096875 [ns]
	Retrieve results bandwidth 2.722000 [GByte/s]
[OGL LOG][Proc: 0]p: solve_multi_gpu: 1241.78 [ms]
nonehipGKOCG:  Solving for p, Initial residual = 0.572924, Final residual = 7.67295e-05, No Iterations 1514
[INFO] SolveP: 1264.37 [ms]
time step continuity errors : sum local = 4.8949e-09, global = -1.36376e-21, cumulative = -2.23809e-20
[INFO] ContinuityError: 20.251 [ms]
[INFO] CorrectBoundary: 0.835 [ms]
[INFO] PISOStep: 1458.22 [ms]
[INFO] MatrixAssemblyPI: 99.38 [ms]
[INFO] AdjustPhi: 9.04 [ms]
[INFO] ConstrainPressure: 0.004 [ms]
[INFO] MatrixAssemblyPII: 30.036 [ms]
[OGL LOG][Proc: 0]: global_index_init: 0.063 [ms]
[OGL LOG][Proc: 0]p_local_coeffs: call_update: 0 [ms]
[OGL LOG][Proc: 0]p_non_local_coeffs: call_update: 0 [ms]
[OGL LOG][Proc: 0]p: update_local_matrix_data: 28.159 [ms]
[OGL LOG][Proc: 0]p: update_non_local_matrix_data: 0.169 [ms]
[OGL LOG][Proc: 0]p: regenerate_distributed_matrix: 78.437 [ms]
[OGL LOG][Proc: 0]p_matrix: call_update: 79.202 [ms]
[OGL LOG][Proc: 0]p_rhs: call_update: 0.93 [ms]
[OGL LOG][Proc: 0]p: init_precond: 0.065 [ms]
[OGL LOG][StoppingCriterion.H:237] Creating stopping criterion with minIter 908 frequency 17
[OGL LOG][Proc: 0]p: generate_solver: 0.004 [ms]
[OGL LOG][Proc: 0]p: solve: 1161.56 [ms]
[OGL LOG][Proc: 0]p: copy_x_back: 2.759 [ms]
[OGL LOG][lduLduBase.H:330] 
Statistics:
	Time per iteration: 775 [mu s]
	Time per residual norm calculation: 276.000000 [mu s]
	Time per iteration and DOF: 0.096875 [ns]
	Retrieve results bandwidth 2.899000 [GByte/s]
[OGL LOG][Proc: 0]p: solve_multi_gpu: 1245.36 [ms]
nonehipGKOCG:  Solving for p, Initial residual = 0.51181, Final residual = 9.67023e-05, No Iterations 1497
[INFO] SolveP: 1278.42 [ms]
time step continuity errors : sum local = 6.16707e-09, global = -3.7501e-22, cumulative = -2.2756e-20
[INFO] ContinuityError: 17.356 [ms]
[INFO] CorrectBoundary: 0.401 [ms]
[INFO] PISOStep: 1469.29 [ms]
[INFO] TimeStep: 3892.94 [ms]
ExecutionTime = 42.04 s  ClockTime = 36 s

Time = 0.0025

Courant Number mean: 0.0464716 max: 0.481474
[INFO] MatrixAssemblyU: 78.955 [ms]
DILUPBiCGStab:  Solving for Ux, Initial residual = 0.0107879, Final residual = 0.000242431, No Iterations 5
DILUPBiCGStab:  Solving for Uy, Initial residual = 0.0293473, Final residual = 0.000733655, No Iterations 5
DILUPBiCGStab:  Solving for Uz, Initial residual = 0.127435, Final residual = 0.00417787, No Iterations 5
[INFO] MomentumPredictor: 875.041 [ms]
[INFO] MatrixAssemblyPI: 103.26 [ms]
[INFO] AdjustPhi: 5.453 [ms]
[INFO] ConstrainPressure: 0.003 [ms]
[INFO] MatrixAssemblyPII: 29.258 [ms]
[OGL LOG][Proc: 0]: global_index_init: 0.043 [ms]
[OGL LOG][Proc: 0]p_local_coeffs: call_update: 0 [ms]
[OGL LOG][Proc: 0]p_non_local_coeffs: call_update: 0 [ms]
[OGL LOG][Proc: 0]p: update_local_matrix_data: 18.203 [ms]
[OGL LOG][Proc: 0]p: update_non_local_matrix_data: 0.123 [ms]
[OGL LOG][Proc: 0]p: regenerate_distributed_matrix: 59.597 [ms]
[OGL LOG][Proc: 0]p_matrix: call_update: 60.372 [ms]
[OGL LOG][Proc: 0]p_rhs: call_update: 4.555 [ms]
[OGL LOG][Proc: 0]p: init_precond: 0.061 [ms]
[OGL LOG][StoppingCriterion.H:237] Creating stopping criterion with minIter 898 frequency 17
[OGL LOG][Proc: 0]p: generate_solver: 0.004 [ms]
[OGL LOG][Proc: 0]p: solve: 1167.38 [ms]
[OGL LOG][Proc: 0]p: copy_x_back: 2.796 [ms]
[OGL LOG][lduLduBase.H:330] 
Statistics:
	Time per iteration: 779 [mu s]
	Time per residual norm calculation: 273.000000 [mu s]
	Time per iteration and DOF: 0.097375 [ns]
	Retrieve results bandwidth 2.861000 [GByte/s]
[OGL LOG][Proc: 0]p: solve_multi_gpu: 1236.99 [ms]
nonehipGKOCG:  Solving for p, Initial residual = 0.496163, Final residual = 9.68286e-05, No Iterations 1497
[INFO] SolveP: 1259.37 [ms]
time step continuity errors : sum local = 5.99673e-09, global = -2.27886e-21, cumulative = -2.50348e-20
[INFO] ContinuityError: 14.357 [ms]
[INFO] CorrectBoundary: 1.143 [ms]
[INFO] PISOStep: 1448.31 [ms]
[INFO] MatrixAssemblyPI: 99.427 [ms]
[INFO] AdjustPhi: 7.515 [ms]
[INFO] ConstrainPressure: 0.004 [ms]
[INFO] MatrixAssemblyPII: 29.576 [ms]
[OGL LOG][Proc: 0]: global_index_init: 0.054 [ms]
[OGL LOG][Proc: 0]p_local_coeffs: call_update: 0 [ms]
[OGL LOG][Proc: 0]p_non_local_coeffs: call_update: 0 [ms]
[OGL LOG][Proc: 0]p: update_local_matrix_data: 19.235 [ms]
[OGL LOG][Proc: 0]p: update_non_local_matrix_data: 0.135 [ms]
[OGL LOG][Proc: 0]p: regenerate_distributed_matrix: 58.784 [ms]
[OGL LOG][Proc: 0]p_matrix: call_update: 59.563 [ms]
[OGL LOG][Proc: 0]p_rhs: call_update: 4.001 [ms]
[OGL LOG][Proc: 0]p: init_precond: 0.061 [ms]
[OGL LOG][StoppingCriterion.H:237] Creating stopping criterion with minIter 898 frequency 17
[OGL LOG][Proc: 0]p: generate_solver: 0.004 [ms]
[OGL LOG][Proc: 0]p: solve: 1156.95 [ms]
[OGL LOG][Proc: 0]p: copy_x_back: 2.793 [ms]
[OGL LOG][lduLduBase.H:330] 
Statistics:
	Time per iteration: 772 [mu s]
	Time per residual norm calculation: 288.000000 [mu s]
	Time per iteration and DOF: 0.096500 [ns]
	Retrieve results bandwidth 2.864000 [GByte/s]
[OGL LOG][Proc: 0]p: solve_multi_gpu: 1224.96 [ms]
nonehipGKOCG:  Solving for p, Initial residual = 0.443215, Final residual = 9.71e-05, No Iterations 1497
[INFO] SolveP: 1248.66 [ms]
time step continuity errors : sum local = 5.98755e-09, global = -1.46084e-21, cumulative = -2.64957e-20
[INFO] ContinuityError: 14.706 [ms]
[INFO] CorrectBoundary: 0.475 [ms]
[INFO] PISOStep: 1436.07 [ms]
[INFO] TimeStep: 3852.96 [ms]
ExecutionTime = 46.77 s  ClockTime = 39 s

Time = 0.00275

Courant Number mean: 0.0483595 max: 0.482248
[INFO] MatrixAssemblyU: 77.633 [ms]
DILUPBiCGStab:  Solving for Ux, Initial residual = 0.00966546, Final residual = 0.00020448, No Iterations 5
DILUPBiCGStab:  Solving for Uy, Initial residual = 0.0248265, Final residual = 0.000528844, No Iterations 5
DILUPBiCGStab:  Solving for Uz, Initial residual = 0.106708, Final residual = 0.00397815, No Iterations 5
[INFO] MomentumPredictor: 873.307 [ms]
[INFO] MatrixAssemblyPI: 102.471 [ms]
[INFO] AdjustPhi: 6.353 [ms]
[INFO] ConstrainPressure: 0.005 [ms]
[INFO] MatrixAssemblyPII: 29.257 [ms]
[OGL LOG][Proc: 0]: global_index_init: 0.038 [ms]
[OGL LOG][Proc: 0]p_local_coeffs: call_update: 0 [ms]
[OGL LOG][Proc: 0]p_non_local_coeffs: call_update: 0 [ms]
[OGL LOG][Proc: 0]p: update_local_matrix_data: 18.739 [ms]
[OGL LOG][Proc: 0]p: update_non_local_matrix_data: 0.122 [ms]
[OGL LOG][Proc: 0]p: regenerate_distributed_matrix: 53.883 [ms]
[OGL LOG][Proc: 0]p_matrix: call_update: 54.732 [ms]
[OGL LOG][Proc: 0]p_rhs: call_update: 5.484 [ms]
[OGL LOG][Proc: 0]p: init_precond: 0.056 [ms]
[OGL LOG][StoppingCriterion.H:237] Creating stopping criterion with minIter 898 frequency 17
[OGL LOG][Proc: 0]p: generate_solver: 0.004 [ms]
[OGL LOG][Proc: 0]p: solve: 1182.13 [ms]
[OGL LOG][Proc: 0]p: copy_x_back: 3.096 [ms]
[OGL LOG][lduLduBase.H:330] 
Statistics:
	Time per iteration: 789 [mu s]
	Time per residual norm calculation: 307.000000 [mu s]
	Time per iteration and DOF: 0.098625 [ns]
	Retrieve results bandwidth 2.583000 [GByte/s]
[OGL LOG][Proc: 0]p: solve_multi_gpu: 1247.15 [ms]
nonehipGKOCG:  Solving for p, Initial residual = 0.471722, Final residual = 7.08442e-05, No Iterations 1497
[INFO] SolveP: 1270.28 [ms]
time step continuity errors : sum local = 3.96556e-09, global = -1.86372e-21, cumulative = -2.83594e-20
[INFO] ContinuityError: 18.366 [ms]
[INFO] CorrectBoundary: 1.225 [ms]
[INFO] PISOStep: 1465 [ms]
[INFO] MatrixAssemblyPI: 101.755 [ms]
[INFO] AdjustPhi: 5.512 [ms]
[INFO] ConstrainPressure: 0.004 [ms]
[INFO] MatrixAssemblyPII: 29.195 [ms]
[OGL LOG][Proc: 0]: global_index_init: 0.035 [ms]
[OGL LOG][Proc: 0]p_local_coeffs: call_update: 0 [ms]
[OGL LOG][Proc: 0]p_non_local_coeffs: call_update: 0 [ms]
[OGL LOG][Proc: 0]p: update_local_matrix_data: 18.31 [ms]
[OGL LOG][Proc: 0]p: update_non_local_matrix_data: 0.136 [ms]
[OGL LOG][Proc: 0]p: regenerate_distributed_matrix: 70.354 [ms]
[OGL LOG][Proc: 0]p_matrix: call_update: 71.123 [ms]
[OGL LOG][Proc: 0]p_rhs: call_update: 7.631 [ms]
[OGL LOG][Proc: 0]p: init_precond: 0.063 [ms]
[OGL LOG][StoppingCriterion.H:237] Creating stopping criterion with minIter 898 frequency 17
[OGL LOG][Proc: 0]p: generate_solver: 0.004 [ms]
[OGL LOG][Proc: 0]p: solve: 1159.82 [ms]
[OGL LOG][Proc: 0]p: copy_x_back: 2.809 [ms]
[OGL LOG][lduLduBase.H:330] 
Statistics:
	Time per iteration: 774 [mu s]
	Time per residual norm calculation: 273.000000 [mu s]
	Time per iteration and DOF: 0.096750 [ns]
	Retrieve results bandwidth 2.847000 [GByte/s]
[OGL LOG][Proc: 0]p: solve_multi_gpu: 1247.47 [ms]
nonehipGKOCG:  Solving for p, Initial residual = 0.416981, Final residual = 7.25567e-05, No Iterations 1497
[INFO] SolveP: 1270.69 [ms]
time step continuity errors : sum local = 4.06583e-09, global = 2.16279e-22, cumulative = -2.81431e-20
[INFO] ContinuityError: 14.281 [ms]
[INFO] CorrectBoundary: 0.937 [ms]
[INFO] PISOStep: 1458.62 [ms]
[INFO] TimeStep: 3893.22 [ms]
ExecutionTime = 51.54 s  ClockTime = 43 s

Time = 0.003

Courant Number mean: 0.0500919 max: 0.483038
[INFO] MatrixAssemblyU: 78.099 [ms]
DILUPBiCGStab:  Solving for Ux, Initial residual = 0.00857563, Final residual = 0.000170898, No Iterations 5
DILUPBiCGStab:  Solving for Uy, Initial residual = 0.0221852, Final residual = 0.000438779, No Iterations 5
DILUPBiCGStab:  Solving for Uz, Initial residual = 0.0890004, Final residual = 0.00332727, No Iterations 5
[INFO] MomentumPredictor: 874.127 [ms]
[INFO] MatrixAssemblyPI: 103.97 [ms]
[INFO] AdjustPhi: 6.072 [ms]
[INFO] ConstrainPressure: 0.004 [ms]
[INFO] MatrixAssemblyPII: 29.662 [ms]
[OGL LOG][Proc: 0]: global_index_init: 0.073 [ms]
[OGL LOG][Proc: 0]p_local_coeffs: call_update: 0 [ms]
[OGL LOG][Proc: 0]p_non_local_coeffs: call_update: 0 [ms]
[OGL LOG][Proc: 0]p: update_local_matrix_data: 19.057 [ms]
[OGL LOG][Proc: 0]p: update_non_local_matrix_data: 0.162 [ms]
[OGL LOG][Proc: 0]p: regenerate_distributed_matrix: 56.251 [ms]
[OGL LOG][Proc: 0]p_matrix: call_update: 57.028 [ms]
[OGL LOG][Proc: 0]p_rhs: call_update: 3.95 [ms]
[OGL LOG][Proc: 0]p: init_precond: 0.064 [ms]
[OGL LOG][StoppingCriterion.H:237] Creating stopping criterion with minIter 898 frequency 17
[OGL LOG][Proc: 0]p: generate_solver: 0.004 [ms]
[OGL LOG][Proc: 0]p: solve: 1162.29 [ms]
[OGL LOG][Proc: 0]p: copy_x_back: 2.73 [ms]
[OGL LOG][lduLduBase.H:330] 
Statistics:
	Time per iteration: 776 [mu s]
	Time per residual norm calculation: 279.000000 [mu s]
	Time per iteration and DOF: 0.097000 [ns]
	Retrieve results bandwidth 2.930000 [GByte/s]
[OGL LOG][Proc: 0]p: solve_multi_gpu: 1227.44 [ms]
nonehipGKOCG:  Solving for p, Initial residual = 0.414493, Final residual = 7.16157e-05, No Iterations 1497
[INFO] SolveP: 1250.93 [ms]
time step continuity errors : sum local = 3.89527e-09, global = -2.32334e-21, cumulative = -3.04664e-20
[INFO] ContinuityError: 13.764 [ms]
[INFO] CorrectBoundary: 0.606 [ms]
[INFO] PISOStep: 1441.17 [ms]
[INFO] MatrixAssemblyPI: 100.237 [ms]
[INFO] AdjustPhi: 5.72 [ms]
[INFO] ConstrainPressure: 0.004 [ms]
[INFO] MatrixAssemblyPII: 29.779 [ms]
[OGL LOG][Proc: 0]: global_index_init: 0.033 [ms]
[OGL LOG][Proc: 0]p_local_coeffs: call_update: 0 [ms]
[OGL LOG][Proc: 0]p_non_local_coeffs: call_update: 0 [ms]
[OGL LOG][Proc: 0]p: update_local_matrix_data: 18.361 [ms]
[OGL LOG][Proc: 0]p: update_non_local_matrix_data: 0.141 [ms]
[OGL LOG][Proc: 0]p: regenerate_distributed_matrix: 60.228 [ms]
[OGL LOG][Proc: 0]p_matrix: call_update: 60.998 [ms]
[OGL LOG][Proc: 0]p_rhs: call_update: 1.456 [ms]
[OGL LOG][Proc: 0]p: init_precond: 0.057 [ms]
[OGL LOG][StoppingCriterion.H:237] Creating stopping criterion with minIter 898 frequency 17
[OGL LOG][Proc: 0]p: generate_solver: 0.004 [ms]
[OGL LOG][Proc: 0]p: solve: 1169.8 [ms]
[OGL LOG][Proc: 0]p: copy_x_back: 2.824 [ms]
[OGL LOG][lduLduBase.H:330] 
Statistics:
	Time per iteration: 781 [mu s]
	Time per residual norm calculation: 276.000000 [mu s]
	Time per iteration and DOF: 0.097625 [ns]
	Retrieve results bandwidth 2.832000 [GByte/s]
[OGL LOG][Proc: 0]p: solve_multi_gpu: 1237.64 [ms]
nonehipGKOCG:  Solving for p, Initial residual = 0.367603, Final residual = 7.32923e-05, No Iterations 1497
[INFO] SolveP: 1260.43 [ms]
time step continuity errors : sum local = 3.96853e-09, global = -3.69946e-21, cumulative = -3.41659e-20
[INFO] ContinuityError: 14.822 [ms]
[INFO] CorrectBoundary: 1.551 [ms]
[INFO] PISOStep: 1447.81 [ms]
[INFO] TimeStep: 3854.64 [ms]
ExecutionTime = 56.28 s  ClockTime = 47 s

Time = 0.00325

Courant Number mean: 0.051701 max: 0.483603
[INFO] MatrixAssemblyU: 78.227 [ms]
DILUPBiCGStab:  Solving for Ux, Initial residual = 0.00778585, Final residual = 0.000146891, No Iterations 5
DILUPBiCGStab:  Solving for Uy, Initial residual = 0.0194163, Final residual = 0.000338947, No Iterations 5
DILUPBiCGStab:  Solving for Uz, Initial residual = 0.0760656, Final residual = 0.00311731, No Iterations 5
[INFO] MomentumPredictor: 874.745 [ms]
[INFO] MatrixAssemblyPI: 101.465 [ms]
[INFO] AdjustPhi: 7.125 [ms]
[INFO] ConstrainPressure: 0.005 [ms]
[INFO] MatrixAssemblyPII: 29.15 [ms]
[OGL LOG][Proc: 0]: global_index_init: 0.156 [ms]
[OGL LOG][Proc: 0]p_local_coeffs: call_update: 0 [ms]
[OGL LOG][Proc: 0]p_non_local_coeffs: call_update: 0 [ms]
[OGL LOG][Proc: 0]p: update_local_matrix_data: 18.753 [ms]
[OGL LOG][Proc: 0]p: update_non_local_matrix_data: 0.128 [ms]
[OGL LOG][Proc: 0]p: regenerate_distributed_matrix: 63.029 [ms]
[OGL LOG][Proc: 0]p_matrix: call_update: 65.438 [ms]
[OGL LOG][Proc: 0]p_rhs: call_update: 3.775 [ms]
[OGL LOG][Proc: 0]p: init_precond: 0.057 [ms]
[OGL LOG][StoppingCriterion.H:237] Creating stopping criterion with minIter 898 frequency 17
[OGL LOG][Proc: 0]p: generate_solver: 0.004 [ms]
[OGL LOG][Proc: 0]p: solve: 1155.73 [ms]
[OGL LOG][Proc: 0]p: copy_x_back: 2.738 [ms]
[OGL LOG][lduLduBase.H:330] 
Statistics:
	Time per iteration: 780 [mu s]
	Time per residual norm calculation: 285.000000 [mu s]
	Time per iteration and DOF: 0.097500 [ns]
	Retrieve results bandwidth 2.921000 [GByte/s]
[OGL LOG][Proc: 0]p: solve_multi_gpu: 1229.56 [ms]
nonehipGKOCG:  Solving for p, Initial residual = 0.383789, Final residual = 9.37739e-05, No Iterations 1480
[INFO] SolveP: 1252.7 [ms]
time step continuity errors : sum local = 4.76928e-09, global = -1.6751e-21, cumulative = -3.5841e-20
[INFO] ContinuityError: 14.714 [ms]
[INFO] CorrectBoundary: 0.463 [ms]
[INFO] PISOStep: 1440.85 [ms]
[INFO] MatrixAssemblyPI: 99.164 [ms]
[INFO] AdjustPhi: 8.314 [ms]
[INFO] ConstrainPressure: 0.005 [ms]
[INFO] MatrixAssemblyPII: 29.292 [ms]
[OGL LOG][Proc: 0]: global_index_init: 0.067 [ms]
[OGL LOG][Proc: 0]p_local_coeffs: call_update: 0 [ms]
[OGL LOG][Proc: 0]p_non_local_coeffs: call_update: 0 [ms]
[OGL LOG][Proc: 0]p: update_local_matrix_data: 26.656 [ms]
[OGL LOG][Proc: 0]p: update_non_local_matrix_data: 0.115 [ms]
[OGL LOG][Proc: 0]p: regenerate_distributed_matrix: 69.908 [ms]
[OGL LOG][Proc: 0]p_matrix: call_update: 70.932 [ms]
[OGL LOG][Proc: 0]p_rhs: call_update: 5.506 [ms]
[OGL LOG][Proc: 0]p: init_precond: 0.054 [ms]
[OGL LOG][StoppingCriterion.H:237] Creating stopping criterion with minIter 888 frequency 17
[OGL LOG][Proc: 0]p: generate_solver: 0.004 [ms]
[OGL LOG][Proc: 0]p: solve: 1159.92 [ms]
[OGL LOG][Proc: 0]p: copy_x_back: 2.834 [ms]
[OGL LOG][lduLduBase.H:330] 
Statistics:
	Time per iteration: 783 [mu s]
	Time per residual norm calculation: 278.000000 [mu s]
	Time per iteration and DOF: 0.097875 [ns]
	Retrieve results bandwidth 2.822000 [GByte/s]
[OGL LOG][Proc: 0]p: solve_multi_gpu: 1240.19 [ms]
nonehipGKOCG:  Solving for p, Initial residual = 0.337381, Final residual = 8.88948e-05, No Iterations 1480
[INFO] SolveP: 1271.23 [ms]
time step continuity errors : sum local = 4.52714e-09, global = -2.44858e-21, cumulative = -3.82896e-20
[INFO] ContinuityError: 15.185 [ms]
[INFO] CorrectBoundary: 0.531 [ms]
[INFO] PISOStep: 1458.61 [ms]
[INFO] TimeStep: 3865.84 [ms]
ExecutionTime = 61.03 s  ClockTime = 51 s

Time = 0.0035

Courant Number mean: 0.0531952 max: 0.484199
[INFO] MatrixAssemblyU: 78.176 [ms]
DILUPBiCGStab:  Solving for Ux, Initial residual = 0.00705285, Final residual = 0.000126278, No Iterations 5
DILUPBiCGStab:  Solving for Uy, Initial residual = 0.0176122, Final residual = 0.000281016, No Iterations 5
DILUPBiCGStab:  Solving for Uz, Initial residual = 0.0654016, Final residual = 0.00267841, No Iterations 5
[INFO] MomentumPredictor: 871.505 [ms]
[INFO] MatrixAssemblyPI: 103.67 [ms]
[INFO] AdjustPhi: 7.098 [ms]
[INFO] ConstrainPressure: 0.004 [ms]
[INFO] MatrixAssemblyPII: 29.413 [ms]
[OGL LOG][Proc: 0]: global_index_init: 0.074 [ms]
[OGL LOG][Proc: 0]p_local_coeffs: call_update: 0 [ms]
[OGL LOG][Proc: 0]p_non_local_coeffs: call_update: 0 [ms]
[OGL LOG][Proc: 0]p: update_local_matrix_data: 17.748 [ms]
[OGL LOG][Proc: 0]p: update_non_local_matrix_data: 0.118 [ms]
[OGL LOG][Proc: 0]p: regenerate_distributed_matrix: 56.848 [ms]
[OGL LOG][Proc: 0]p_matrix: call_update: 57.721 [ms]
[OGL LOG][Proc: 0]p_rhs: call_update: 3.393 [ms]
[OGL LOG][Proc: 0]p: init_precond: 0.058 [ms]
[OGL LOG][StoppingCriterion.H:237] Creating stopping criterion with minIter 888 frequency 17
[OGL LOG][Proc: 0]p: generate_solver: 0.005 [ms]
[OGL LOG][Proc: 0]p: solve: 1163.95 [ms]
[OGL LOG][Proc: 0]p: copy_x_back: 2.724 [ms]
[OGL LOG][lduLduBase.H:330] 
Statistics:
	Time per iteration: 786 [mu s]
	Time per residual norm calculation: 285.000000 [mu s]
	Time per iteration and DOF: 0.098250 [ns]
	Retrieve results bandwidth 2.936000 [GByte/s]
[OGL LOG][Proc: 0]p: solve_multi_gpu: 1231.36 [ms]
nonehipGKOCG:  Solving for p, Initial residual = 0.342017, Final residual = 9.91603e-05, No Iterations 1480
[INFO] SolveP: 1252.92 [ms]
time step continuity errors : sum local = 4.87976e-09, global = -1.2794e-21, cumulative = -3.9569e-20
[INFO] ContinuityError: 14.289 [ms]
[INFO] CorrectBoundary: 0.503 [ms]
[INFO] PISOStep: 1443.34 [ms]
[INFO] MatrixAssemblyPI: 99.642 [ms]
[INFO] AdjustPhi: 6.919 [ms]
[INFO] ConstrainPressure: 0.004 [ms]
[INFO] MatrixAssemblyPII: 29.655 [ms]
[OGL LOG][Proc: 0]: global_index_init: 0.238 [ms]
[OGL LOG][Proc: 0]p_local_coeffs: call_update: 0 [ms]
[OGL LOG][Proc: 0]p_non_local_coeffs: call_update: 0 [ms]
[OGL LOG][Proc: 0]p: update_local_matrix_data: 18.936 [ms]
[OGL LOG][Proc: 0]p: update_non_local_matrix_data: 0.139 [ms]
[OGL LOG][Proc: 0]p: regenerate_distributed_matrix: 59.844 [ms]
[OGL LOG][Proc: 0]p_matrix: call_update: 60.632 [ms]
[OGL LOG][Proc: 0]p_rhs: call_update: 4.202 [ms]
[OGL LOG][Proc: 0]p: init_precond: 0.056 [ms]
[OGL LOG][StoppingCriterion.H:237] Creating stopping criterion with minIter 888 frequency 17
[OGL LOG][Proc: 0]p: generate_solver: 0.005 [ms]
[OGL LOG][Proc: 0]p: solve: 1159.9 [ms]
[OGL LOG][Proc: 0]p: copy_x_back: 2.792 [ms]
[OGL LOG][lduLduBase.H:330] 
Statistics:
	Time per iteration: 774 [mu s]
	Time per residual norm calculation: 281.000000 [mu s]
	Time per iteration and DOF: 0.096750 [ns]
	Retrieve results bandwidth 2.865000 [GByte/s]
[OGL LOG][Proc: 0]p: solve_multi_gpu: 1228.55 [ms]
nonehipGKOCG:  Solving for p, Initial residual = 0.3022, Final residual = 5.68533e-05, No Iterations 1497
[INFO] SolveP: 1252.27 [ms]
time step continuity errors : sum local = 2.78659e-09, global = 1.22596e-21, cumulative = -3.8343e-20
[INFO] ContinuityError: 14.808 [ms]
[INFO] CorrectBoundary: 0.885 [ms]
[INFO] PISOStep: 1439.02 [ms]
[INFO] TimeStep: 3845.88 [ms]
ExecutionTime = 65.76 s  ClockTime = 55 s

Time = 0.00375

Courant Number mean: 0.0545956 max: 0.484637
[INFO] MatrixAssemblyU: 78.066 [ms]
DILUPBiCGStab:  Solving for Ux, Initial residual = 0.00646987, Final residual = 0.000110081, No Iterations 5
DILUPBiCGStab:  Solving for Uy, Initial residual = 0.0157804, Final residual = 0.000234415, No Iterations 5
DILUPBiCGStab:  Solving for Uz, Initial residual = 0.0567221, Final residual = 0.0024577, No Iterations 5
[INFO] MomentumPredictor: 880.099 [ms]
[INFO] MatrixAssemblyPI: 101.751 [ms]
[INFO] AdjustPhi: 5.673 [ms]
[INFO] ConstrainPressure: 0.004 [ms]
[INFO] MatrixAssemblyPII: 29.074 [ms]
[OGL LOG][Proc: 0]: global_index_init: 0.048 [ms]
[OGL LOG][Proc: 0]p_local_coeffs: call_update: 0 [ms]
[OGL LOG][Proc: 0]p_non_local_coeffs: call_update: 0 [ms]
[OGL LOG][Proc: 0]p: update_local_matrix_data: 17.801 [ms]
[OGL LOG][Proc: 0]p: update_non_local_matrix_data: 0.11 [ms]
[OGL LOG][Proc: 0]p: regenerate_distributed_matrix: 63.938 [ms]
[OGL LOG][Proc: 0]p_matrix: call_update: 64.712 [ms]
[OGL LOG][Proc: 0]p_rhs: call_update: 3.353 [ms]
[OGL LOG][Proc: 0]p: init_precond: 0.063 [ms]
[OGL LOG][StoppingCriterion.H:237] Creating stopping criterion with minIter 898 frequency 17
[OGL LOG][Proc: 0]p: generate_solver: 0.004 [ms]
[OGL LOG][Proc: 0]p: solve: 1158.64 [ms]
[OGL LOG][Proc: 0]p: copy_x_back: 2.75 [ms]
[OGL LOG][lduLduBase.H:330] 
Statistics:
	Time per iteration: 782 [mu s]
	Time per residual norm calculation: 271.000000 [mu s]
	Time per iteration and DOF: 0.097750 [ns]
	Retrieve results bandwidth 2.909000 [GByte/s]
[OGL LOG][Proc: 0]p: solve_multi_gpu: 1234.59 [ms]
nonehipGKOCG:  Solving for p, Initial residual = 0.309661, Final residual = 9.72048e-05, No Iterations 1480
[INFO] SolveP: 1256.88 [ms]
time step continuity errors : sum local = 4.59224e-09, global = -5.02369e-21, cumulative = -4.33667e-20
[INFO] ContinuityError: 20.198 [ms]
[INFO] CorrectBoundary: 0.468 [ms]
[INFO] PISOStep: 1449.64 [ms]
[INFO] MatrixAssemblyPI: 99.414 [ms]
[INFO] AdjustPhi: 6.592 [ms]
[INFO] ConstrainPressure: 0.005 [ms]
[INFO] MatrixAssemblyPII: 29.36 [ms]
[OGL LOG][Proc: 0]: global_index_init: 0.054 [ms]
[OGL LOG][Proc: 0]p_local_coeffs: call_update: 0 [ms]
[OGL LOG][Proc: 0]p_non_local_coeffs: call_update: 0 [ms]
[OGL LOG][Proc: 0]p: update_local_matrix_data: 30.879 [ms]
[OGL LOG][Proc: 0]p: update_non_local_matrix_data: 0.12 [ms]
[OGL LOG][Proc: 0]p: regenerate_distributed_matrix: 65.605 [ms]
[OGL LOG][Proc: 0]p_matrix: call_update: 66.381 [ms]
[OGL LOG][Proc: 0]p_rhs: call_update: 1.664 [ms]
[OGL LOG][Proc: 0]p: init_precond: 0.059 [ms]
[OGL LOG][StoppingCriterion.H:237] Creating stopping criterion with minIter 888 frequency 17
[OGL LOG][Proc: 0]p: generate_solver: 0.004 [ms]
[OGL LOG][Proc: 0]p: solve: 1154.57 [ms]
[OGL LOG][Proc: 0]p: copy_x_back: 2.764 [ms]
[OGL LOG][lduLduBase.H:330] 
Statistics:
	Time per iteration: 780 [mu s]
	Time per residual norm calculation: 278.000000 [mu s]
	Time per iteration and DOF: 0.097500 [ns]
	Retrieve results bandwidth 2.894000 [GByte/s]
[OGL LOG][Proc: 0]p: solve_multi_gpu: 1227.14 [ms]
nonehipGKOCG:  Solving for p, Initial residual = 0.271454, Final residual = 9.08436e-05, No Iterations 1480
[INFO] SolveP: 1262.49 [ms]
time step continuity errors : sum local = 4.2967e-09, global = -2.17046e-21, cumulative = -4.55372e-20
[INFO] ContinuityError: 14.551 [ms]
[INFO] CorrectBoundary: 0.643 [ms]
[INFO] PISOStep: 1448.43 [ms]
[INFO] TimeStep: 3870.49 [ms]
ExecutionTime = 70.49 s  ClockTime = 59 s

Time = 0.004

Courant Number mean: 0.0559077 max: 0.485102
[INFO] MatrixAssemblyU: 77.897 [ms]
DILUPBiCGStab:  Solving for Ux, Initial residual = 0.00594764, Final residual = 9.66476e-05, No Iterations 5
DILUPBiCGStab:  Solving for Uy, Initial residual = 0.0144873, Final residual = 0.000196456, No Iterations 5
DILUPBiCGStab:  Solving for Uz, Initial residual = 0.0499167, Final residual = 0.00213913, No Iterations 5
[INFO] MomentumPredictor: 873.694 [ms]
[INFO] MatrixAssemblyPI: 101.955 [ms]
[INFO] AdjustPhi: 5.825 [ms]
[INFO] ConstrainPressure: 0.004 [ms]
[INFO] MatrixAssemblyPII: 30.072 [ms]
[OGL LOG][Proc: 0]: global_index_init: 0.055 [ms]
[OGL LOG][Proc: 0]p_local_coeffs: call_update: 0 [ms]
[OGL LOG][Proc: 0]p_non_local_coeffs: call_update: 0 [ms]
[OGL LOG][Proc: 0]p: update_local_matrix_data: 18.46 [ms]
[OGL LOG][Proc: 0]p: update_non_local_matrix_data: 0.137 [ms]
[OGL LOG][Proc: 0]p: regenerate_distributed_matrix: 59.024 [ms]
[OGL LOG][Proc: 0]p_matrix: call_update: 59.841 [ms]
[OGL LOG][Proc: 0]p_rhs: call_update: 4.364 [ms]
[OGL LOG][Proc: 0]p: init_precond: 0.059 [ms]
[OGL LOG][StoppingCriterion.H:237] Creating stopping criterion with minIter 888 frequency 17
[OGL LOG][Proc: 0]p: generate_solver: 0.004 [ms]
[OGL LOG][Proc: 0]p: solve: 1166.29 [ms]
[OGL LOG][Proc: 0]p: copy_x_back: 2.783 [ms]
[OGL LOG][lduLduBase.H:330] 
Statistics:
	Time per iteration: 788 [mu s]
	Time per residual norm calculation: 273.000000 [mu s]
	Time per iteration and DOF: 0.098500 [ns]
	Retrieve results bandwidth 2.874000 [GByte/s]
[OGL LOG][Proc: 0]p: solve_multi_gpu: 1234.72 [ms]
nonehipGKOCG:  Solving for p, Initial residual = 0.279401, Final residual = 9.38327e-05, No Iterations 1480
[INFO] SolveP: 1257.77 [ms]
time step continuity errors : sum local = 4.27342e-09, global = -2.93461e-21, cumulative = -4.84718e-20
[INFO] ContinuityError: 14.908 [ms]
[INFO] CorrectBoundary: 1.346 [ms]
[INFO] PISOStep: 1446.88 [ms]
[INFO] MatrixAssemblyPI: 99.925 [ms]
[INFO] AdjustPhi: 5.892 [ms]
[INFO] ConstrainPressure: 0.004 [ms]
[INFO] MatrixAssemblyPII: 29.51 [ms]
[OGL LOG][Proc: 0]: global_index_init: 0.168 [ms]
[OGL LOG][Proc: 0]p_local_coeffs: call_update: 0 [ms]
[OGL LOG][Proc: 0]p_non_local_coeffs: call_update: 0 [ms]
[OGL LOG][Proc: 0]p: update_local_matrix_data: 18.353 [ms]
[OGL LOG][Proc: 0]p: update_non_local_matrix_data: 0.113 [ms]
[OGL LOG][Proc: 0]p: regenerate_distributed_matrix: 60.195 [ms]
[OGL LOG][Proc: 0]p_matrix: call_update: 61.039 [ms]
[OGL LOG][Proc: 0]p_rhs: call_update: 4.869 [ms]
[OGL LOG][Proc: 0]p: init_precond: 0.059 [ms]
[OGL LOG][StoppingCriterion.H:237] Creating stopping criterion with minIter 888 frequency 17
[OGL LOG][Proc: 0]p: generate_solver: 0.004 [ms]
[OGL LOG][Proc: 0]p: solve: 1162.78 [ms]
[OGL LOG][Proc: 0]p: copy_x_back: 2.764 [ms]
[OGL LOG][lduLduBase.H:330] 
Statistics:
	Time per iteration: 785 [mu s]
	Time per residual norm calculation: 272.000000 [mu s]
	Time per iteration and DOF: 0.098125 [ns]
	Retrieve results bandwidth 2.894000 [GByte/s]
[OGL LOG][Proc: 0]p: solve_multi_gpu: 1233.24 [ms]
nonehipGKOCG:  Solving for p, Initial residual = 0.246061, Final residual = 9.16995e-05, No Iterations 1480
[INFO] SolveP: 1256.11 [ms]
time step continuity errors : sum local = 4.16265e-09, global = -3.66286e-21, cumulative = -5.21346e-20
[INFO] ContinuityError: 14.748 [ms]
[INFO] CorrectBoundary: 0.965 [ms]
[INFO] PISOStep: 1442.3 [ms]
[INFO] TimeStep: 3854.57 [ms]
ExecutionTime = 75.23 s  ClockTime = 63 s

Time = 0.00425

Courant Number mean: 0.0571444 max: 0.485457
[INFO] MatrixAssemblyU: 82.565 [ms]
DILUPBiCGStab:  Solving for Ux, Initial residual = 0.00550192, Final residual = 8.50787e-05, No Iterations 5
DILUPBiCGStab:  Solving for Uy, Initial residual = 0.0131986, Final residual = 0.000174417, No Iterations 5
DILUPBiCGStab:  Solving for Uz, Initial residual = 0.0438248, Final residual = 0.00192068, No Iterations 5
[INFO] MomentumPredictor: 875.777 [ms]
[INFO] MatrixAssemblyPI: 101.918 [ms]
[INFO] AdjustPhi: 6.484 [ms]
[INFO] ConstrainPressure: 0.005 [ms]
[INFO] MatrixAssemblyPII: 29.361 [ms]
[OGL LOG][Proc: 0]: global_index_init: 0.098 [ms]
[OGL LOG][Proc: 0]p_local_coeffs: call_update: 0 [ms]
[OGL LOG][Proc: 0]p_non_local_coeffs: call_update: 0 [ms]
[OGL LOG][Proc: 0]p: update_local_matrix_data: 19.036 [ms]
[OGL LOG][Proc: 0]p: update_non_local_matrix_data: 0.103 [ms]
[OGL LOG][Proc: 0]p: regenerate_distributed_matrix: 71.64 [ms]
[OGL LOG][Proc: 0]p_matrix: call_update: 72.441 [ms]
[OGL LOG][Proc: 0]p_rhs: call_update: 3.448 [ms]
[OGL LOG][Proc: 0]p: init_precond: 0.057 [ms]
[OGL LOG][StoppingCriterion.H:237] Creating stopping criterion with minIter 888 frequency 17
[OGL LOG][Proc: 0]p: generate_solver: 0.004 [ms]
[OGL LOG][Proc: 0]p: solve: 1174.54 [ms]
[OGL LOG][Proc: 0]p: copy_x_back: 2.689 [ms]
[OGL LOG][lduLduBase.H:330] 
Statistics:
	Time per iteration: 793 [mu s]
	Time per residual norm calculation: 280.000000 [mu s]
	Time per iteration and DOF: 0.099125 [ns]
	Retrieve results bandwidth 2.975000 [GByte/s]
[OGL LOG][Proc: 0]p: solve_multi_gpu: 1257.55 [ms]
nonehipGKOCG:  Solving for p, Initial residual = 0.249573, Final residual = 7.54919e-05, No Iterations 1480
[INFO] SolveP: 1281.34 [ms]
time step continuity errors : sum local = 3.36439e-09, global = -1.27311e-21, cumulative = -5.34077e-20
[INFO] ContinuityError: 15.269 [ms]
[INFO] CorrectBoundary: 0.698 [ms]
[INFO] PISOStep: 1470.21 [ms]
[INFO] MatrixAssemblyPI: 99.236 [ms]
[INFO] AdjustPhi: 6.676 [ms]
[INFO] ConstrainPressure: 0.004 [ms]
[INFO] MatrixAssemblyPII: 29.366 [ms]
[OGL LOG][Proc: 0]: global_index_init: 0.11 [ms]
[OGL LOG][Proc: 0]p_local_coeffs: call_update: 0 [ms]
[OGL LOG][Proc: 0]p_non_local_coeffs: call_update: 0 [ms]
[OGL LOG][Proc: 0]p: update_local_matrix_data: 18.485 [ms]
[OGL LOG][Proc: 0]p: update_non_local_matrix_data: 0.117 [ms]
[OGL LOG][Proc: 0]p: regenerate_distributed_matrix: 57.138 [ms]
[OGL LOG][Proc: 0]p_matrix: call_update: 57.91 [ms]
[OGL LOG][Proc: 0]p_rhs: call_update: 3.771 [ms]
[OGL LOG][Proc: 0]p: init_precond: 0.057 [ms]
[OGL LOG][StoppingCriterion.H:237] Creating stopping criterion with minIter 888 frequency 17
[OGL LOG][Proc: 0]p: generate_solver: 0.004 [ms]
[OGL LOG][Proc: 0]p: solve: 711.601 [ms]
[OGL LOG][Proc: 0]p: copy_x_back: 2.777 [ms]
[OGL LOG][lduLduBase.H:330] 
Statistics:
	Time per iteration: 788 [mu s]
	Time per residual norm calculation: 285.000000 [mu s]
	Time per iteration and DOF: 0.098500 [ns]
	Retrieve results bandwidth 2.880000 [GByte/s]
[OGL LOG][Proc: 0]p: solve_multi_gpu: 778.316 [ms]
nonehipGKOCG:  Solving for p, Initial residual = 0.218199, Final residual = 9.3246e-05, No Iterations 902
[INFO] SolveP: 801.061 [ms]
time step continuity errors : sum local = 4.29077e-09, global = -5.27991e-21, cumulative = -5.86876e-20
[INFO] ContinuityError: 14.743 [ms]
[INFO] CorrectBoundary: 0.902 [ms]
[INFO] PISOStep: 986.923 [ms]
[INFO] TimeStep: 3429.07 [ms]
ExecutionTime = 79.36 s  ClockTime = 66 s

Time = 0.0045

Courant Number mean: 0.0583118 max: 0.485831
[INFO] MatrixAssemblyU: 78.58 [ms]
DILUPBiCGStab:  Solving for Ux, Initial residual = 0.00511543, Final residual = 7.58675e-05, No Iterations 5
DILUPBiCGStab:  Solving for Uy, Initial residual = 0.0122341, Final residual = 0.000149677, No Iterations 5
DILUPBiCGStab:  Solving for Uz, Initial residual = 0.0395711, Final residual = 0.00168963, No Iterations 5
[INFO] MomentumPredictor: 876.175 [ms]
[INFO] MatrixAssemblyPI: 101.518 [ms]
[INFO] AdjustPhi: 8.084 [ms]
[INFO] ConstrainPressure: 0.004 [ms]
[INFO] MatrixAssemblyPII: 29.631 [ms]
[OGL LOG][Proc: 0]: global_index_init: 0.111 [ms]
[OGL LOG][Proc: 0]p_local_coeffs: call_update: 0 [ms]
[OGL LOG][Proc: 0]p_non_local_coeffs: call_update: 0 [ms]
[OGL LOG][Proc: 0]p: update_local_matrix_data: 18.409 [ms]
[OGL LOG][Proc: 0]p: update_non_local_matrix_data: 0.122 [ms]
[OGL LOG][Proc: 0]p: regenerate_distributed_matrix: 58.299 [ms]
[OGL LOG][Proc: 0]p_matrix: call_update: 59.125 [ms]
[OGL LOG][Proc: 0]p_rhs: call_update: 4.054 [ms]
[OGL LOG][Proc: 0]p: init_precond: 0.057 [ms]
[OGL LOG][StoppingCriterion.H:237] Creating stopping criterion with minIter 541 frequency 13
[OGL LOG][Proc: 0]p: generate_solver: 0.004 [ms]
[OGL LOG][Proc: 0]p: solve: 1159.49 [ms]
[OGL LOG][Proc: 0]p: copy_x_back: 2.72 [ms]
[OGL LOG][lduLduBase.H:330] 
Statistics:
	Time per iteration: 781 [mu s]
	Time per residual norm calculation: 276.000000 [mu s]
	Time per iteration and DOF: 0.097625 [ns]
	Retrieve results bandwidth 2.941000 [GByte/s]
[OGL LOG][Proc: 0]p: solve_multi_gpu: 1227.41 [ms]
nonehipGKOCG:  Solving for p, Initial residual = 0.226451, Final residual = 7.07949e-05, No Iterations 1483
[INFO] SolveP: 1250.38 [ms]
time step continuity errors : sum local = 3.0401e-09, global = -3.4969e-21, cumulative = -6.21846e-20
[INFO] ContinuityError: 14.44 [ms]
[INFO] CorrectBoundary: 0.919 [ms]
[INFO] PISOStep: 1440.13 [ms]
[INFO] MatrixAssemblyPI: 100.361 [ms]
[INFO] AdjustPhi: 5.617 [ms]
[INFO] ConstrainPressure: 0.005 [ms]
[INFO] MatrixAssemblyPII: 29.6 [ms]
[OGL LOG][Proc: 0]: global_index_init: 0.069 [ms]
[OGL LOG][Proc: 0]p_local_coeffs: call_update: 0 [ms]
[OGL LOG][Proc: 0]p_non_local_coeffs: call_update: 0 [ms]
[OGL LOG][Proc: 0]p: update_local_matrix_data: 17.473 [ms]
[OGL LOG][Proc: 0]p: update_non_local_matrix_data: 0.12 [ms]
[OGL LOG][Proc: 0]p: regenerate_distributed_matrix: 56.369 [ms]
[OGL LOG][Proc: 0]p_matrix: call_update: 57.182 [ms]
[OGL LOG][Proc: 0]p_rhs: call_update: 4.143 [ms]
[OGL LOG][Proc: 0]p: init_precond: 0.067 [ms]
[OGL LOG][StoppingCriterion.H:237] Creating stopping criterion with minIter 889 frequency 17
[OGL LOG][Proc: 0]p: generate_solver: 0.004 [ms]
[OGL LOG][Proc: 0]p: solve: 1150.42 [ms]
[OGL LOG][Proc: 0]p: copy_x_back: 2.767 [ms]
[OGL LOG][lduLduBase.H:330] 
Statistics:
	Time per iteration: 777 [mu s]
	Time per residual norm calculation: 327.000000 [mu s]
	Time per iteration and DOF: 0.097125 [ns]
	Retrieve results bandwidth 2.891000 [GByte/s]
[OGL LOG][Proc: 0]p: solve_multi_gpu: 1216.91 [ms]
nonehipGKOCG:  Solving for p, Initial residual = 0.198774, Final residual = 7.59596e-05, No Iterations 1480
[INFO] SolveP: 1238.86 [ms]
time step continuity errors : sum local = 3.25398e-09, global = -3.67851e-21, cumulative = -6.58631e-20
[INFO] ContinuityError: 15.433 [ms]
[INFO] CorrectBoundary: 0.497 [ms]
[INFO] PISOStep: 1425.17 [ms]
[INFO] TimeStep: 3833.4 [ms]
ExecutionTime = 84.09 s  ClockTime = 70 s

Time = 0.00475

Courant Number mean: 0.0594174 max: 0.486127
[INFO] MatrixAssemblyU: 77.691 [ms]
DILUPBiCGStab:  Solving for Ux, Initial residual = 0.0047642, Final residual = 6.72733e-05, No Iterations 5
DILUPBiCGStab:  Solving for Uy, Initial residual = 0.0112885, Final residual = 0.000137533, No Iterations 5
DILUPBiCGStab:  Solving for Uz, Initial residual = 0.0350759, Final residual = 0.00147482, No Iterations 5
[INFO] MomentumPredictor: 876.142 [ms]
[INFO] MatrixAssemblyPI: 101.43 [ms]
[INFO] AdjustPhi: 7.099 [ms]
[INFO] ConstrainPressure: 0.005 [ms]
[INFO] MatrixAssemblyPII: 29.33 [ms]
[OGL LOG][Proc: 0]: global_index_init: 0.143 [ms]
[OGL LOG][Proc: 0]p_local_coeffs: call_update: 0 [ms]
[OGL LOG][Proc: 0]p_non_local_coeffs: call_update: 0 [ms]
[OGL LOG][Proc: 0]p: update_local_matrix_data: 17.144 [ms]
[OGL LOG][Proc: 0]p: update_non_local_matrix_data: 0.139 [ms]
[OGL LOG][Proc: 0]p: regenerate_distributed_matrix: 71.445 [ms]
[OGL LOG][Proc: 0]p_matrix: call_update: 72.225 [ms]
[OGL LOG][Proc: 0]p_rhs: call_update: 8.24 [ms]
[OGL LOG][Proc: 0]p: init_precond: 0.056 [ms]
[OGL LOG][StoppingCriterion.H:237] Creating stopping criterion with minIter 888 frequency 17
[OGL LOG][Proc: 0]p: generate_solver: 0.004 [ms]
[OGL LOG][Proc: 0]p: solve: 1161.09 [ms]
[OGL LOG][Proc: 0]p: copy_x_back: 2.874 [ms]
[OGL LOG][lduLduBase.H:330] 
Statistics:
	Time per iteration: 784 [mu s]
	Time per residual norm calculation: 277.000000 [mu s]
	Time per iteration and DOF: 0.098000 [ns]
	Retrieve results bandwidth 2.783000 [GByte/s]
[OGL LOG][Proc: 0]p: solve_multi_gpu: 1250.13 [ms]
nonehipGKOCG:  Solving for p, Initial residual = 0.200813, Final residual = 6.66883e-05, No Iterations 1480
[INFO] SolveP: 1271.67 [ms]
time step continuity errors : sum local = 2.83688e-09, global = -5.29222e-21, cumulative = -7.11553e-20
[INFO] ContinuityError: 14.877 [ms]
[INFO] CorrectBoundary: 0.466 [ms]
[INFO] PISOStep: 1460.52 [ms]
[INFO] MatrixAssemblyPI: 99.152 [ms]
[INFO] AdjustPhi: 8.181 [ms]
[INFO] ConstrainPressure: 0.004 [ms]
[INFO] MatrixAssemblyPII: 29.548 [ms]
[OGL LOG][Proc: 0]: global_index_init: 0.144 [ms]
[OGL LOG][Proc: 0]p_local_coeffs: call_update: 0 [ms]
[OGL LOG][Proc: 0]p_non_local_coeffs: call_update: 0 [ms]
[OGL LOG][Proc: 0]p: update_local_matrix_data: 17.747 [ms]
[OGL LOG][Proc: 0]p: update_non_local_matrix_data: 0.111 [ms]
[OGL LOG][Proc: 0]p: regenerate_distributed_matrix: 58.907 [ms]
[OGL LOG][Proc: 0]p_matrix: call_update: 59.678 [ms]
[OGL LOG][Proc: 0]p_rhs: call_update: 4.123 [ms]
[OGL LOG][Proc: 0]p: init_precond: 0.057 [ms]
[OGL LOG][StoppingCriterion.H:237] Creating stopping criterion with minIter 888 frequency 17
[OGL LOG][Proc: 0]p: generate_solver: 0.004 [ms]
[OGL LOG][Proc: 0]p: solve: 1153.43 [ms]
[OGL LOG][Proc: 0]p: copy_x_back: 2.746 [ms]
[OGL LOG][lduLduBase.H:330] 
Statistics:
	Time per iteration: 779 [mu s]
	Time per residual norm calculation: 319.000000 [mu s]
	Time per iteration and DOF: 0.097375 [ns]
	Retrieve results bandwidth 2.913000 [GByte/s]
[OGL LOG][Proc: 0]p: solve_multi_gpu: 1222.05 [ms]
nonehipGKOCG:  Solving for p, Initial residual = 0.17518, Final residual = 6.37418e-05, No Iterations 1480
[INFO] SolveP: 1244.4 [ms]
time step continuity errors : sum local = 2.71277e-09, global = -3.94925e-21, cumulative = -7.51045e-20
[INFO] ContinuityError: 14.229 [ms]
[INFO] CorrectBoundary: 0.407 [ms]
[INFO] PISOStep: 1432.45 [ms]
[INFO] TimeStep: 3860.68 [ms]
ExecutionTime = 88.83 s  ClockTime = 74 s

Time = 0.005

Courant Number mean: 0.0604662 max: 0.486433
[INFO] MatrixAssemblyU: 79.311 [ms]
DILUPBiCGStab:  Solving for Ux, Initial residual = 0.00446144, Final residual = 6.06025e-05, No Iterations 5
DILUPBiCGStab:  Solving for Uy, Initial residual = 0.0105519, Final residual = 0.000120779, No Iterations 5
DILUPBiCGStab:  Solving for Uz, Initial residual = 0.0318889, Final residual = 0.00128487, No Iterations 5
[INFO] MomentumPredictor: 870.731 [ms]
[INFO] MatrixAssemblyPI: 102.113 [ms]
[INFO] AdjustPhi: 6.795 [ms]
[INFO] ConstrainPressure: 0.004 [ms]
[INFO] MatrixAssemblyPII: 29.33 [ms]
[OGL LOG][Proc: 0]: global_index_init: 0.09 [ms]
[OGL LOG][Proc: 0]p_local_coeffs: call_update: 0 [ms]
[OGL LOG][Proc: 0]p_non_local_coeffs: call_update: 0 [ms]
[OGL LOG][Proc: 0]p: update_local_matrix_data: 18.687 [ms]
[OGL LOG][Proc: 0]p: update_non_local_matrix_data: 0.11 [ms]
[OGL LOG][Proc: 0]p: regenerate_distributed_matrix: 56.714 [ms]
[OGL LOG][Proc: 0]p_matrix: call_update: 57.469 [ms]
[OGL LOG][Proc: 0]p_rhs: call_update: 3.953 [ms]
[OGL LOG][Proc: 0]p: init_precond: 0.065 [ms]
[OGL LOG][StoppingCriterion.H:237] Creating stopping criterion with minIter 888 frequency 17
[OGL LOG][Proc: 0]p: generate_solver: 0.004 [ms]
[OGL LOG][Proc: 0]p: solve: 1153.77 [ms]
[OGL LOG][Proc: 0]p: copy_x_back: 2.816 [ms]
[OGL LOG][lduLduBase.H:330] 
Statistics:
	Time per iteration: 779 [mu s]
	Time per residual norm calculation: 277.000000 [mu s]
	Time per iteration and DOF: 0.097375 [ns]
	Retrieve results bandwidth 2.840000 [GByte/s]
[OGL LOG][Proc: 0]p: solve_multi_gpu: 1219.71 [ms]
nonehipGKOCG:  Solving for p, Initial residual = 0.182386, Final residual = 5.84626e-05, No Iterations 1480
[INFO] SolveP: 1242.8 [ms]
time step continuity errors : sum local = 2.40222e-09, global = -2.5224e-21, cumulative = -7.76269e-20
[INFO] ContinuityError: 13.782 [ms]
[INFO] CorrectBoundary: 0.411 [ms]
[INFO] PISOStep: 1431.7 [ms]
[INFO] MatrixAssemblyPI: 99.895 [ms]
[INFO] AdjustPhi: 7.553 [ms]
[INFO] ConstrainPressure: 0.004 [ms]
[INFO] MatrixAssemblyPII: 29.344 [ms]
[OGL LOG][Proc: 0]: global_index_init: 0.12 [ms]
[OGL LOG][Proc: 0]p_local_coeffs: call_update: 0 [ms]
[OGL LOG][Proc: 0]p_non_local_coeffs: call_update: 0 [ms]
[OGL LOG][Proc: 0]p: update_local_matrix_data: 17.99 [ms]
[OGL LOG][Proc: 0]p: update_non_local_matrix_data: 0.132 [ms]
[OGL LOG][Proc: 0]p: regenerate_distributed_matrix: 56.568 [ms]
[OGL LOG][Proc: 0]p_matrix: call_update: 57.352 [ms]
[OGL LOG][Proc: 0]p_rhs: call_update: 3.68 [ms]
[OGL LOG][Proc: 0]p: init_precond: 0.057 [ms]
[OGL LOG][StoppingCriterion.H:237] Creating stopping criterion with minIter 888 frequency 17
[OGL LOG][Proc: 0]p: generate_solver: 0.004 [ms]
[OGL LOG][Proc: 0]p: solve: 1161.7 [ms]
[OGL LOG][Proc: 0]p: copy_x_back: 2.963 [ms]
[OGL LOG][lduLduBase.H:330] 
Statistics:
	Time per iteration: 784 [mu s]
	Time per residual norm calculation: 279.000000 [mu s]
	Time per iteration and DOF: 0.098000 [ns]
	Retrieve results bandwidth 2.699000 [GByte/s]
[OGL LOG][Proc: 0]p: solve_multi_gpu: 1230.24 [ms]
nonehipGKOCG:  Solving for p, Initial residual = 0.159749, Final residual = 5.83945e-05, No Iterations 1480
[INFO] SolveP: 1252.23 [ms]
time step continuity errors : sum local = 2.39528e-09, global = -3.20749e-21, cumulative = -8.08344e-20
[INFO] ContinuityError: 20.722 [ms]
[INFO] CorrectBoundary: 0.501 [ms]
[INFO] PISOStep: 1445.99 [ms]
[INFO] TimeStep: 3840.93 [ms]
ExecutionTime = 93.56 s  ClockTime = 78 s

End

Finalising parallel run
