/*---------------------------------------------------------------------------*\
| =========                 |                                                 |
| \\      /  F ield         | OpenFOAM: The Open Source CFD Toolbox           |
|  \\    /   O peration     | Version:  2306                                  |
|   \\  /    A nd           | Website:  www.openfoam.com                      |
|    \\/     M anipulation  |                                                 |
\*---------------------------------------------------------------------------*/
Build  : c423ebec-20231012 OPENFOAM=2306 version=v2306
Arch   : "LSB;label=32;scalar=64"
Exec   : decomposePar -force
Date   : Dec 29 2023
Time   : 21:38:29
Host   : hkn0827.localdomain
PID    : 2449598
--> FOAM Warning : 
    From Foam::fileName Foam::cwd_L()
    in file POSIX.C at line 552
    PWD is not the cwd() - reverting to physical description
I/O    : uncollated
--> FOAM Warning : 
    From Foam::fileName Foam::cwd_L()
    in file POSIX.C at line 552
    PWD is not the cwd() - reverting to physical description
Case   : /hkfs/work/workspace/scratch/eq4036-l3d/workspace/c6451bb0944f454853584ed6ab100b63/case
nProcs : 1
trapFpe: Floating point exception trapping enabled (FOAM_SIGFPE).
fileModificationChecking : Monitoring run-time modified files using timeStampMaster (fileModificationSkew 5, maxFileModificationPolls 20)
allowSystemOperations : Allowing user-supplied system call operations

// * * * * * * * * * * * * * * * * * * * * * * * * * * * * * * * * * * * * * //
Create time

--> FOAM Warning : 
    From void* Foam::dlLibraryTable::openLibrary(const Foam::fileName&, bool)
    in file db/dynamicLibrary/dlLibraryTable/dlLibraryTable.C at line 188
    Could not load "libpetscFoam.so"
libpetscFoam.so: cannot open shared object file: No such file or directory


Decomposing mesh

Create mesh

Calculating distribution of cells
Decomposition method simple [8] (region region0)

Finished decomposition in 49.42 s

Calculating original mesh data

Distributing cells to processors

Distributing faces to processors

Distributing points to processors

Constructing processor meshes

Processor 0
    Number of cells = 8000000
    Number of points = 8140701
    Number of faces shared with processor 1 = 80000
    Number of faces shared with processor 4 = 40000
    Number of processor patches = 2
    Number of processor faces = 120000
    Number of boundary faces = 160000

Processor 1
    Number of cells = 8000000
    Number of points = 8140701
    Number of faces shared with processor 0 = 80000
    Number of faces shared with processor 2 = 80000
    Number of faces shared with processor 5 = 40000
    Number of processor patches = 3
    Number of processor faces = 200000
    Number of boundary faces = 80000

Processor 2
    Number of cells = 8000000
    Number of points = 8140701
    Number of faces shared with processor 1 = 80000
    Number of faces shared with processor 3 = 80000
    Number of faces shared with processor 6 = 40000
    Number of processor patches = 3
    Number of processor faces = 200000
    Number of boundary faces = 80000

Processor 3
    Number of cells = 8000000
    Number of points = 8140701
    Number of faces shared with processor 2 = 80000
    Number of faces shared with processor 7 = 40000
    Number of processor patches = 2
    Number of processor faces = 120000
    Number of boundary faces = 160000

Processor 4
    Number of cells = 8000000
    Number of points = 8140701
    Number of faces shared with processor 0 = 40000
    Number of faces shared with processor 5 = 80000
    Number of processor patches = 2
    Number of processor faces = 120000
    Number of boundary faces = 160000

Processor 5
    Number of cells = 8000000
    Number of points = 8140701
    Number of faces shared with processor 1 = 40000
    Number of faces shared with processor 4 = 80000
    Number of faces shared with processor 6 = 80000
    Number of processor patches = 3
    Number of processor faces = 200000
    Number of boundary faces = 80000

Processor 6
    Number of cells = 8000000
    Number of points = 8140701
    Number of faces shared with processor 2 = 40000
    Number of faces shared with processor 5 = 80000
    Number of faces shared with processor 7 = 80000
    Number of processor patches = 3
    Number of processor faces = 200000
    Number of boundary faces = 80000

Processor 7
    Number of cells = 8000000
    Number of points = 8140701
    Number of faces shared with processor 3 = 40000
    Number of faces shared with processor 6 = 80000
    Number of processor patches = 2
    Number of processor faces = 120000
    Number of boundary faces = 160000

Number of processor faces = 640000
Max number of cells = 8000000 (0% above average 8e+06)
Max number of processor patches = 3 (20% above average 2.5)
Max number of faces between processors = 200000 (25% above average 160000)

Time = 0

Processor 0: field transfer
--> FOAM Warning : 
    From void* Foam::dlLibraryTable::openLibrary(const Foam::fileName&, bool)
    in file db/dynamicLibrary/dlLibraryTable/dlLibraryTable.C at line 188
    Could not load "libpetscFoam.so"
libpetscFoam.so: cannot open shared object file: No such file or directory
Processor 1: field transfer
--> FOAM Warning : 
    From void* Foam::dlLibraryTable::openLibrary(const Foam::fileName&, bool)
    in file db/dynamicLibrary/dlLibraryTable/dlLibraryTable.C at line 188
    Could not load "libpetscFoam.so"
libpetscFoam.so: cannot open shared object file: No such file or directory
Processor 2: field transfer
--> FOAM Warning : 
    From void* Foam::dlLibraryTable::openLibrary(const Foam::fileName&, bool)
    in file db/dynamicLibrary/dlLibraryTable/dlLibraryTable.C at line 188
    Could not load "libpetscFoam.so"
libpetscFoam.so: cannot open shared object file: No such file or directory
Processor 3: field transfer
--> FOAM Warning : 
    From void* Foam::dlLibraryTable::openLibrary(const Foam::fileName&, bool)
    in file db/dynamicLibrary/dlLibraryTable/dlLibraryTable.C at line 188
    Could not load "libpetscFoam.so"
libpetscFoam.so: cannot open shared object file: No such file or directory
Processor 4: field transfer
--> FOAM Warning : 
    From void* Foam::dlLibraryTable::openLibrary(const Foam::fileName&, bool)
    in file db/dynamicLibrary/dlLibraryTable/dlLibraryTable.C at line 188
    Could not load "libpetscFoam.so"
libpetscFoam.so: cannot open shared object file: No such file or directory
Processor 5: field transfer
--> FOAM Warning : 
    From void* Foam::dlLibraryTable::openLibrary(const Foam::fileName&, bool)
    in file db/dynamicLibrary/dlLibraryTable/dlLibraryTable.C at line 188
    Could not load "libpetscFoam.so"
libpetscFoam.so: cannot open shared object file: No such file or directory
Processor 6: field transfer
--> FOAM Warning : 
    From void* Foam::dlLibraryTable::openLibrary(const Foam::fileName&, bool)
    in file db/dynamicLibrary/dlLibraryTable/dlLibraryTable.C at line 188
    Could not load "libpetscFoam.so"
libpetscFoam.so: cannot open shared object file: No such file or directory
Processor 7: field transfer
--> FOAM Warning : 
    From void* Foam::dlLibraryTable::openLibrary(const Foam::fileName&, bool)
    in file db/dynamicLibrary/dlLibraryTable/dlLibraryTable.C at line 188
    Could not load "libpetscFoam.so"
libpetscFoam.so: cannot open shared object file: No such file or directory

End

