/*---------------------------------------------------------------------------*\
| =========                 |                                                 |
| \\      /  F ield         | OpenFOAM: The Open Source CFD Toolbox           |
|  \\    /   O peration     | Version:  2306                                  |
|   \\  /    A nd           | Website:  www.openfoam.com                      |
|    \\/     M anipulation  |                                                 |
\*---------------------------------------------------------------------------*/
Build  : a6e826bd55-20230630 OPENFOAM=2306 version=v2306
Arch   : "LSB;label=32;scalar=64"
Exec   : simpleFoam -parallel -case /home/greole/data/code/exasim_project/micro_benchmarks/WindsorBody/workspace/556172fb146d1d01e0b2f0cd9d45cb02/case
Date   : Aug 27 2023
Time   : 08:24:21
Host   : nla-gpu2.ianm.kit.edu
PID    : 3050641
I/O    : uncollated
Case   : /home/greole/data/code/exasim_project/micro_benchmarks/WindsorBody/workspace/556172fb146d1d01e0b2f0cd9d45cb02/case
nProcs : 32
Hosts  :
(
    (nla-gpu2.ianm.kit.edu 32)
)
Pstream initialized with:
    floatTransfer      : false
    nProcsSimpleSum    : 0
    nonBlockingExchange: 0 (tuning: 0)
    exchange algorithm : -1
    commsType          : nonBlocking
    polling iterations : 0
trapFpe: Floating point exception trapping enabled (FOAM_SIGFPE).
fileModificationChecking : Monitoring run-time modified files using timeStampMaster (fileModificationSkew 5, maxFileModificationPolls 20)
allowSystemOperations : Allowing user-supplied system call operations

// * * * * * * * * * * * * * * * * * * * * * * * * * * * * * * * * * * * * * //
Create time

--> FOAM Warning : 
    From void* Foam::dlLibraryTable::openLibrary(const Foam::fileName&, bool)
    in file db/dynamicLibrary/dlLibraryTable/dlLibraryTable.C at line 188
    Could not load "libpetscFoam.so"
libpetscFoam.so: cannot open shared object file: No such file or directory
Create mesh for time = 0


SIMPLE: convergence criteria
    field p	 tolerance 1e-08
    field U	 tolerance 1e-08
    field k	 tolerance 1e-08
    field omega	 tolerance 1e-08
    field nuTilda	 tolerance 1e-08

Reading field p

Reading field U

Reading/calculating face flux field phi

Selecting incompressible transport model Newtonian
Selecting turbulence model type RAS
Selecting RAS turbulence model SpalartAllmaras
Selecting patchDistMethod meshWave
ft2 term: inactive
RAS
{
    RASModel        SpalartAllmaras;
    turbulence      on;
    printCoeffs     on;
    sigmaNut        0.66666;
    kappa           0.41;
    Cb1             0.1355;
    Cb2             0.622;
    Cw2             0.3;
    Cw3             2;
    Cv1             7.1;
    Cs              0.3;
    ck              0.07000000000000001;
    ft2             false;
    Ct3             1.2;
    Ct4             0.5;
}

No MRF models present

Creating finite volume options from "system/fvOptions"

Selecting finite volume options type velocityDampingConstraint
    Source: velocityDamping
    - selecting all cells
    - selected 12614272 cell(s) with volume 55.65166103217553

Starting time loop

--> FOAM Warning : 
    From bool Foam::functionObjectList::read()
    in file db/functionObjects/functionObjectList/functionObjectList.C at line 1035
    Reading "system/controlDict" at line 2 to 41
    Entry 'lref' is not a dictionary
--> FOAM Warning : 
    From bool Foam::functionObjectList::read()
    in file db/functionObjects/functionObjectList/functionObjectList.C at line 1035
    Reading "system/controlDict" at line 2 to 41
    Entry 'Aref' is not a dictionary
--> FOAM Warning : 
    From bool Foam::functionObjectList::read()
    in file db/functionObjects/functionObjectList/functionObjectList.C at line 1035
    Reading "system/controlDict" at line 2 to 41
    Entry 'yawAngle' is not a dictionary
--> FOAM Warning : 
    From bool Foam::functionObjectList::read()
    in file db/functionObjects/functionObjectList/functionObjectList.C at line 1035
    Reading "system/controlDict" at line 2 to 41
    Entry 'lDomain' is not a dictionary
--> FOAM Warning : 
    From bool Foam::functionObjectList::read()
    in file db/functionObjects/functionObjectList/functionObjectList.C at line 1035
    Reading "system/controlDict" at line 2 to 41
    Entry 'bDomain' is not a dictionary
--> FOAM Warning : 
    From bool Foam::functionObjectList::read()
    in file db/functionObjects/functionObjectList/functionObjectList.C at line 1035
    Reading "system/controlDict" at line 2 to 41
    Entry 'hDomain' is not a dictionary
--> FOAM Warning : 
    From bool Foam::functionObjectList::read()
    in file db/functionObjects/functionObjectList/functionObjectList.C at line 1035
    Reading "system/controlDict" at line 2 to 41
    Entry 'xCenter' is not a dictionary
--> FOAM Warning : 
    From bool Foam::functionObjectList::read()
    in file db/functionObjects/functionObjectList/functionObjectList.C at line 1035
    Reading "system/controlDict" at line 2 to 41
    Entry 'yCenter' is not a dictionary
--> FOAM Warning : 
    From bool Foam::functionObjectList::read()
    in file db/functionObjects/functionObjectList/functionObjectList.C at line 1035
    Reading "system/controlDict" at line 2 to 41
    Entry 'zCenter' is not a dictionary
--> FOAM Warning : 
    From bool Foam::functionObjectList::read()
    in file db/functionObjects/functionObjectList/functionObjectList.C at line 1035
    Reading "system/controlDict" at line 2 to 41
    Entry 'inletPatch' is not a dictionary
--> FOAM Warning : 
    From bool Foam::functionObjectList::read()
    in file db/functionObjects/functionObjectList/functionObjectList.C at line 1035
    Reading "system/controlDict" at line 2 to 41
    Entry 'outletPatch' is not a dictionary
--> FOAM Warning : 
    From bool Foam::functionObjectList::read()
    in file db/functionObjects/functionObjectList/functionObjectList.C at line 1035
    Reading "system/controlDict" at line 2 to 41
    Entry 'wallPatches' is not a dictionary
--> FOAM Warning : 
    From bool Foam::functionObjectList::read()
    in file db/functionObjects/functionObjectList/functionObjectList.C at line 1035
    Reading "system/controlDict" at line 2 to 41
    Entry 'forcesWallPatches' is not a dictionary
--> FOAM Warning : 
    From bool Foam::functionObjectList::read()
    in file db/functionObjects/functionObjectList/functionObjectList.C at line 1035
    Reading "system/controlDict" at line 2 to 41
    Entry 'symmPatches' is not a dictionary
--> FOAM Warning : 
    From bool Foam::functionObjectList::read()
    in file db/functionObjects/functionObjectList/functionObjectList.C at line 1035
    Reading "system/controlDict" at line 2 to 41
    Entry 'Uinf' is not a dictionary
--> FOAM Warning : 
    From bool Foam::functionObjectList::read()
    in file db/functionObjects/functionObjectList/functionObjectList.C at line 1035
    Reading "system/controlDict" at line 2 to 41
    Entry 'UinfMag' is not a dictionary
--> FOAM Warning : 
    From bool Foam::functionObjectList::read()
    in file db/functionObjects/functionObjectList/functionObjectList.C at line 1035
    Reading "system/controlDict" at line 2 to 41
    Entry 'nu' is not a dictionary
--> FOAM Warning : 
    From bool Foam::functionObjectList::read()
    in file db/functionObjects/functionObjectList/functionObjectList.C at line 1035
    Reading "system/controlDict" at line 2 to 41
    Entry 'pref' is not a dictionary
--> FOAM Warning : 
    From bool Foam::functionObjectList::read()
    in file db/functionObjects/functionObjectList/functionObjectList.C at line 1035
    Reading "system/controlDict" at line 2 to 41
    Entry 'viscRatio' is not a dictionary
--> FOAM Warning : 
    From bool Foam::functionObjectList::read()
    in file db/functionObjects/functionObjectList/functionObjectList.C at line 1035
    Reading "system/controlDict" at line 2 to 41
    Entry 'Tu' is not a dictionary
--> FOAM Warning : 
    From bool Foam::functionObjectList::read()
    in file db/functionObjects/functionObjectList/functionObjectList.C at line 1035
    Reading "system/controlDict" at line 2 to 41
    Entry 'LESturbModel' is not a dictionary
--> FOAM Warning : 
    From bool Foam::functionObjectList::read()
    in file db/functionObjects/functionObjectList/functionObjectList.C at line 1035
    Reading "system/controlDict" at line 2 to 41
    Entry 'RASturbModel' is not a dictionary
--> FOAM Warning : 
    From bool Foam::functionObjectList::read()
    in file db/functionObjects/functionObjectList/functionObjectList.C at line 1035
    Reading "system/controlDict" at line 2 to 41
    Entry 'deltaTurb' is not a dictionary
--> FOAM Warning : 
    From bool Foam::functionObjectList::read()
    in file db/functionObjects/functionObjectList/functionObjectList.C at line 1035
    Reading "system/controlDict" at line 2 to 41
    Entry 'dt' is not a dictionary
--> FOAM Warning : 
    From bool Foam::functionObjectList::read()
    in file db/functionObjects/functionObjectList/functionObjectList.C at line 1035
    Reading "system/controlDict" at line 2 to 41
    Entry 'tAvg' is not a dictionary
--> FOAM Warning : 
    From bool Foam::functionObjectList::read()
    in file db/functionObjects/functionObjectList/functionObjectList.C at line 1035
    Reading "system/controlDict" at line 2 to 41
    Entry 'tEnd' is not a dictionary
--> FOAM Warning : 
    From bool Foam::functionObjectList::read()
    in file db/functionObjects/functionObjectList/functionObjectList.C at line 1035
    Reading "system/controlDict" at line 2 to 41
    Entry 'writeInterval_' is not a dictionary
--> FOAM Warning : 
    From bool Foam::functionObjectList::read()
    in file db/functionObjects/functionObjectList/functionObjectList.C at line 1035
    Reading "system/controlDict" at line 2 to 41
    Entry 'nCores' is not a dictionary
--> FOAM Warning : 
    From bool Foam::functionObjectList::read()
    in file db/functionObjects/functionObjectList/functionObjectList.C at line 1035
    Reading "system/controlDict" at line 2 to 41
    Entry 'interpScheme' is not a dictionary
--> FOAM Warning : 
    From bool Foam::functionObjectList::read()
    in file db/functionObjects/functionObjectList/functionObjectList.C at line 1035
    Reading "system/controlDict" at line 2 to 41
    Entry 'probeField' is not a dictionary
wallShearStress wallShearStress:
    processing wall patches: 
        Windsor_Body
        CFDWT_Floor
        Windsor_Pins
        Windsor_Base
        Windsor_Body_2
        CFDWT_Floor_2
        Windsor_Pins_2
        Windsor_Base_2

pressure calc_cp:
    Operating mode: staticCoeff
    Not including hydrostatic effects

forceCoeffs forceCoeffsAll:
    rho: rhoInf
    Freestream density (rhoInf) set to 1
    Not including porosity effects
    magUInf: 40
    lRef   : 0.6375
    Aref   : 0.1124
    rhoInf : 1
    Selecting all coefficients
    - Drag force: Cd
    - Drag force front: Cd(f)
    - Drag force rear: Cd(r)
    - Lift force: Cl
    - Lift force front: Cl(f)
    - Lift force rear: Cl(r)
    - Pitch moment: CmPitch
    - Roll moment: CmRoll
    - Yaw moment: CmYaw
    - Side force: Cs
    - Side force front: Cs(f)
    - Side force rear: Cs(r)


forceCoeffs dragCoeffBase:
    rho: rhoInf
    Freestream density (rhoInf) set to 1
    Not including porosity effects
    magUInf: 40
    lRef   : 0.6375
    Aref   : 0.1124
    rhoInf : 1
    Selecting coefficients:
    - Drag force: Cd


Time = 1

velocityDampingConstraint velocityDamping damped 0 (0%) of cells, with max limit 300
[INFO] MatrixAssemblyU: 900.1079999999999 [ms]
[OGL LOG][lduLduBase.H:119] Initialising OGL
	OGL commit:  4647ee1+
	Branch: PersistentDeviceIdGuard 
	Build type: Release
	Ginkgo version: 1.5.0 ( develop)
	Ginkgo commit: 4292ffdee
	MPI is GPU aware: 1
	Forces host buffer based communication: 0
	CPU ranks per GPU: 1
	Matrix format: Coo
	End OGL_INFO
[OGL LOG][Proc: 0]: global_index_init: 10.141 [ms]
[OGL LOG][Proc: 0]Ux_local_cols: call_init: 0.032 [ms]
[OGL LOG][Proc: 0]Ux_local_rows: call_init: 0.003 [ms]
[OGL LOG][Proc: 0]Ux_local_ldu_map: call_init: 0.002 [ms]
[OGL LOG][Proc: 0]Ux_local_coeffs: call_init: 0.005 [ms]
[OGL LOG][Proc: 0]Ux_non_local_cols: call_init: 0.003 [ms]
[OGL LOG][Proc: 0]Ux_non_local_rows: call_init: 0.003 [ms]
[OGL LOG][Proc: 0]Ux_non_local_ldu_map: call_init: 0.002 [ms]
[OGL LOG][Proc: 0]Ux_non_local_coeffs: call_init: 0.002 [ms]
[OGL LOG][Proc: 0]Ux: init_local_sparsity_pattern: 120.172 [ms]
[OGL LOG][Proc: 0]Ux: init_non_local_sparsity_pattern: 1.01 [ms]
[OGL LOG][Proc: 0]Ux: update_local_matrix_data: 18.64 [ms]
[OGL LOG][Proc: 0]Ux: update_non_local_matrix_data: 0.131 [ms]
[OGL LOG][Proc: 0]device_partition: call_init: 12.017 [ms]
[OGL LOG][Proc: 0]Ux_matrix: call_init: 118.334 [ms]
[OGL LOG][Proc: 0]Ux_rhs: call_init: 7.081 [ms]
[OGL LOG][Proc: 0]Ux_solution: call_init: 2.795 [ms]
[OGL LOG][Preconditioner.H:121] Generate preconditioner BJ MaxBlockSize 1
[OGL LOG][Proc: 0]Ux: init_precond: 7.589 [ms]
[OGL LOG][StoppingCriterion.H:373] Creating stopping criterion with minIter 0 frequency 1
[OGL LOG][Proc: 0]Ux: generate_solver: 0.018 [ms]
[OGL LOG][Proc: 0]Ux: solve: 1832.963 [ms]
[OGL LOG][Proc: 0]Ux: copy_x_back: 2.111 [ms]
[OGL LOG][lduLduBase.H:336] 
Statistics:
	Time per iteration: 76373 [mu s]
	Time per residual norm calculation: 1584.000000 [mu s]
	Time per iteration and DOF: 6.054491 [ns]
	Retrieve results bandwidth 1.795000 [GByte/s]
[OGL LOG][Proc: 0]Ux: solve_multi_gpu: 1984.243 [ms]
BJhipGKOBiCGStab:  Solving for Ux, Initial residual = 1.000000000000097, Final residual = 0.05875037930227826, No Iterations 24
[OGL LOG][lduLduBase.H:119] Initialising OGL
	OGL commit:  4647ee1+
	Branch: PersistentDeviceIdGuard 
	Build type: Release
	Ginkgo version: 1.5.0 ( develop)
	Ginkgo commit: 4292ffdee
	MPI is GPU aware: 1
	Forces host buffer based communication: 0
	CPU ranks per GPU: 1
	Matrix format: Coo
	End OGL_INFO
[OGL LOG][Proc: 0]: global_index_init: 5.555 [ms]
[OGL LOG][Proc: 0]Uy_local_cols: call_init: 0.007 [ms]
[OGL LOG][Proc: 0]Uy_local_rows: call_init: 0.003 [ms]
[OGL LOG][Proc: 0]Uy_local_ldu_map: call_init: 0.003 [ms]
[OGL LOG][Proc: 0]Uy_local_coeffs: call_init: 0.003 [ms]
[OGL LOG][Proc: 0]Uy_non_local_cols: call_init: 0.003 [ms]
[OGL LOG][Proc: 0]Uy_non_local_rows: call_init: 0.002 [ms]
[OGL LOG][Proc: 0]Uy_non_local_ldu_map: call_init: 0.002 [ms]
[OGL LOG][Proc: 0]Uy_non_local_coeffs: call_init: 0.002 [ms]
[OGL LOG][Proc: 0]Uy: init_local_sparsity_pattern: 125.68 [ms]
[OGL LOG][Proc: 0]Uy: init_non_local_sparsity_pattern: 0.915 [ms]
[OGL LOG][Proc: 0]Uy: update_local_matrix_data: 14.39 [ms]
[OGL LOG][Proc: 0]Uy: update_non_local_matrix_data: 0.116 [ms]
[OGL LOG][Proc: 0]Uy_matrix: call_init: 86.926 [ms]
[OGL LOG][Proc: 0]Uy_rhs: call_init: 7.707 [ms]
[OGL LOG][Proc: 0]Uy_solution: call_init: 1.869 [ms]
[OGL LOG][Preconditioner.H:121] Generate preconditioner BJ MaxBlockSize 1
[OGL LOG][Proc: 0]Uy: init_precond: 0.725 [ms]
[OGL LOG][StoppingCriterion.H:373] Creating stopping criterion with minIter 0 frequency 1
[OGL LOG][Proc: 0]Uy: generate_solver: 0.001 [ms]
[OGL LOG][Proc: 0]Uy: solve: 225.776 [ms]
[OGL LOG][Proc: 0]Uy: copy_x_back: 2.01 [ms]
[OGL LOG][lduLduBase.H:336] 
Statistics:
	Time per iteration: 4341 [mu s]
	Time per residual norm calculation: 326.000000 [mu s]
	Time per iteration and DOF: 0.344134 [ns]
	Retrieve results bandwidth 1.885000 [GByte/s]
[OGL LOG][Proc: 0]Uy: solve_multi_gpu: 326.147 [ms]
BJhipGKOBiCGStab:  Solving for Uy, Initial residual = 1.000000000000001, Final residual = 0.06026212192345066, No Iterations 52
[OGL LOG][lduLduBase.H:119] Initialising OGL
	OGL commit:  4647ee1+
	Branch: PersistentDeviceIdGuard 
	Build type: Release
	Ginkgo version: 1.5.0 ( develop)
	Ginkgo commit: 4292ffdee
	MPI is GPU aware: 1
	Forces host buffer based communication: 0
	CPU ranks per GPU: 1
	Matrix format: Coo
	End OGL_INFO
[OGL LOG][Proc: 0]: global_index_init: 0.977 [ms]
[OGL LOG][Proc: 0]Uz_local_cols: call_init: 0.005 [ms]
[OGL LOG][Proc: 0]Uz_local_rows: call_init: 0.002 [ms]
[OGL LOG][Proc: 0]Uz_local_ldu_map: call_init: 0.003 [ms]
[OGL LOG][Proc: 0]Uz_local_coeffs: call_init: 0.003 [ms]
[OGL LOG][Proc: 0]Uz_non_local_cols: call_init: 0.003 [ms]
[OGL LOG][Proc: 0]Uz_non_local_rows: call_init: 0.003 [ms]
[OGL LOG][Proc: 0]Uz_non_local_ldu_map: call_init: 0.002 [ms]
[OGL LOG][Proc: 0]Uz_non_local_coeffs: call_init: 0.002 [ms]
[OGL LOG][Proc: 0]Uz: init_local_sparsity_pattern: 137.487 [ms]
[OGL LOG][Proc: 0]Uz: init_non_local_sparsity_pattern: 0.9540000000000001 [ms]
[OGL LOG][Proc: 0]Uz: update_local_matrix_data: 18.987 [ms]
[OGL LOG][Proc: 0]Uz: update_non_local_matrix_data: 0.1 [ms]
[OGL LOG][Proc: 0]Uz_matrix: call_init: 73.624 [ms]
[OGL LOG][Proc: 0]Uz_rhs: call_init: 1.5 [ms]
[OGL LOG][Proc: 0]Uz_solution: call_init: 5.985 [ms]
[OGL LOG][Preconditioner.H:121] Generate preconditioner BJ MaxBlockSize 1
[OGL LOG][Proc: 0]Uz: init_precond: 0.716 [ms]
[OGL LOG][StoppingCriterion.H:373] Creating stopping criterion with minIter 0 frequency 1
[OGL LOG][Proc: 0]Uz: generate_solver: 0.001 [ms]
[OGL LOG][Proc: 0]Uz: solve: 60.257 [ms]
[OGL LOG][Proc: 0]Uz: copy_x_back: 2.04 [ms]
[OGL LOG][lduLduBase.H:336] 
Statistics:
	Time per iteration: 60257 [mu s]
	Time per residual norm calculation: 332.000000 [mu s]
	Time per iteration and DOF: 4.776891 [ns]
	Retrieve results bandwidth 1.858000 [GByte/s]
[OGL LOG][Proc: 0]Uz: solve_multi_gpu: 145.241 [ms]
BJhipGKOBiCGStab:  Solving for Uz, Initial residual = 1.000000000000022, Final residual = 0.09952964467305665, No Iterations 1
[INFO] MomentumPredictor: 3341.083 [ms]
[INFO] MatrixAssemblyPI: 157.247 [ms]
[INFO] MatrixAssemblyPII: 75.901 [ms]
DICPCG:  Solving for p, Initial residual = 1, Final residual = 0.009845709712881437, No Iterations 422
[INFO] SolveP: 8289.298000000001 [ms]
time step continuity errors : sum local = 0.003613605138319555, global = 7.876140484953332e-05, cumulative = 7.876140484953332e-05
[INFO] postSolveP: 39.308 [ms]
[OGL LOG][lduLduBase.H:119] Initialising OGL
	OGL commit:  4647ee1+
	Branch: PersistentDeviceIdGuard 
	Build type: Release
	Ginkgo version: 1.5.0 ( develop)
	Ginkgo commit: 4292ffdee
	MPI is GPU aware: 1
	Forces host buffer based communication: 0
	CPU ranks per GPU: 1
	Matrix format: Coo
	End OGL_INFO
[OGL LOG][Proc: 0]: global_index_init: 6.175 [ms]
[OGL LOG][Proc: 0]nuTilda_local_cols: call_init: 0.011 [ms]
[OGL LOG][Proc: 0]nuTilda_local_rows: call_init: 0.004 [ms]
[OGL LOG][Proc: 0]nuTilda_local_ldu_map: call_init: 0.003 [ms]
[OGL LOG][Proc: 0]nuTilda_local_coeffs: call_init: 0.007 [ms]
[OGL LOG][Proc: 0]nuTilda_non_local_cols: call_init: 0.005 [ms]
[OGL LOG][Proc: 0]nuTilda_non_local_rows: call_init: 0.003 [ms]
[OGL LOG][Proc: 0]nuTilda_non_local_ldu_map: call_init: 0.003 [ms]
[OGL LOG][Proc: 0]nuTilda_non_local_coeffs: call_init: 0.004 [ms]
[OGL LOG][Proc: 0]nuTilda: init_local_sparsity_pattern: 121.248 [ms]
[OGL LOG][Proc: 0]nuTilda: init_non_local_sparsity_pattern: 0.914 [ms]
[OGL LOG][Proc: 0]nuTilda: update_local_matrix_data: 24.484 [ms]
[OGL LOG][Proc: 0]nuTilda: update_non_local_matrix_data: 0.137 [ms]
[OGL LOG][Proc: 0]nuTilda_matrix: call_init: 68.96900000000001 [ms]
[OGL LOG][Proc: 0]nuTilda_rhs: call_init: 1.48 [ms]
[OGL LOG][Proc: 0]nuTilda_solution: call_init: 8.045 [ms]
[OGL LOG][Preconditioner.H:121] Generate preconditioner BJ MaxBlockSize 1
[OGL LOG][Proc: 0]nuTilda: init_precond: 0.679 [ms]
[OGL LOG][StoppingCriterion.H:373] Creating stopping criterion with minIter 0 frequency 1
[OGL LOG][Proc: 0]nuTilda: generate_solver: 0.001 [ms]
[OGL LOG][Proc: 0]nuTilda: solve: 63.542 [ms]
[OGL LOG][Proc: 0]nuTilda: copy_x_back: 2 [ms]
[OGL LOG][lduLduBase.H:336] 
Statistics:
	Time per iteration: 31771 [mu s]
	Time per residual norm calculation: 306.000000 [mu s]
	Time per iteration and DOF: 2.518655 [ns]
	Retrieve results bandwidth 1.895000 [GByte/s]
[OGL LOG][Proc: 0]nuTilda: solve_multi_gpu: 145.861 [ms]
BJhipGKOBiCGStab:  Solving for nuTilda, Initial residual = 0.9999999999971, Final residual = 0.09385860048440919, No Iterations 2
[INFO] TimeStep: 13573.162 [ms]
ExecutionTime = 25.29 s  ClockTime = 25 s

--> FOAM Warning : 
    From virtual bool Foam::functionObjects::fieldSelection::checkSelection()
    in file functionObjects/fieldSelections/fieldSelection/fieldSelection.C at line 166
    Field k not found
--> FOAM Warning : 
    From virtual bool Foam::functionObjects::fieldSelection::checkSelection()
    in file functionObjects/fieldSelections/fieldSelection/fieldSelection.C at line 166
    Field gammaInt not found
--> FOAM Warning : 
    From virtual bool Foam::functionObjects::fieldSelection::checkSelection()
    in file functionObjects/fieldSelections/fieldSelection/fieldSelection.C at line 166
    Field omega not found
--> FOAM Warning : 
    From virtual bool Foam::functionObjects::fieldSelection::checkSelection()
    in file functionObjects/fieldSelections/fieldSelection/fieldSelection.C at line 166
    Field ReThetat not found
--> FOAM Warning : 
    From virtual bool Foam::functionObjects::fieldSelection::checkSelection()
    in file functionObjects/fieldSelections/fieldSelection/fieldSelection.C at line 166
    Field epsilon not found
--> FOAM Warning : 
    From virtual bool Foam::functionObjects::solverFieldSelection::updateSelection()
    in file functionObjects/fieldSelections/solverFieldSelection/solverFieldSelection.C at line 85
    Valid solver fields are: 3(U nuTilda p)Time = 2

velocityDampingConstraint velocityDamping damped 0 (0%) of cells, with max limit 300
[INFO] MatrixAssemblyU: 838.886 [ms]
[OGL LOG][Proc: 0]: global_index_init: 0.372 [ms]
[OGL LOG][Proc: 0]Ux_local_coeffs: call_update: 0.001 [ms]
[OGL LOG][Proc: 0]Ux_non_local_coeffs: call_update: 0 [ms]
[OGL LOG][Proc: 0]Ux: update_local_matrix_data: 19.059 [ms]
[OGL LOG][Proc: 0]Ux: update_non_local_matrix_data: 0.104 [ms]
[OGL LOG][Proc: 0]Ux_matrix: call_update: 6.062 [ms]
[OGL LOG][Proc: 0]Ux_rhs: call_update: 3.136 [ms]
[OGL LOG][Preconditioner.H:121] Generate preconditioner BJ MaxBlockSize 1
[OGL LOG][Proc: 0]Ux: init_precond: 0.635 [ms]
[OGL LOG][StoppingCriterion.H:373] Creating stopping criterion with minIter 28 frequency 1
[OGL LOG][Proc: 0]Ux: generate_solver: 0 [ms]
[OGL LOG][Proc: 0]Ux: solve: 89.202 [ms]
[OGL LOG][Proc: 0]Ux: copy_x_back: 2.448 [ms]
[OGL LOG][lduLduBase.H:336] 
Statistics:
	Time per iteration: 6371 [mu s]
	Time per residual norm calculation: 314.000000 [mu s]
	Time per iteration and DOF: 0.505063 [ns]
	Retrieve results bandwidth 1.548000 [GByte/s]
[OGL LOG][Proc: 0]Ux: solve_multi_gpu: 102.584 [ms]
BJhipGKOBiCGStab:  Solving for Ux, Initial residual = 0.6035738054443289, Final residual = 0.03416860211497327, No Iterations 14
[OGL LOG][Proc: 0]: global_index_init: 0.435 [ms]
[OGL LOG][Proc: 0]Uy_local_coeffs: call_update: 0 [ms]
[OGL LOG][Proc: 0]Uy_non_local_coeffs: call_update: 0 [ms]
[OGL LOG][Proc: 0]Uy: update_local_matrix_data: 21.126 [ms]
[OGL LOG][Proc: 0]Uy: update_non_local_matrix_data: 0.08799999999999999 [ms]
[OGL LOG][Proc: 0]Uy_matrix: call_update: 3.987 [ms]
[OGL LOG][Proc: 0]Uy_rhs: call_update: 6.727 [ms]
[OGL LOG][Preconditioner.H:121] Generate preconditioner BJ MaxBlockSize 1
[OGL LOG][Proc: 0]Uy: init_precond: 0.646 [ms]
[OGL LOG][StoppingCriterion.H:373] Creating stopping criterion with minIter 62 frequency 1
[OGL LOG][Proc: 0]Uy: generate_solver: 0 [ms]
[OGL LOG][Proc: 0]Uy: solve: 122.592 [ms]
[OGL LOG][Proc: 0]Uy: copy_x_back: 2.026 [ms]
[OGL LOG][lduLduBase.H:336] 
Statistics:
	Time per iteration: 3954 [mu s]
	Time per residual norm calculation: 315.000000 [mu s]
	Time per iteration and DOF: 0.313454 [ns]
	Retrieve results bandwidth 1.870000 [GByte/s]
[OGL LOG][Proc: 0]Uy: solve_multi_gpu: 137.09 [ms]
BJhipGKOBiCGStab:  Solving for Uy, Initial residual = 0.9975184139438349, Final residual = 0.001221972234186351, No Iterations 31
[OGL LOG][Proc: 0]: global_index_init: 0.502 [ms]
[OGL LOG][Proc: 0]Uz_local_coeffs: call_update: 0 [ms]
[OGL LOG][Proc: 0]Uz_non_local_coeffs: call_update: 0 [ms]
[OGL LOG][Proc: 0]Uz: update_local_matrix_data: 22.977 [ms]
[OGL LOG][Proc: 0]Uz: update_non_local_matrix_data: 0.1 [ms]
[OGL LOG][Proc: 0]Uz_matrix: call_update: 4.919 [ms]
[OGL LOG][Proc: 0]Uz_rhs: call_update: 2.769 [ms]
[OGL LOG][Preconditioner.H:121] Generate preconditioner BJ MaxBlockSize 1
[OGL LOG][Proc: 0]Uz: init_precond: 0.587 [ms]
[OGL LOG][StoppingCriterion.H:373] Creating stopping criterion with minIter 1 frequency 1
[OGL LOG][Proc: 0]Uz: generate_solver: 0.001 [ms]
[OGL LOG][Proc: 0]Uz: solve: 82.241 [ms]
[OGL LOG][Proc: 0]Uz: copy_x_back: 2.022 [ms]
[OGL LOG][lduLduBase.H:336] 
Statistics:
	Time per iteration: 7476 [mu s]
	Time per residual norm calculation: 331.000000 [mu s]
	Time per iteration and DOF: 0.592662 [ns]
	Retrieve results bandwidth 1.874000 [GByte/s]
[OGL LOG][Proc: 0]Uz: solve_multi_gpu: 93.619 [ms]
BJhipGKOBiCGStab:  Solving for Uz, Initial residual = 0.9999617135196608, Final residual = 0.0754929744823669, No Iterations 11
[INFO] MomentumPredictor: 475.506 [ms]
[INFO] MatrixAssemblyPI: 158.671 [ms]
[INFO] MatrixAssemblyPII: 74.015 [ms]
DICPCG:  Solving for p, Initial residual = 0.2206005194193435, Final residual = 0.002182599085414941, No Iterations 342
[INFO] SolveP: 6685.354 [ms]
time step continuity errors : sum local = 0.0449859234410359, global = 0.001971689417686039, cumulative = 0.002050450822535572
[INFO] postSolveP: 41.125 [ms]
[OGL LOG][Proc: 0]: global_index_init: 0.707 [ms]
[OGL LOG][Proc: 0]nuTilda_local_coeffs: call_update: 0 [ms]
[OGL LOG][Proc: 0]nuTilda_non_local_coeffs: call_update: 0 [ms]
[OGL LOG][Proc: 0]nuTilda: update_local_matrix_data: 24.275 [ms]
[OGL LOG][Proc: 0]nuTilda: update_non_local_matrix_data: 0.092 [ms]
[OGL LOG][Proc: 0]nuTilda_matrix: call_update: 3.882 [ms]
[OGL LOG][Proc: 0]nuTilda_rhs: call_update: 4.287 [ms]
[OGL LOG][Preconditioner.H:121] Generate preconditioner BJ MaxBlockSize 1
[OGL LOG][Proc: 0]nuTilda: init_precond: 0.599 [ms]
[OGL LOG][StoppingCriterion.H:373] Creating stopping criterion with minIter 3 frequency 1
[OGL LOG][Proc: 0]nuTilda: generate_solver: 0.002 [ms]
[OGL LOG][Proc: 0]nuTilda: solve: 59.753 [ms]
[OGL LOG][Proc: 0]nuTilda: copy_x_back: 2.046 [ms]
[OGL LOG][lduLduBase.H:336] 
Statistics:
	Time per iteration: 29876 [mu s]
	Time per residual norm calculation: 325.000000 [mu s]
	Time per iteration and DOF: 2.368428 [ns]
	Retrieve results bandwidth 1.852000 [GByte/s]
[OGL LOG][Proc: 0]nuTilda: solve_multi_gpu: 71.682 [ms]
BJhipGKOBiCGStab:  Solving for nuTilda, Initial residual = 0.4032913160640771, Final residual = 0.006116050689223558, No Iterations 2
[INFO] TimeStep: 8847.298000000001 [ms]
ExecutionTime = 34.73 s  ClockTime = 35 s

Time = 3

velocityDampingConstraint velocityDamping damped 1790 (0.01%) of cells, with max limit 300
[INFO] MatrixAssemblyU: 854.659 [ms]
[OGL LOG][Proc: 0]: global_index_init: 0.208 [ms]
[OGL LOG][Proc: 0]Ux_local_coeffs: call_update: 0 [ms]
[OGL LOG][Proc: 0]Ux_non_local_coeffs: call_update: 0 [ms]
[OGL LOG][Proc: 0]Ux: update_local_matrix_data: 20.407 [ms]
[OGL LOG][Proc: 0]Ux: update_non_local_matrix_data: 0.117 [ms]
[OGL LOG][Proc: 0]Ux_matrix: call_update: 7.485 [ms]
[OGL LOG][Proc: 0]Ux_rhs: call_update: 2.113 [ms]
[OGL LOG][Preconditioner.H:121] Generate preconditioner BJ MaxBlockSize 1
[OGL LOG][Proc: 0]Ux: init_precond: 0.578 [ms]
[OGL LOG][StoppingCriterion.H:373] Creating stopping criterion with minIter 17 frequency 1
[OGL LOG][Proc: 0]Ux: generate_solver: 0.001 [ms]
[OGL LOG][Proc: 0]Ux: solve: 83.544 [ms]
[OGL LOG][Proc: 0]Ux: copy_x_back: 1.985 [ms]
[OGL LOG][lduLduBase.H:336] 
Statistics:
	Time per iteration: 5967 [mu s]
	Time per residual norm calculation: 330.000000 [mu s]
	Time per iteration and DOF: 0.473036 [ns]
	Retrieve results bandwidth 1.909000 [GByte/s]
[OGL LOG][Proc: 0]Ux: solve_multi_gpu: 96.812 [ms]
BJhipGKOBiCGStab:  Solving for Ux, Initial residual = 0.1298533775035564, Final residual = 0.006474716273711619, No Iterations 14
[OGL LOG][Proc: 0]: global_index_init: 3.288 [ms]
[OGL LOG][Proc: 0]Uy_local_coeffs: call_update: 0 [ms]
[OGL LOG][Proc: 0]Uy_non_local_coeffs: call_update: 0 [ms]
[OGL LOG][Proc: 0]Uy: update_local_matrix_data: 20.553 [ms]
[OGL LOG][Proc: 0]Uy: update_non_local_matrix_data: 0.092 [ms]
[OGL LOG][Proc: 0]Uy_matrix: call_update: 4.626 [ms]
[OGL LOG][Proc: 0]Uy_rhs: call_update: 5.511 [ms]
[OGL LOG][Preconditioner.H:121] Generate preconditioner BJ MaxBlockSize 1
[OGL LOG][Proc: 0]Uy: init_precond: 0.646 [ms]
[OGL LOG][StoppingCriterion.H:373] Creating stopping criterion with minIter 37 frequency 1
[OGL LOG][Proc: 0]Uy: generate_solver: 0.001 [ms]
[OGL LOG][Proc: 0]Uy: solve: 86.863 [ms]
[OGL LOG][Proc: 0]Uy: copy_x_back: 2.224 [ms]
[OGL LOG][lduLduBase.H:336] 
Statistics:
	Time per iteration: 4571 [mu s]
	Time per residual norm calculation: 327.000000 [mu s]
	Time per iteration and DOF: 0.362367 [ns]
	Retrieve results bandwidth 1.704000 [GByte/s]
[OGL LOG][Proc: 0]Uy: solve_multi_gpu: 100.996 [ms]
BJhipGKOBiCGStab:  Solving for Uy, Initial residual = 0.30167390434435, Final residual = 0.01155342947861517, No Iterations 19
[OGL LOG][Proc: 0]: global_index_init: 0.164 [ms]
[OGL LOG][Proc: 0]Uz_local_coeffs: call_update: 0 [ms]
[OGL LOG][Proc: 0]Uz_non_local_coeffs: call_update: 0 [ms]
[OGL LOG][Proc: 0]Uz: update_local_matrix_data: 20.751 [ms]
[OGL LOG][Proc: 0]Uz: update_non_local_matrix_data: 0.089 [ms]
[OGL LOG][Proc: 0]Uz_matrix: call_update: 7.837 [ms]
[OGL LOG][Proc: 0]Uz_rhs: call_update: 1.778 [ms]
[OGL LOG][Preconditioner.H:121] Generate preconditioner BJ MaxBlockSize 1
[OGL LOG][Proc: 0]Uz: init_precond: 0.5730000000000001 [ms]
[OGL LOG][StoppingCriterion.H:373] Creating stopping criterion with minIter 13 frequency 1
[OGL LOG][Proc: 0]Uz: generate_solver: 0.001 [ms]
[OGL LOG][Proc: 0]Uz: solve: 79.51600000000001 [ms]
[OGL LOG][Proc: 0]Uz: copy_x_back: 2.037 [ms]
[OGL LOG][lduLduBase.H:336] 
Statistics:
	Time per iteration: 6626 [mu s]
	Time per residual norm calculation: 300.000000 [mu s]
	Time per iteration and DOF: 0.525278 [ns]
	Retrieve results bandwidth 1.860000 [GByte/s]
[OGL LOG][Proc: 0]Uz: solve_multi_gpu: 92.848 [ms]
BJhipGKOBiCGStab:  Solving for Uz, Initial residual = 0.2759263899780026, Final residual = 0.0256031340879029, No Iterations 12
[INFO] MomentumPredictor: 436.931 [ms]
[INFO] MatrixAssemblyPI: 156.706 [ms]
[INFO] MatrixAssemblyPII: 77.279 [ms]
DICPCG:  Solving for p, Initial residual = 0.1671389676257089, Final residual = 0.001642641194567993, No Iterations 312
[INFO] SolveP: 6020.634 [ms]
time step continuity errors : sum local = 0.0179845413388403, global = 0.000825036287949563, cumulative = 0.002875487110485135
[INFO] postSolveP: 39.429 [ms]
[OGL LOG][Proc: 0]: global_index_init: 3.343 [ms]
[OGL LOG][Proc: 0]nuTilda_local_coeffs: call_update: 0 [ms]
[OGL LOG][Proc: 0]nuTilda_non_local_coeffs: call_update: 0 [ms]
[OGL LOG][Proc: 0]nuTilda: update_local_matrix_data: 27.163 [ms]
[OGL LOG][Proc: 0]nuTilda: update_non_local_matrix_data: 0.111 [ms]
[OGL LOG][Proc: 0]nuTilda_matrix: call_update: 7.157 [ms]
[OGL LOG][Proc: 0]nuTilda_rhs: call_update: 0.444 [ms]
[OGL LOG][Preconditioner.H:121] Generate preconditioner BJ MaxBlockSize 1
[OGL LOG][Proc: 0]nuTilda: init_precond: 0.5670000000000001 [ms]
[OGL LOG][StoppingCriterion.H:373] Creating stopping criterion with minIter 2 frequency 1
[OGL LOG][Proc: 0]nuTilda: generate_solver: 0.001 [ms]
[OGL LOG][Proc: 0]nuTilda: solve: 44.664 [ms]
[OGL LOG][Proc: 0]nuTilda: copy_x_back: 2.023 [ms]
[OGL LOG][lduLduBase.H:336] 
Statistics:
	Time per iteration: 22332 [mu s]
	Time per residual norm calculation: 325.000000 [mu s]
	Time per iteration and DOF: 1.770376 [ns]
	Retrieve results bandwidth 1.873000 [GByte/s]
[OGL LOG][Proc: 0]nuTilda: solve_multi_gpu: 55.951 [ms]
BJhipGKOBiCGStab:  Solving for nuTilda, Initial residual = 0.1878292436588237, Final residual = 0.01360527678452299, No Iterations 2
bounding nuTilda, min: -7.197362030747433e-05 max: 0.0008848295821488101 average: 7.994092894206141e-05
[INFO] TimeStep: 8176.069 [ms]
ExecutionTime = 43.52 s  ClockTime = 44 s

Time = 4

velocityDampingConstraint velocityDamping damped 8 (0%) of cells, with max limit 300
[INFO] MatrixAssemblyU: 859.569 [ms]
[OGL LOG][Proc: 0]: global_index_init: 0.244 [ms]
[OGL LOG][Proc: 0]Ux_local_coeffs: call_update: 0 [ms]
[OGL LOG][Proc: 0]Ux_non_local_coeffs: call_update: 0 [ms]
[OGL LOG][Proc: 0]Ux: update_local_matrix_data: 19.563 [ms]
[OGL LOG][Proc: 0]Ux: update_non_local_matrix_data: 0.158 [ms]
[OGL LOG][Proc: 0]Ux_matrix: call_update: 7.951000000000001 [ms]
[OGL LOG][Proc: 0]Ux_rhs: call_update: 1.475 [ms]
[OGL LOG][Preconditioner.H:121] Generate preconditioner BJ MaxBlockSize 1
[OGL LOG][Proc: 0]Ux: init_precond: 0.585 [ms]
[OGL LOG][StoppingCriterion.H:373] Creating stopping criterion with minIter 16 frequency 1
[OGL LOG][Proc: 0]Ux: generate_solver: 0.001 [ms]
[OGL LOG][Proc: 0]Ux: solve: 81.511 [ms]
[OGL LOG][Proc: 0]Ux: copy_x_back: 1.992 [ms]
[OGL LOG][lduLduBase.H:336] 
Statistics:
	Time per iteration: 5434 [mu s]
	Time per residual norm calculation: 321.000000 [mu s]
	Time per iteration and DOF: 0.430782 [ns]
	Retrieve results bandwidth 1.902000 [GByte/s]
[OGL LOG][Proc: 0]Ux: solve_multi_gpu: 94.60300000000001 [ms]
BJhipGKOBiCGStab:  Solving for Ux, Initial residual = 0.1006056967738001, Final residual = 0.008216853367818605, No Iterations 15
[OGL LOG][Proc: 0]: global_index_init: 0.073 [ms]
[OGL LOG][Proc: 0]Uy_local_coeffs: call_update: 0 [ms]
[OGL LOG][Proc: 0]Uy_non_local_coeffs: call_update: 0 [ms]
[OGL LOG][Proc: 0]Uy: update_local_matrix_data: 21.119 [ms]
[OGL LOG][Proc: 0]Uy: update_non_local_matrix_data: 0.08700000000000001 [ms]
[OGL LOG][Proc: 0]Uy_matrix: call_update: 4.067 [ms]
[OGL LOG][Proc: 0]Uy_rhs: call_update: 5.805 [ms]
[OGL LOG][Preconditioner.H:121] Generate preconditioner BJ MaxBlockSize 1
[OGL LOG][Proc: 0]Uy: init_precond: 0.652 [ms]
[OGL LOG][StoppingCriterion.H:373] Creating stopping criterion with minIter 22 frequency 1
[OGL LOG][Proc: 0]Uy: generate_solver: 0.001 [ms]
[OGL LOG][Proc: 0]Uy: solve: 78.22200000000001 [ms]
[OGL LOG][Proc: 0]Uy: copy_x_back: 2.015 [ms]
[OGL LOG][lduLduBase.H:336] 
Statistics:
	Time per iteration: 7111 [mu s]
	Time per residual norm calculation: 316.000000 [mu s]
	Time per iteration and DOF: 0.563727 [ns]
	Retrieve results bandwidth 1.881000 [GByte/s]
[OGL LOG][Proc: 0]Uy: solve_multi_gpu: 91.854 [ms]
BJhipGKOBiCGStab:  Solving for Uy, Initial residual = 0.1590489911917584, Final residual = 0.01479302659248175, No Iterations 11
[OGL LOG][Proc: 0]: global_index_init: 0.398 [ms]
[OGL LOG][Proc: 0]Uz_local_coeffs: call_update: 0 [ms]
[OGL LOG][Proc: 0]Uz_non_local_coeffs: call_update: 0 [ms]
[OGL LOG][Proc: 0]Uz: update_local_matrix_data: 22.465 [ms]
[OGL LOG][Proc: 0]Uz: update_non_local_matrix_data: 0.093 [ms]
[OGL LOG][Proc: 0]Uz_matrix: call_update: 4.313 [ms]
[OGL LOG][Proc: 0]Uz_rhs: call_update: 5.483000000000001 [ms]
[OGL LOG][Preconditioner.H:121] Generate preconditioner BJ MaxBlockSize 1
[OGL LOG][Proc: 0]Uz: init_precond: 0.627 [ms]
[OGL LOG][StoppingCriterion.H:373] Creating stopping criterion with minIter 15 frequency 1
[OGL LOG][Proc: 0]Uz: generate_solver: 0.001 [ms]
[OGL LOG][Proc: 0]Uz: solve: 89.05 [ms]
[OGL LOG][Proc: 0]Uz: copy_x_back: 2.023 [ms]
[OGL LOG][lduLduBase.H:336] 
Statistics:
	Time per iteration: 7420 [mu s]
	Time per residual norm calculation: 322.000000 [mu s]
	Time per iteration and DOF: 0.588223 [ns]
	Retrieve results bandwidth 1.873000 [GByte/s]
[OGL LOG][Proc: 0]Uz: solve_multi_gpu: 102.593 [ms]
BJhipGKOBiCGStab:  Solving for Uz, Initial residual = 0.1663765054353123, Final residual = 0.01648895377418803, No Iterations 12
[INFO] MomentumPredictor: 430.921 [ms]
[INFO] MatrixAssemblyPI: 159.833 [ms]
[INFO] MatrixAssemblyPII: 75.78700000000001 [ms]
DICPCG:  Solving for p, Initial residual = 0.1268844530718225, Final residual = 0.001243678729668743, No Iterations 113
[INFO] SolveP: 2210.936 [ms]
time step continuity errors : sum local = 0.0151023115404425, global = -0.001338188532188598, cumulative = 0.001537298578296537
[INFO] postSolveP: 38.966 [ms]
[OGL LOG][Proc: 0]: global_index_init: 2.206 [ms]
[OGL LOG][Proc: 0]nuTilda_local_coeffs: call_update: 0 [ms]
[OGL LOG][Proc: 0]nuTilda_non_local_coeffs: call_update: 0 [ms]
[OGL LOG][Proc: 0]nuTilda: update_local_matrix_data: 21.656 [ms]
[OGL LOG][Proc: 0]nuTilda: update_non_local_matrix_data: 0.089 [ms]
[OGL LOG][Proc: 0]nuTilda_matrix: call_update: 5.305 [ms]
[OGL LOG][Proc: 0]nuTilda_rhs: call_update: 4.787 [ms]
[OGL LOG][Preconditioner.H:121] Generate preconditioner BJ MaxBlockSize 1
[OGL LOG][Proc: 0]nuTilda: init_precond: 0.539 [ms]
[OGL LOG][StoppingCriterion.H:373] Creating stopping criterion with minIter 2 frequency 1
[OGL LOG][Proc: 0]nuTilda: generate_solver: 0 [ms]
[OGL LOG][Proc: 0]nuTilda: solve: 43.224 [ms]
[OGL LOG][Proc: 0]nuTilda: copy_x_back: 2.041 [ms]
[OGL LOG][lduLduBase.H:336] 
Statistics:
	Time per iteration: 21612 [mu s]
	Time per residual norm calculation: 328.000000 [mu s]
	Time per iteration and DOF: 1.713297 [ns]
	Retrieve results bandwidth 1.857000 [GByte/s]
[OGL LOG][Proc: 0]nuTilda: solve_multi_gpu: 57.004 [ms]
BJhipGKOBiCGStab:  Solving for nuTilda, Initial residual = 0.1076518551838811, Final residual = 0.009280144540735134, No Iterations 2
bounding nuTilda, min: -2.805005322855961e-05 max: 0.001044100943029638 average: 8.507095849094595e-05
[INFO] TimeStep: 4357.091 [ms]
ExecutionTime = 48.52 s  ClockTime = 49 s

Time = 5

velocityDampingConstraint velocityDamping damped 118 (0%) of cells, with max limit 300
[INFO] MatrixAssemblyU: 860.899 [ms]
[OGL LOG][Proc: 0]: global_index_init: 0.046 [ms]
[OGL LOG][Proc: 0]Ux_local_coeffs: call_update: 0 [ms]
[OGL LOG][Proc: 0]Ux_non_local_coeffs: call_update: 0 [ms]
[OGL LOG][Proc: 0]Ux: update_local_matrix_data: 20.504 [ms]
[OGL LOG][Proc: 0]Ux: update_non_local_matrix_data: 0.128 [ms]
[OGL LOG][Proc: 0]Ux_matrix: call_update: 7.407 [ms]
[OGL LOG][Proc: 0]Ux_rhs: call_update: 2.109 [ms]
[OGL LOG][Preconditioner.H:121] Generate preconditioner BJ MaxBlockSize 1
[OGL LOG][Proc: 0]Ux: init_precond: 0.649 [ms]
[OGL LOG][StoppingCriterion.H:373] Creating stopping criterion with minIter 18 frequency 1
[OGL LOG][Proc: 0]Ux: generate_solver: 0.001 [ms]
[OGL LOG][Proc: 0]Ux: solve: 94.45100000000001 [ms]
[OGL LOG][Proc: 0]Ux: copy_x_back: 2.012 [ms]
[OGL LOG][lduLduBase.H:336] 
Statistics:
	Time per iteration: 6296 [mu s]
	Time per residual norm calculation: 322.000000 [mu s]
	Time per iteration and DOF: 0.499117 [ns]
	Retrieve results bandwidth 1.883000 [GByte/s]
[OGL LOG][Proc: 0]Ux: solve_multi_gpu: 107.725 [ms]
BJhipGKOBiCGStab:  Solving for Ux, Initial residual = 0.0688084873897782, Final residual = 0.002863484226296114, No Iterations 15
[OGL LOG][Proc: 0]: global_index_init: 0.327 [ms]
[OGL LOG][Proc: 0]Uy_local_coeffs: call_update: 0 [ms]
[OGL LOG][Proc: 0]Uy_non_local_coeffs: call_update: 0 [ms]
[OGL LOG][Proc: 0]Uy: update_local_matrix_data: 19.868 [ms]
[OGL LOG][Proc: 0]Uy: update_non_local_matrix_data: 0.116 [ms]
[OGL LOG][Proc: 0]Uy_matrix: call_update: 7.714 [ms]
[OGL LOG][Proc: 0]Uy_rhs: call_update: 3.707 [ms]
[OGL LOG][Preconditioner.H:121] Generate preconditioner BJ MaxBlockSize 1
[OGL LOG][Proc: 0]Uy: init_precond: 0.647 [ms]
[OGL LOG][StoppingCriterion.H:373] Creating stopping criterion with minIter 13 frequency 1
[OGL LOG][Proc: 0]Uy: generate_solver: 0.001 [ms]
[OGL LOG][Proc: 0]Uy: solve: 72.08800000000001 [ms]
[OGL LOG][Proc: 0]Uy: copy_x_back: 2.014 [ms]
[OGL LOG][lduLduBase.H:336] 
Statistics:
	Time per iteration: 7208 [mu s]
	Time per residual norm calculation: 297.000000 [mu s]
	Time per iteration and DOF: 0.571416 [ns]
	Retrieve results bandwidth 1.882000 [GByte/s]
[OGL LOG][Proc: 0]Uy: solve_multi_gpu: 87.26600000000001 [ms]
BJhipGKOBiCGStab:  Solving for Uy, Initial residual = 0.1107997142508671, Final residual = 0.01004456239700503, No Iterations 10
[OGL LOG][Proc: 0]: global_index_init: 0.314 [ms]
[OGL LOG][Proc: 0]Uz_local_coeffs: call_update: 0 [ms]
[OGL LOG][Proc: 0]Uz_non_local_coeffs: call_update: 0 [ms]
[OGL LOG][Proc: 0]Uz: update_local_matrix_data: 20.299 [ms]
[OGL LOG][Proc: 0]Uz: update_non_local_matrix_data: 0.091 [ms]
[OGL LOG][Proc: 0]Uz_matrix: call_update: 4.461 [ms]
[OGL LOG][Proc: 0]Uz_rhs: call_update: 5.618 [ms]
[OGL LOG][Preconditioner.H:121] Generate preconditioner BJ MaxBlockSize 1
[OGL LOG][Proc: 0]Uz: init_precond: 0.5700000000000001 [ms]
[OGL LOG][StoppingCriterion.H:373] Creating stopping criterion with minIter 14 frequency 1
[OGL LOG][Proc: 0]Uz: generate_solver: 0.001 [ms]
[OGL LOG][Proc: 0]Uz: solve: 75.673 [ms]
[OGL LOG][Proc: 0]Uz: copy_x_back: 2.031 [ms]
[OGL LOG][lduLduBase.H:336] 
Statistics:
	Time per iteration: 6306 [mu s]
	Time per residual norm calculation: 328.000000 [mu s]
	Time per iteration and DOF: 0.499910 [ns]
	Retrieve results bandwidth 1.866000 [GByte/s]
[OGL LOG][Proc: 0]Uz: solve_multi_gpu: 89.432 [ms]
BJhipGKOBiCGStab:  Solving for Uz, Initial residual = 0.1255114072506373, Final residual = 0.009983383075415027, No Iterations 12
[INFO] MomentumPredictor: 424.883 [ms]
[INFO] MatrixAssemblyPI: 156.492 [ms]
[INFO] MatrixAssemblyPII: 76.19 [ms]
DICPCG:  Solving for p, Initial residual = 0.09498285949306663, Final residual = 0.0009362453117264006, No Iterations 248
[INFO] SolveP: 4911.066 [ms]
time step continuity errors : sum local = 0.009834798009853464, global = -0.0005229803401757138, cumulative = 0.001014318238120823
[INFO] postSolveP: 40.084 [ms]
[OGL LOG][Proc: 0]: global_index_init: 3.191 [ms]
[OGL LOG][Proc: 0]nuTilda_local_coeffs: call_update: 0 [ms]
[OGL LOG][Proc: 0]nuTilda_non_local_coeffs: call_update: 0 [ms]
[OGL LOG][Proc: 0]nuTilda: update_local_matrix_data: 24.819 [ms]
[OGL LOG][Proc: 0]nuTilda: update_non_local_matrix_data: 0.11 [ms]
[OGL LOG][Proc: 0]nuTilda_matrix: call_update: 5.616000000000001 [ms]
[OGL LOG][Proc: 0]nuTilda_rhs: call_update: 2.823 [ms]
[OGL LOG][Preconditioner.H:121] Generate preconditioner BJ MaxBlockSize 1
[OGL LOG][Proc: 0]nuTilda: init_precond: 0.5670000000000001 [ms]
[OGL LOG][StoppingCriterion.H:373] Creating stopping criterion with minIter 2 frequency 1
[OGL LOG][Proc: 0]nuTilda: generate_solver: 0.001 [ms]
[OGL LOG][Proc: 0]nuTilda: solve: 43.314 [ms]
[OGL LOG][Proc: 0]nuTilda: copy_x_back: 2.016 [ms]
[OGL LOG][lduLduBase.H:336] 
Statistics:
	Time per iteration: 21657 [mu s]
	Time per residual norm calculation: 502.000000 [mu s]
	Time per iteration and DOF: 1.716865 [ns]
	Retrieve results bandwidth 1.880000 [GByte/s]
[OGL LOG][Proc: 0]nuTilda: solve_multi_gpu: 55.361 [ms]
BJhipGKOBiCGStab:  Solving for nuTilda, Initial residual = 0.06047958761324741, Final residual = 0.005964443181168388, No Iterations 2
[INFO] TimeStep: 7021.208 [ms]
ExecutionTime = 56.16 s  ClockTime = 56 s

Time = 6

velocityDampingConstraint velocityDamping damped 0 (0%) of cells, with max limit 300
[INFO] MatrixAssemblyU: 854.542 [ms]
[OGL LOG][Proc: 0]: global_index_init: 0.23 [ms]
[OGL LOG][Proc: 0]Ux_local_coeffs: call_update: 0 [ms]
[OGL LOG][Proc: 0]Ux_non_local_coeffs: call_update: 0 [ms]
[OGL LOG][Proc: 0]Ux: update_local_matrix_data: 20.647 [ms]
[OGL LOG][Proc: 0]Ux: update_non_local_matrix_data: 0.109 [ms]
[OGL LOG][Proc: 0]Ux_matrix: call_update: 5.321 [ms]
[OGL LOG][Proc: 0]Ux_rhs: call_update: 1.651 [ms]
[OGL LOG][Preconditioner.H:121] Generate preconditioner BJ MaxBlockSize 1
[OGL LOG][Proc: 0]Ux: init_precond: 0.639 [ms]
[OGL LOG][StoppingCriterion.H:373] Creating stopping criterion with minIter 18 frequency 1
[OGL LOG][Proc: 0]Ux: generate_solver: 0.001 [ms]
[OGL LOG][Proc: 0]Ux: solve: 73.78400000000001 [ms]
[OGL LOG][Proc: 0]Ux: copy_x_back: 2.009 [ms]
[OGL LOG][lduLduBase.H:336] 
Statistics:
	Time per iteration: 6707 [mu s]
	Time per residual norm calculation: 320.000000 [mu s]
	Time per iteration and DOF: 0.531699 [ns]
	Retrieve results bandwidth 1.886000 [GByte/s]
[OGL LOG][Proc: 0]Ux: solve_multi_gpu: 84.471 [ms]
BJhipGKOBiCGStab:  Solving for Ux, Initial residual = 0.03726675575723253, Final residual = 0.003306295159952899, No Iterations 11
[OGL LOG][Proc: 0]: global_index_init: 0.14 [ms]
[OGL LOG][Proc: 0]Uy_local_coeffs: call_update: 0 [ms]
[OGL LOG][Proc: 0]Uy_non_local_coeffs: call_update: 0 [ms]
[OGL LOG][Proc: 0]Uy: update_local_matrix_data: 21.13 [ms]
[OGL LOG][Proc: 0]Uy: update_non_local_matrix_data: 0.103 [ms]
[OGL LOG][Proc: 0]Uy_matrix: call_update: 4.755 [ms]
[OGL LOG][Proc: 0]Uy_rhs: call_update: 5.153 [ms]
[OGL LOG][Preconditioner.H:121] Generate preconditioner BJ MaxBlockSize 1
[OGL LOG][Proc: 0]Uy: init_precond: 0.633 [ms]
[OGL LOG][StoppingCriterion.H:373] Creating stopping criterion with minIter 12 frequency 1
[OGL LOG][Proc: 0]Uy: generate_solver: 0.001 [ms]
[OGL LOG][Proc: 0]Uy: solve: 72.929 [ms]
[OGL LOG][Proc: 0]Uy: copy_x_back: 1.987 [ms]
[OGL LOG][lduLduBase.H:336] 
Statistics:
	Time per iteration: 6077 [mu s]
	Time per residual norm calculation: 334.000000 [mu s]
	Time per iteration and DOF: 0.481756 [ns]
	Retrieve results bandwidth 1.907000 [GByte/s]
[OGL LOG][Proc: 0]Uy: solve_multi_gpu: 86.54300000000001 [ms]
BJhipGKOBiCGStab:  Solving for Uy, Initial residual = 0.09193072486820954, Final residual = 0.008221961668497091, No Iterations 12
[OGL LOG][Proc: 0]: global_index_init: 0.381 [ms]
[OGL LOG][Proc: 0]Uz_local_coeffs: call_update: 0 [ms]
[OGL LOG][Proc: 0]Uz_non_local_coeffs: call_update: 0 [ms]
[OGL LOG][Proc: 0]Uz: update_local_matrix_data: 22.452 [ms]
[OGL LOG][Proc: 0]Uz: update_non_local_matrix_data: 0.101 [ms]
[OGL LOG][Proc: 0]Uz_matrix: call_update: 4.928 [ms]
[OGL LOG][Proc: 0]Uz_rhs: call_update: 5.712 [ms]
[OGL LOG][Preconditioner.H:121] Generate preconditioner BJ MaxBlockSize 1
[OGL LOG][Proc: 0]Uz: init_precond: 0.601 [ms]
[OGL LOG][StoppingCriterion.H:373] Creating stopping criterion with minIter 14 frequency 1
[OGL LOG][Proc: 0]Uz: generate_solver: 0.001 [ms]
[OGL LOG][Proc: 0]Uz: solve: 75.673 [ms]
[OGL LOG][Proc: 0]Uz: copy_x_back: 2.017 [ms]
[OGL LOG][lduLduBase.H:336] 
Statistics:
	Time per iteration: 6306 [mu s]
	Time per residual norm calculation: 330.000000 [mu s]
	Time per iteration and DOF: 0.499910 [ns]
	Retrieve results bandwidth 1.879000 [GByte/s]
[OGL LOG][Proc: 0]Uz: solve_multi_gpu: 90 [ms]
BJhipGKOBiCGStab:  Solving for Uz, Initial residual = 0.09955988684342777, Final residual = 0.007880286562598721, No Iterations 12
[INFO] MomentumPredictor: 402.468 [ms]
[INFO] MatrixAssemblyPI: 158.296 [ms]
[INFO] MatrixAssemblyPII: 75.459 [ms]
DICPCG:  Solving for p, Initial residual = 0.1007360647214184, Final residual = 0.001006467827653555, No Iterations 123
[INFO] SolveP: 2415.369 [ms]
time step continuity errors : sum local = 0.008701079119557418, global = -0.0007768266529427592, cumulative = 0.0002374915851780639
[INFO] postSolveP: 38.842 [ms]
[OGL LOG][Proc: 0]: global_index_init: 0.044 [ms]
[OGL LOG][Proc: 0]nuTilda_local_coeffs: call_update: 0 [ms]
[OGL LOG][Proc: 0]nuTilda_non_local_coeffs: call_update: 0 [ms]
[OGL LOG][Proc: 0]nuTilda: update_local_matrix_data: 21.172 [ms]
[OGL LOG][Proc: 0]nuTilda: update_non_local_matrix_data: 0.094 [ms]
[OGL LOG][Proc: 0]nuTilda_matrix: call_update: 6.648000000000001 [ms]
[OGL LOG][Proc: 0]nuTilda_rhs: call_update: 2.903 [ms]
[OGL LOG][Preconditioner.H:121] Generate preconditioner BJ MaxBlockSize 1
[OGL LOG][Proc: 0]nuTilda: init_precond: 0.586 [ms]
[OGL LOG][StoppingCriterion.H:373] Creating stopping criterion with minIter 2 frequency 1
[OGL LOG][Proc: 0]nuTilda: generate_solver: 0.001 [ms]
[OGL LOG][Proc: 0]nuTilda: solve: 45.621 [ms]
[OGL LOG][Proc: 0]nuTilda: copy_x_back: 1.96 [ms]
[OGL LOG][lduLduBase.H:336] 
Statistics:
	Time per iteration: 22810 [mu s]
	Time per residual norm calculation: 303.000000 [mu s]
	Time per iteration and DOF: 1.808269 [ns]
	Retrieve results bandwidth 1.933000 [GByte/s]
[OGL LOG][Proc: 0]nuTilda: solve_multi_gpu: 58.817 [ms]
BJhipGKOBiCGStab:  Solving for nuTilda, Initial residual = 0.05590024746991498, Final residual = 0.003162515652159424, No Iterations 2
[INFO] TimeStep: 4493.736 [ms]
ExecutionTime = 61.29 s  ClockTime = 62 s

Time = 7

velocityDampingConstraint velocityDamping damped 4 (0%) of cells, with max limit 300
[INFO] MatrixAssemblyU: 852.475 [ms]
[OGL LOG][Proc: 0]: global_index_init: 0.305 [ms]
[OGL LOG][Proc: 0]Ux_local_coeffs: call_update: 0 [ms]
[OGL LOG][Proc: 0]Ux_non_local_coeffs: call_update: 0 [ms]
[OGL LOG][Proc: 0]Ux: update_local_matrix_data: 19.926 [ms]
[OGL LOG][Proc: 0]Ux: update_non_local_matrix_data: 0.291 [ms]
[OGL LOG][Proc: 0]Ux_matrix: call_update: 3.973 [ms]
[OGL LOG][Proc: 0]Ux_rhs: call_update: 5.95 [ms]
[OGL LOG][Preconditioner.H:121] Generate preconditioner BJ MaxBlockSize 1
[OGL LOG][Proc: 0]Ux: init_precond: 0.636 [ms]
[OGL LOG][StoppingCriterion.H:373] Creating stopping criterion with minIter 13 frequency 1
[OGL LOG][Proc: 0]Ux: generate_solver: 0.002 [ms]
[OGL LOG][Proc: 0]Ux: solve: 86.07000000000001 [ms]
[OGL LOG][Proc: 0]Ux: copy_x_back: 1.993 [ms]
[OGL LOG][lduLduBase.H:336] 
Statistics:
	Time per iteration: 7824 [mu s]
	Time per residual norm calculation: 300.000000 [mu s]
	Time per iteration and DOF: 0.620250 [ns]
	Retrieve results bandwidth 1.901000 [GByte/s]
[OGL LOG][Proc: 0]Ux: solve_multi_gpu: 99.688 [ms]
BJhipGKOBiCGStab:  Solving for Ux, Initial residual = 0.02658756462850251, Final residual = 0.002409885912065995, No Iterations 11
[OGL LOG][Proc: 0]: global_index_init: 3.366 [ms]
[OGL LOG][Proc: 0]Uy_local_coeffs: call_update: 0 [ms]
[OGL LOG][Proc: 0]Uy_non_local_coeffs: call_update: 0 [ms]
[OGL LOG][Proc: 0]Uy: update_local_matrix_data: 20.457 [ms]
[OGL LOG][Proc: 0]Uy: update_non_local_matrix_data: 0.092 [ms]
[OGL LOG][Proc: 0]Uy_matrix: call_update: 4.202 [ms]
[OGL LOG][Proc: 0]Uy_rhs: call_update: 6.725000000000001 [ms]
[OGL LOG][Preconditioner.H:121] Generate preconditioner BJ MaxBlockSize 1
[OGL LOG][Proc: 0]Uy: init_precond: 0.5650000000000001 [ms]
[OGL LOG][StoppingCriterion.H:373] Creating stopping criterion with minIter 14 frequency 1
[OGL LOG][Proc: 0]Uy: generate_solver: 0 [ms]
[OGL LOG][Proc: 0]Uy: solve: 83.67100000000001 [ms]
[OGL LOG][Proc: 0]Uy: copy_x_back: 2.002 [ms]
[OGL LOG][lduLduBase.H:336] 
Statistics:
	Time per iteration: 5578 [mu s]
	Time per residual norm calculation: 327.000000 [mu s]
	Time per iteration and DOF: 0.442198 [ns]
	Retrieve results bandwidth 1.893000 [GByte/s]
[OGL LOG][Proc: 0]Uy: solve_multi_gpu: 98.233 [ms]
BJhipGKOBiCGStab:  Solving for Uy, Initial residual = 0.09081652965669967, Final residual = 0.006191667989681349, No Iterations 15
[OGL LOG][Proc: 0]: global_index_init: 0.403 [ms]
[OGL LOG][Proc: 0]Uz_local_coeffs: call_update: 0 [ms]
[OGL LOG][Proc: 0]Uz_non_local_coeffs: call_update: 0 [ms]
[OGL LOG][Proc: 0]Uz: update_local_matrix_data: 20.309 [ms]
[OGL LOG][Proc: 0]Uz: update_non_local_matrix_data: 0.094 [ms]
[OGL LOG][Proc: 0]Uz_matrix: call_update: 4.434 [ms]
[OGL LOG][Proc: 0]Uz_rhs: call_update: 5.174 [ms]
[OGL LOG][Preconditioner.H:121] Generate preconditioner BJ MaxBlockSize 1
[OGL LOG][Proc: 0]Uz: init_precond: 0.5720000000000001 [ms]
[OGL LOG][StoppingCriterion.H:373] Creating stopping criterion with minIter 14 frequency 1
[OGL LOG][Proc: 0]Uz: generate_solver: 0.001 [ms]
[OGL LOG][Proc: 0]Uz: solve: 86.74299999999999 [ms]
[OGL LOG][Proc: 0]Uz: copy_x_back: 2.02 [ms]
[OGL LOG][lduLduBase.H:336] 
Statistics:
	Time per iteration: 7885 [mu s]
	Time per residual norm calculation: 329.000000 [mu s]
	Time per iteration and DOF: 0.625086 [ns]
	Retrieve results bandwidth 1.876000 [GByte/s]
[OGL LOG][Proc: 0]Uz: solve_multi_gpu: 100.213 [ms]
BJhipGKOBiCGStab:  Solving for Uz, Initial residual = 0.07242902854069699, Final residual = 0.007179464300303464, No Iterations 11
[INFO] MomentumPredictor: 442.28 [ms]
[INFO] MatrixAssemblyPI: 158.242 [ms]
[INFO] MatrixAssemblyPII: 75.244 [ms]
DICPCG:  Solving for p, Initial residual = 0.09458281141945318, Final residual = 0.0009409035949509318, No Iterations 138
[INFO] SolveP: 2695.712 [ms]
time step continuity errors : sum local = 0.007900009847462194, global = -0.0005567941243128693, cumulative = -0.0003193025391348054
[INFO] postSolveP: 38.98 [ms]
[OGL LOG][Proc: 0]: global_index_init: 0.365 [ms]
[OGL LOG][Proc: 0]nuTilda_local_coeffs: call_update: 0 [ms]
[OGL LOG][Proc: 0]nuTilda_non_local_coeffs: call_update: 0 [ms]
[OGL LOG][Proc: 0]nuTilda: update_local_matrix_data: 21.466 [ms]
[OGL LOG][Proc: 0]nuTilda: update_non_local_matrix_data: 0.096 [ms]
[OGL LOG][Proc: 0]nuTilda_matrix: call_update: 4.484 [ms]
[OGL LOG][Proc: 0]nuTilda_rhs: call_update: 4.434 [ms]
[OGL LOG][Preconditioner.H:121] Generate preconditioner BJ MaxBlockSize 1
[OGL LOG][Proc: 0]nuTilda: init_precond: 0.579 [ms]
[OGL LOG][StoppingCriterion.H:373] Creating stopping criterion with minIter 3 frequency 1
[OGL LOG][Proc: 0]nuTilda: generate_solver: 0.001 [ms]
[OGL LOG][Proc: 0]nuTilda: solve: 47.194 [ms]
[OGL LOG][Proc: 0]nuTilda: copy_x_back: 1.998 [ms]
[OGL LOG][lduLduBase.H:336] 
Statistics:
	Time per iteration: 23597 [mu s]
	Time per residual norm calculation: 323.000000 [mu s]
	Time per iteration and DOF: 1.870659 [ns]
	Retrieve results bandwidth 1.897000 [GByte/s]
[OGL LOG][Proc: 0]nuTilda: solve_multi_gpu: 59.755 [ms]
BJhipGKOBiCGStab:  Solving for nuTilda, Initial residual = 0.04638806269087485, Final residual = 0.003932785084307645, No Iterations 2
[INFO] TimeStep: 4813.692 [ms]
ExecutionTime = 66.73999999999999 s  ClockTime = 67 s

Time = 8

velocityDampingConstraint velocityDamping damped 0 (0%) of cells, with max limit 300
[INFO] MatrixAssemblyU: 848.125 [ms]
[OGL LOG][Proc: 0]: global_index_init: 0.213 [ms]
[OGL LOG][Proc: 0]Ux_local_coeffs: call_update: 0 [ms]
[OGL LOG][Proc: 0]Ux_non_local_coeffs: call_update: 0 [ms]
[OGL LOG][Proc: 0]Ux: update_local_matrix_data: 19.541 [ms]
[OGL LOG][Proc: 0]Ux: update_non_local_matrix_data: 0.108 [ms]
[OGL LOG][Proc: 0]Ux_matrix: call_update: 5.164 [ms]
[OGL LOG][Proc: 0]Ux_rhs: call_update: 3.568 [ms]
[OGL LOG][Preconditioner.H:121] Generate preconditioner BJ MaxBlockSize 1
[OGL LOG][Proc: 0]Ux: init_precond: 0.648 [ms]
[OGL LOG][StoppingCriterion.H:373] Creating stopping criterion with minIter 13 frequency 1
[OGL LOG][Proc: 0]Ux: generate_solver: 0.001 [ms]
[OGL LOG][Proc: 0]Ux: solve: 74.444 [ms]
[OGL LOG][Proc: 0]Ux: copy_x_back: 1.978 [ms]
[OGL LOG][lduLduBase.H:336] 
Statistics:
	Time per iteration: 6203 [mu s]
	Time per residual norm calculation: 318.000000 [mu s]
	Time per iteration and DOF: 0.491745 [ns]
	Retrieve results bandwidth 1.916000 [GByte/s]
[OGL LOG][Proc: 0]Ux: solve_multi_gpu: 86.95100000000001 [ms]
BJhipGKOBiCGStab:  Solving for Ux, Initial residual = 0.02047262030673938, Final residual = 0.001674545476030725, No Iterations 12
[OGL LOG][Proc: 0]: global_index_init: 0.067 [ms]
[OGL LOG][Proc: 0]Uy_local_coeffs: call_update: 0 [ms]
[OGL LOG][Proc: 0]Uy_non_local_coeffs: call_update: 0 [ms]
[OGL LOG][Proc: 0]Uy: update_local_matrix_data: 20.143 [ms]
[OGL LOG][Proc: 0]Uy: update_non_local_matrix_data: 0.08 [ms]
[OGL LOG][Proc: 0]Uy_matrix: call_update: 6.697 [ms]
[OGL LOG][Proc: 0]Uy_rhs: call_update: 2.21 [ms]
[OGL LOG][Preconditioner.H:121] Generate preconditioner BJ MaxBlockSize 1
[OGL LOG][Proc: 0]Uy: init_precond: 0.5730000000000001 [ms]
[OGL LOG][StoppingCriterion.H:373] Creating stopping criterion with minIter 18 frequency 1
[OGL LOG][Proc: 0]Uy: generate_solver: 0.001 [ms]
[OGL LOG][Proc: 0]Uy: solve: 108.036 [ms]
[OGL LOG][Proc: 0]Uy: copy_x_back: 2.027 [ms]
[OGL LOG][lduLduBase.H:336] 
Statistics:
	Time per iteration: 7202 [mu s]
	Time per residual norm calculation: 333.000000 [mu s]
	Time per iteration and DOF: 0.570941 [ns]
	Retrieve results bandwidth 1.869000 [GByte/s]
[OGL LOG][Proc: 0]Uy: solve_multi_gpu: 120.623 [ms]
BJhipGKOBiCGStab:  Solving for Uy, Initial residual = 0.09092896991706161, Final residual = 0.003759691203681082, No Iterations 15
[OGL LOG][Proc: 0]: global_index_init: 0.54 [ms]
[OGL LOG][Proc: 0]Uz_local_coeffs: call_update: 0 [ms]
[OGL LOG][Proc: 0]Uz_non_local_coeffs: call_update: 0 [ms]
[OGL LOG][Proc: 0]Uz: update_local_matrix_data: 19.942 [ms]
[OGL LOG][Proc: 0]Uz: update_non_local_matrix_data: 0.091 [ms]
[OGL LOG][Proc: 0]Uz_matrix: call_update: 5.782 [ms]
[OGL LOG][Proc: 0]Uz_rhs: call_update: 6.121 [ms]
[OGL LOG][Preconditioner.H:121] Generate preconditioner BJ MaxBlockSize 1
[OGL LOG][Proc: 0]Uz: init_precond: 0.632 [ms]
[OGL LOG][StoppingCriterion.H:373] Creating stopping criterion with minIter 13 frequency 1
[OGL LOG][Proc: 0]Uz: generate_solver: 0.001 [ms]
[OGL LOG][Proc: 0]Uz: solve: 68.29000000000001 [ms]
[OGL LOG][Proc: 0]Uz: copy_x_back: 1.999 [ms]
[OGL LOG][lduLduBase.H:336] 
Statistics:
	Time per iteration: 6208 [mu s]
	Time per residual norm calculation: 331.000000 [mu s]
	Time per iteration and DOF: 0.492141 [ns]
	Retrieve results bandwidth 1.896000 [GByte/s]
[OGL LOG][Proc: 0]Uz: solve_multi_gpu: 83.895 [ms]
BJhipGKOBiCGStab:  Solving for Uz, Initial residual = 0.0605847457531366, Final residual = 0.005778716702536937, No Iterations 11
[INFO] MomentumPredictor: 431.047 [ms]
[INFO] MatrixAssemblyPI: 157.301 [ms]
[INFO] MatrixAssemblyPII: 74.71899999999999 [ms]
DICPCG:  Solving for p, Initial residual = 0.1050708383111337, Final residual = 0.001029047527651796, No Iterations 102
[INFO] SolveP: 1975.563 [ms]
time step continuity errors : sum local = 0.008845553883807001, global = -0.000730147727317914, cumulative = -0.001049450266452719
[INFO] postSolveP: 41.003 [ms]
[OGL LOG][Proc: 0]: global_index_init: 1.048 [ms]
[OGL LOG][Proc: 0]nuTilda_local_coeffs: call_update: 0 [ms]
[OGL LOG][Proc: 0]nuTilda_non_local_coeffs: call_update: 0 [ms]
[OGL LOG][Proc: 0]nuTilda: update_local_matrix_data: 19.471 [ms]
[OGL LOG][Proc: 0]nuTilda: update_non_local_matrix_data: 0.127 [ms]
[OGL LOG][Proc: 0]nuTilda_matrix: call_update: 4.659 [ms]
[OGL LOG][Proc: 0]nuTilda_rhs: call_update: 7.574 [ms]
[OGL LOG][Preconditioner.H:121] Generate preconditioner BJ MaxBlockSize 1
[OGL LOG][Proc: 0]nuTilda: init_precond: 0.645 [ms]
[OGL LOG][StoppingCriterion.H:373] Creating stopping criterion with minIter 2 frequency 1
[OGL LOG][Proc: 0]nuTilda: generate_solver: 0.001 [ms]
[OGL LOG][Proc: 0]nuTilda: solve: 45.874 [ms]
[OGL LOG][Proc: 0]nuTilda: copy_x_back: 1.995 [ms]
[OGL LOG][lduLduBase.H:336] 
Statistics:
	Time per iteration: 22937 [mu s]
	Time per residual norm calculation: 303.000000 [mu s]
	Time per iteration and DOF: 1.818337 [ns]
	Retrieve results bandwidth 1.899000 [GByte/s]
[OGL LOG][Proc: 0]nuTilda: solve_multi_gpu: 61.785 [ms]
BJhipGKOBiCGStab:  Solving for nuTilda, Initial residual = 0.05297101763149035, Final residual = 0.002550253246165282, No Iterations 2
[INFO] TimeStep: 4081.277 [ms]
ExecutionTime = 71.45 s  ClockTime = 72 s

Time = 9

velocityDampingConstraint velocityDamping damped 0 (0%) of cells, with max limit 300
[INFO] MatrixAssemblyU: 853.426 [ms]
[OGL LOG][Proc: 0]: global_index_init: 0.21 [ms]
[OGL LOG][Proc: 0]Ux_local_coeffs: call_update: 0 [ms]
[OGL LOG][Proc: 0]Ux_non_local_coeffs: call_update: 0 [ms]
[OGL LOG][Proc: 0]Ux: update_local_matrix_data: 19.599 [ms]
[OGL LOG][Proc: 0]Ux: update_non_local_matrix_data: 0.09 [ms]
[OGL LOG][Proc: 0]Ux_matrix: call_update: 5.407 [ms]
[OGL LOG][Proc: 0]Ux_rhs: call_update: 3.293 [ms]
[OGL LOG][Preconditioner.H:121] Generate preconditioner BJ MaxBlockSize 1
[OGL LOG][Proc: 0]Ux: init_precond: 0.641 [ms]
[OGL LOG][StoppingCriterion.H:373] Creating stopping criterion with minIter 14 frequency 1
[OGL LOG][Proc: 0]Ux: generate_solver: 0.001 [ms]
[OGL LOG][Proc: 0]Ux: solve: 83.255 [ms]
[OGL LOG][Proc: 0]Ux: copy_x_back: 1.985 [ms]
[OGL LOG][lduLduBase.H:336] 
Statistics:
	Time per iteration: 5946 [mu s]
	Time per residual norm calculation: 322.000000 [mu s]
	Time per iteration and DOF: 0.471371 [ns]
	Retrieve results bandwidth 1.909000 [GByte/s]
[OGL LOG][Proc: 0]Ux: solve_multi_gpu: 95.705 [ms]
BJhipGKOBiCGStab:  Solving for Ux, Initial residual = 0.01855721756445531, Final residual = 0.001083914465276912, No Iterations 14
[OGL LOG][Proc: 0]: global_index_init: 0.263 [ms]
[OGL LOG][Proc: 0]Uy_local_coeffs: call_update: 0 [ms]
[OGL LOG][Proc: 0]Uy_non_local_coeffs: call_update: 0 [ms]
[OGL LOG][Proc: 0]Uy: update_local_matrix_data: 21.173 [ms]
[OGL LOG][Proc: 0]Uy: update_non_local_matrix_data: 0.093 [ms]
[OGL LOG][Proc: 0]Uy_matrix: call_update: 4.79 [ms]
[OGL LOG][Proc: 0]Uy_rhs: call_update: 4.419 [ms]
[OGL LOG][Preconditioner.H:121] Generate preconditioner BJ MaxBlockSize 1
[OGL LOG][Proc: 0]Uy: init_precond: 0.628 [ms]
[OGL LOG][StoppingCriterion.H:373] Creating stopping criterion with minIter 18 frequency 1
[OGL LOG][Proc: 0]Uy: generate_solver: 0.002 [ms]
[OGL LOG][Proc: 0]Uy: solve: 82.51600000000001 [ms]
[OGL LOG][Proc: 0]Uy: copy_x_back: 1.998 [ms]
[OGL LOG][lduLduBase.H:336] 
Statistics:
	Time per iteration: 7501 [mu s]
	Time per residual norm calculation: 316.000000 [mu s]
	Time per iteration and DOF: 0.594644 [ns]
	Retrieve results bandwidth 1.897000 [GByte/s]
[OGL LOG][Proc: 0]Uy: solve_multi_gpu: 95.43000000000001 [ms]
BJhipGKOBiCGStab:  Solving for Uy, Initial residual = 0.06105434673143939, Final residual = 0.005492444571651946, No Iterations 11
[OGL LOG][Proc: 0]: global_index_init: 0.33 [ms]
[OGL LOG][Proc: 0]Uz_local_coeffs: call_update: 0 [ms]
[OGL LOG][Proc: 0]Uz_non_local_coeffs: call_update: 0 [ms]
[OGL LOG][Proc: 0]Uz: update_local_matrix_data: 22.987 [ms]
[OGL LOG][Proc: 0]Uz: update_non_local_matrix_data: 0.093 [ms]
[OGL LOG][Proc: 0]Uz_matrix: call_update: 4.613 [ms]
[OGL LOG][Proc: 0]Uz_rhs: call_update: 5.56 [ms]
[OGL LOG][Preconditioner.H:121] Generate preconditioner BJ MaxBlockSize 1
[OGL LOG][Proc: 0]Uz: init_precond: 0.626 [ms]
[OGL LOG][StoppingCriterion.H:373] Creating stopping criterion with minIter 13 frequency 1
[OGL LOG][Proc: 0]Uz: generate_solver: 0.002 [ms]
[OGL LOG][Proc: 0]Uz: solve: 76.04000000000001 [ms]
[OGL LOG][Proc: 0]Uz: copy_x_back: 2.05 [ms]
[OGL LOG][lduLduBase.H:336] 
Statistics:
	Time per iteration: 6336 [mu s]
	Time per residual norm calculation: 327.000000 [mu s]
	Time per iteration and DOF: 0.502288 [ns]
	Retrieve results bandwidth 1.848000 [GByte/s]
[OGL LOG][Proc: 0]Uz: solve_multi_gpu: 90.02200000000001 [ms]
BJhipGKOBiCGStab:  Solving for Uz, Initial residual = 0.1644412161117801, Final residual = 0.00762826041168911, No Iterations 12
[INFO] MomentumPredictor: 423.143 [ms]
[INFO] MatrixAssemblyPI: 162.877 [ms]
[INFO] MatrixAssemblyPII: 76.254 [ms]
DICPCG:  Solving for p, Initial residual = 0.08106894004664177, Final residual = 0.0007839676449330508, No Iterations 112
[INFO] SolveP: 2182.746 [ms]
time step continuity errors : sum local = 0.006712322276299956, global = -0.0003839954460807786, cumulative = -0.001433445712533498
[INFO] postSolveP: 38.807 [ms]
[OGL LOG][Proc: 0]: global_index_init: 1.105 [ms]
[OGL LOG][Proc: 0]nuTilda_local_coeffs: call_update: 0 [ms]
[OGL LOG][Proc: 0]nuTilda_non_local_coeffs: call_update: 0 [ms]
[OGL LOG][Proc: 0]nuTilda: update_local_matrix_data: 25.523 [ms]
[OGL LOG][Proc: 0]nuTilda: update_non_local_matrix_data: 0.097 [ms]
[OGL LOG][Proc: 0]nuTilda_matrix: call_update: 3.632 [ms]
[OGL LOG][Proc: 0]nuTilda_rhs: call_update: 4.593 [ms]
[OGL LOG][Preconditioner.H:121] Generate preconditioner BJ MaxBlockSize 1
[OGL LOG][Proc: 0]nuTilda: init_precond: 0.636 [ms]
[OGL LOG][StoppingCriterion.H:373] Creating stopping criterion with minIter 3 frequency 1
[OGL LOG][Proc: 0]nuTilda: generate_solver: 0.001 [ms]
[OGL LOG][Proc: 0]nuTilda: solve: 42.703 [ms]
[OGL LOG][Proc: 0]nuTilda: copy_x_back: 2.038 [ms]
[OGL LOG][lduLduBase.H:336] 
Statistics:
	Time per iteration: 21351 [mu s]
	Time per residual norm calculation: 326.000000 [mu s]
	Time per iteration and DOF: 1.692607 [ns]
	Retrieve results bandwidth 1.859000 [GByte/s]
[OGL LOG][Proc: 0]nuTilda: solve_multi_gpu: 54.697 [ms]
BJhipGKOBiCGStab:  Solving for nuTilda, Initial residual = 0.04127805136713084, Final residual = 0.003676898285872891, No Iterations 2
[INFO] TimeStep: 4289.122 [ms]
ExecutionTime = 76.38 s  ClockTime = 77 s

Time = 10

velocityDampingConstraint velocityDamping damped 0 (0%) of cells, with max limit 300
[INFO] MatrixAssemblyU: 853.385 [ms]
[OGL LOG][Proc: 0]: global_index_init: 0.223 [ms]
[OGL LOG][Proc: 0]Ux_local_coeffs: call_update: 0 [ms]
[OGL LOG][Proc: 0]Ux_non_local_coeffs: call_update: 0 [ms]
[OGL LOG][Proc: 0]Ux: update_local_matrix_data: 19.698 [ms]
[OGL LOG][Proc: 0]Ux: update_non_local_matrix_data: 0.08799999999999999 [ms]
[OGL LOG][Proc: 0]Ux_matrix: call_update: 5.052 [ms]
[OGL LOG][Proc: 0]Ux_rhs: call_update: 5.005 [ms]
[OGL LOG][Preconditioner.H:121] Generate preconditioner BJ MaxBlockSize 1
[OGL LOG][Proc: 0]Ux: init_precond: 0.555 [ms]
[OGL LOG][StoppingCriterion.H:373] Creating stopping criterion with minIter 16 frequency 1
[OGL LOG][Proc: 0]Ux: generate_solver: 0.002 [ms]
[OGL LOG][Proc: 0]Ux: solve: 75.581 [ms]
[OGL LOG][Proc: 0]Ux: copy_x_back: 2.005 [ms]
[OGL LOG][lduLduBase.H:336] 
Statistics:
	Time per iteration: 6298 [mu s]
	Time per residual norm calculation: 299.000000 [mu s]
	Time per iteration and DOF: 0.499276 [ns]
	Retrieve results bandwidth 1.890000 [GByte/s]
[OGL LOG][Proc: 0]Ux: solve_multi_gpu: 89.295 [ms]
BJhipGKOBiCGStab:  Solving for Ux, Initial residual = 0.01600485870106387, Final residual = 0.001519116496958565, No Iterations 12
[OGL LOG][Proc: 0]: global_index_init: 0.394 [ms]
[OGL LOG][Proc: 0]Uy_local_coeffs: call_update: 0 [ms]
[OGL LOG][Proc: 0]Uy_non_local_coeffs: call_update: 0 [ms]
[OGL LOG][Proc: 0]Uy: update_local_matrix_data: 20.069 [ms]
[OGL LOG][Proc: 0]Uy: update_non_local_matrix_data: 0.08700000000000001 [ms]
[OGL LOG][Proc: 0]Uy_matrix: call_update: 5.233000000000001 [ms]
[OGL LOG][Proc: 0]Uy_rhs: call_update: 4.173 [ms]
[OGL LOG][Preconditioner.H:121] Generate preconditioner BJ MaxBlockSize 1
[OGL LOG][Proc: 0]Uy: init_precond: 0.632 [ms]
[OGL LOG][StoppingCriterion.H:373] Creating stopping criterion with minIter 13 frequency 1
[OGL LOG][Proc: 0]Uy: generate_solver: 0.001 [ms]
[OGL LOG][Proc: 0]Uy: solve: 74.241 [ms]
[OGL LOG][Proc: 0]Uy: copy_x_back: 2.011 [ms]
[OGL LOG][lduLduBase.H:336] 
Statistics:
	Time per iteration: 6186 [mu s]
	Time per residual norm calculation: 323.000000 [mu s]
	Time per iteration and DOF: 0.490397 [ns]
	Retrieve results bandwidth 1.884000 [GByte/s]
[OGL LOG][Proc: 0]Uy: solve_multi_gpu: 87.351 [ms]
BJhipGKOBiCGStab:  Solving for Uy, Initial residual = 0.04995325793490644, Final residual = 0.004501385227764755, No Iterations 12
[OGL LOG][Proc: 0]: global_index_init: 0.326 [ms]
[OGL LOG][Proc: 0]Uz_local_coeffs: call_update: 0 [ms]
[OGL LOG][Proc: 0]Uz_non_local_coeffs: call_update: 0 [ms]
[OGL LOG][Proc: 0]Uz: update_local_matrix_data: 19.005 [ms]
[OGL LOG][Proc: 0]Uz: update_non_local_matrix_data: 0.08500000000000001 [ms]
[OGL LOG][Proc: 0]Uz_matrix: call_update: 5.49 [ms]
[OGL LOG][Proc: 0]Uz_rhs: call_update: 4.637 [ms]
[OGL LOG][Preconditioner.H:121] Generate preconditioner BJ MaxBlockSize 1
[OGL LOG][Proc: 0]Uz: init_precond: 0.63 [ms]
[OGL LOG][StoppingCriterion.H:373] Creating stopping criterion with minIter 14 frequency 1
[OGL LOG][Proc: 0]Uz: generate_solver: 0.002 [ms]
[OGL LOG][Proc: 0]Uz: solve: 65.649 [ms]
[OGL LOG][Proc: 0]Uz: copy_x_back: 1.965 [ms]
[OGL LOG][lduLduBase.H:336] 
Statistics:
	Time per iteration: 7294 [mu s]
	Time per residual norm calculation: 301.000000 [mu s]
	Time per iteration and DOF: 0.578234 [ns]
	Retrieve results bandwidth 1.928000 [GByte/s]
[OGL LOG][Proc: 0]Uz: solve_multi_gpu: 79.443 [ms]
BJhipGKOBiCGStab:  Solving for Uz, Initial residual = 0.1024361286919824, Final residual = 0.009569503952791844, No Iterations 9
[INFO] MomentumPredictor: 392.252 [ms]
[INFO] MatrixAssemblyPI: 158.986 [ms]
[INFO] MatrixAssemblyPII: 75.175 [ms]
DICPCG:  Solving for p, Initial residual = 0.06416793254533894, Final residual = 0.0006395449436883842, No Iterations 102
[INFO] SolveP: 2079.406 [ms]
time step continuity errors : sum local = 0.005419085159224522, global = -0.0001411594203344236, cumulative = -0.001574605132867922
[INFO] postSolveP: 39.161 [ms]
[OGL LOG][Proc: 0]: global_index_init: 0.178 [ms]
[OGL LOG][Proc: 0]nuTilda_local_coeffs: call_update: 0 [ms]
[OGL LOG][Proc: 0]nuTilda_non_local_coeffs: call_update: 0 [ms]
[OGL LOG][Proc: 0]nuTilda: update_local_matrix_data: 21.404 [ms]
[OGL LOG][Proc: 0]nuTilda: update_non_local_matrix_data: 0.094 [ms]
[OGL LOG][Proc: 0]nuTilda_matrix: call_update: 7.527 [ms]
[OGL LOG][Proc: 0]nuTilda_rhs: call_update: 1.663 [ms]
[OGL LOG][Preconditioner.H:121] Generate preconditioner BJ MaxBlockSize 1
[OGL LOG][Proc: 0]nuTilda: init_precond: 0.64 [ms]
[OGL LOG][StoppingCriterion.H:373] Creating stopping criterion with minIter 2 frequency 1
[OGL LOG][Proc: 0]nuTilda: generate_solver: 0.001 [ms]
[OGL LOG][Proc: 0]nuTilda: solve: 48.857 [ms]
[OGL LOG][Proc: 0]nuTilda: copy_x_back: 1.983 [ms]
[OGL LOG][lduLduBase.H:336] 
Statistics:
	Time per iteration: 24428 [mu s]
	Time per residual norm calculation: 313.000000 [mu s]
	Time per iteration and DOF: 1.936537 [ns]
	Retrieve results bandwidth 1.911000 [GByte/s]
[OGL LOG][Proc: 0]nuTilda: solve_multi_gpu: 61.76 [ms]
BJhipGKOBiCGStab:  Solving for nuTilda, Initial residual = 0.05815969877182652, Final residual = 0.002627940947420965, No Iterations 2
[INFO] TimeStep: 4148.867 [ms]
ExecutionTime = 81.15000000000001 s  ClockTime = 82 s

Time = 11

velocityDampingConstraint velocityDamping damped 0 (0%) of cells, with max limit 300
[INFO] MatrixAssemblyU: 849.073 [ms]
[OGL LOG][Proc: 0]: global_index_init: 0.242 [ms]
[OGL LOG][Proc: 0]Ux_local_coeffs: call_update: 0 [ms]
[OGL LOG][Proc: 0]Ux_non_local_coeffs: call_update: 0 [ms]
[OGL LOG][Proc: 0]Ux: update_local_matrix_data: 18.875 [ms]
[OGL LOG][Proc: 0]Ux: update_non_local_matrix_data: 0.149 [ms]
[OGL LOG][Proc: 0]Ux_matrix: call_update: 4.834000000000001 [ms]
[OGL LOG][Proc: 0]Ux_rhs: call_update: 4.693000000000001 [ms]
[OGL LOG][Preconditioner.H:121] Generate preconditioner BJ MaxBlockSize 1
[OGL LOG][Proc: 0]Ux: init_precond: 0.577 [ms]
[OGL LOG][StoppingCriterion.H:373] Creating stopping criterion with minIter 15 frequency 1
[OGL LOG][Proc: 0]Ux: generate_solver: 0.001 [ms]
[OGL LOG][Proc: 0]Ux: solve: 87.161 [ms]
[OGL LOG][Proc: 0]Ux: copy_x_back: 1.992 [ms]
[OGL LOG][lduLduBase.H:336] 
Statistics:
	Time per iteration: 6704 [mu s]
	Time per residual norm calculation: 324.000000 [mu s]
	Time per iteration and DOF: 0.531462 [ns]
	Retrieve results bandwidth 1.902000 [GByte/s]
[OGL LOG][Proc: 0]Ux: solve_multi_gpu: 100.33 [ms]
BJhipGKOBiCGStab:  Solving for Ux, Initial residual = 0.01402095938540102, Final residual = 0.0007157806273307781, No Iterations 13
[OGL LOG][Proc: 0]: global_index_init: 2.211 [ms]
[OGL LOG][Proc: 0]Uy_local_coeffs: call_update: 0 [ms]
[OGL LOG][Proc: 0]Uy_non_local_coeffs: call_update: 0 [ms]
[OGL LOG][Proc: 0]Uy: update_local_matrix_data: 20.34 [ms]
[OGL LOG][Proc: 0]Uy: update_non_local_matrix_data: 0.089 [ms]
[OGL LOG][Proc: 0]Uy_matrix: call_update: 4.242 [ms]
[OGL LOG][Proc: 0]Uy_rhs: call_update: 6.067 [ms]
[OGL LOG][Preconditioner.H:121] Generate preconditioner BJ MaxBlockSize 1
[OGL LOG][Proc: 0]Uy: init_precond: 0.5680000000000001 [ms]
[OGL LOG][StoppingCriterion.H:373] Creating stopping criterion with minIter 14 frequency 1
[OGL LOG][Proc: 0]Uy: generate_solver: 0.001 [ms]
[OGL LOG][Proc: 0]Uy: solve: 64.48399999999999 [ms]
[OGL LOG][Proc: 0]Uy: copy_x_back: 1.991 [ms]
[OGL LOG][lduLduBase.H:336] 
Statistics:
	Time per iteration: 6448 [mu s]
	Time per residual norm calculation: 304.000000 [mu s]
	Time per iteration and DOF: 0.511167 [ns]
	Retrieve results bandwidth 1.903000 [GByte/s]
[OGL LOG][Proc: 0]Uy: solve_multi_gpu: 78.43600000000001 [ms]
BJhipGKOBiCGStab:  Solving for Uy, Initial residual = 0.04203858237919764, Final residual = 0.004140567873719068, No Iterations 10
[OGL LOG][Proc: 0]: global_index_init: 0.281 [ms]
[OGL LOG][Proc: 0]Uz_local_coeffs: call_update: 0 [ms]
[OGL LOG][Proc: 0]Uz_non_local_coeffs: call_update: 0 [ms]
[OGL LOG][Proc: 0]Uz: update_local_matrix_data: 20.53 [ms]
[OGL LOG][Proc: 0]Uz: update_non_local_matrix_data: 0.08799999999999999 [ms]
[OGL LOG][Proc: 0]Uz_matrix: call_update: 7.475000000000001 [ms]
[OGL LOG][Proc: 0]Uz_rhs: call_update: 2.102 [ms]
[OGL LOG][Preconditioner.H:121] Generate preconditioner BJ MaxBlockSize 1
[OGL LOG][Proc: 0]Uz: init_precond: 0.5750000000000001 [ms]
[OGL LOG][StoppingCriterion.H:373] Creating stopping criterion with minIter 11 frequency 1
[OGL LOG][Proc: 0]Uz: generate_solver: 0.001 [ms]
[OGL LOG][Proc: 0]Uz: solve: 66.21900000000001 [ms]
[OGL LOG][Proc: 0]Uz: copy_x_back: 2.01 [ms]
[OGL LOG][lduLduBase.H:336] 
Statistics:
	Time per iteration: 6621 [mu s]
	Time per residual norm calculation: 299.000000 [mu s]
	Time per iteration and DOF: 0.524882 [ns]
	Retrieve results bandwidth 1.885000 [GByte/s]
[OGL LOG][Proc: 0]Uz: solve_multi_gpu: 79.46900000000001 [ms]
BJhipGKOBiCGStab:  Solving for Uz, Initial residual = 0.05395581542181577, Final residual = 0.005288936710651903, No Iterations 10
[INFO] MomentumPredictor: 398.143 [ms]
[INFO] MatrixAssemblyPI: 158.796 [ms]
[INFO] MatrixAssemblyPII: 75.062 [ms]
DICPCG:  Solving for p, Initial residual = 0.06032250476548561, Final residual = 0.0005866607308782355, No Iterations 103
[INFO] SolveP: 2010.685 [ms]
time step continuity errors : sum local = 0.004898725934998369, global = 0.0002200199245814997, cumulative = -0.001354585208286422
[INFO] postSolveP: 38.823 [ms]
[OGL LOG][Proc: 0]: global_index_init: 3.297 [ms]
[OGL LOG][Proc: 0]nuTilda_local_coeffs: call_update: 0 [ms]
[OGL LOG][Proc: 0]nuTilda_non_local_coeffs: call_update: 0 [ms]
[OGL LOG][Proc: 0]nuTilda: update_local_matrix_data: 21.543 [ms]
[OGL LOG][Proc: 0]nuTilda: update_non_local_matrix_data: 0.08600000000000001 [ms]
[OGL LOG][Proc: 0]nuTilda_matrix: call_update: 4.476 [ms]
[OGL LOG][Proc: 0]nuTilda_rhs: call_update: 6.324 [ms]
[OGL LOG][Preconditioner.H:121] Generate preconditioner BJ MaxBlockSize 1
[OGL LOG][Proc: 0]nuTilda: init_precond: 0.581 [ms]
[OGL LOG][StoppingCriterion.H:373] Creating stopping criterion with minIter 3 frequency 1
[OGL LOG][Proc: 0]nuTilda: generate_solver: 0.001 [ms]
[OGL LOG][Proc: 0]nuTilda: solve: 46.923 [ms]
[OGL LOG][Proc: 0]nuTilda: copy_x_back: 1.999 [ms]
[OGL LOG][lduLduBase.H:336] 
Statistics:
	Time per iteration: 23461 [mu s]
	Time per residual norm calculation: 300.000000 [mu s]
	Time per iteration and DOF: 1.859877 [ns]
	Retrieve results bandwidth 1.896000 [GByte/s]
[OGL LOG][Proc: 0]nuTilda: solve_multi_gpu: 61.402 [ms]
BJhipGKOBiCGStab:  Solving for nuTilda, Initial residual = 0.03708080795197841, Final residual = 0.001766438867274184, No Iterations 2
[INFO] TimeStep: 4080.313 [ms]
ExecutionTime = 85.86 s  ClockTime = 86 s

Time = 12

velocityDampingConstraint velocityDamping damped 0 (0%) of cells, with max limit 300
[INFO] MatrixAssemblyU: 843.9829999999999 [ms]
[OGL LOG][Proc: 0]: global_index_init: 0.352 [ms]
[OGL LOG][Proc: 0]Ux_local_coeffs: call_update: 0 [ms]
[OGL LOG][Proc: 0]Ux_non_local_coeffs: call_update: 0 [ms]
[OGL LOG][Proc: 0]Ux: update_local_matrix_data: 20.125 [ms]
[OGL LOG][Proc: 0]Ux: update_non_local_matrix_data: 0.09 [ms]
[OGL LOG][Proc: 0]Ux_matrix: call_update: 4.913 [ms]
[OGL LOG][Proc: 0]Ux_rhs: call_update: 3.512 [ms]
[OGL LOG][Preconditioner.H:121] Generate preconditioner BJ MaxBlockSize 1
[OGL LOG][Proc: 0]Ux: init_precond: 0.503 [ms]
[OGL LOG][StoppingCriterion.H:373] Creating stopping criterion with minIter 15 frequency 1
[OGL LOG][Proc: 0]Ux: generate_solver: 0.001 [ms]
[OGL LOG][Proc: 0]Ux: solve: 70.83500000000001 [ms]
[OGL LOG][Proc: 0]Ux: copy_x_back: 2.065 [ms]
[OGL LOG][lduLduBase.H:336] 
Statistics:
	Time per iteration: 6439 [mu s]
	Time per residual norm calculation: 324.000000 [mu s]
	Time per iteration and DOF: 0.510454 [ns]
	Retrieve results bandwidth 1.835000 [GByte/s]
[OGL LOG][Proc: 0]Ux: solve_multi_gpu: 82.896 [ms]
BJhipGKOBiCGStab:  Solving for Ux, Initial residual = 0.01357161696699182, Final residual = 0.001309127293850673, No Iterations 11
[OGL LOG][Proc: 0]: global_index_init: 0.407 [ms]
[OGL LOG][Proc: 0]Uy_local_coeffs: call_update: 0 [ms]
[OGL LOG][Proc: 0]Uy_non_local_coeffs: call_update: 0 [ms]
[OGL LOG][Proc: 0]Uy: update_local_matrix_data: 20.468 [ms]
[OGL LOG][Proc: 0]Uy: update_non_local_matrix_data: 0.094 [ms]
[OGL LOG][Proc: 0]Uy_matrix: call_update: 4.869 [ms]
[OGL LOG][Proc: 0]Uy_rhs: call_update: 3.925 [ms]
[OGL LOG][Preconditioner.H:121] Generate preconditioner BJ MaxBlockSize 1
[OGL LOG][Proc: 0]Uy: init_precond: 0.633 [ms]
[OGL LOG][StoppingCriterion.H:373] Creating stopping criterion with minIter 12 frequency 1
[OGL LOG][Proc: 0]Uy: generate_solver: 0.001 [ms]
[OGL LOG][Proc: 0]Uy: solve: 73.208 [ms]
[OGL LOG][Proc: 0]Uy: copy_x_back: 1.993 [ms]
[OGL LOG][lduLduBase.H:336] 
Statistics:
	Time per iteration: 7320 [mu s]
	Time per residual norm calculation: 300.000000 [mu s]
	Time per iteration and DOF: 0.580295 [ns]
	Retrieve results bandwidth 1.901000 [GByte/s]
[OGL LOG][Proc: 0]Uy: solve_multi_gpu: 85.751 [ms]
BJhipGKOBiCGStab:  Solving for Uy, Initial residual = 0.03965744976208142, Final residual = 0.003557418713207458, No Iterations 10
[OGL LOG][Proc: 0]: global_index_init: 0.335 [ms]
[OGL LOG][Proc: 0]Uz_local_coeffs: call_update: 0 [ms]
[OGL LOG][Proc: 0]Uz_non_local_coeffs: call_update: 0 [ms]
[OGL LOG][Proc: 0]Uz: update_local_matrix_data: 20.414 [ms]
[OGL LOG][Proc: 0]Uz: update_non_local_matrix_data: 0.08500000000000001 [ms]
[OGL LOG][Proc: 0]Uz_matrix: call_update: 8.775 [ms]
[OGL LOG][Proc: 0]Uz_rhs: call_update: 1.381 [ms]
[OGL LOG][Preconditioner.H:121] Generate preconditioner BJ MaxBlockSize 1
[OGL LOG][Proc: 0]Uz: init_precond: 0.514 [ms]
[OGL LOG][StoppingCriterion.H:373] Creating stopping criterion with minIter 12 frequency 1
[OGL LOG][Proc: 0]Uz: generate_solver: 0.001 [ms]
[OGL LOG][Proc: 0]Uz: solve: 69.485 [ms]
[OGL LOG][Proc: 0]Uz: copy_x_back: 2.011 [ms]
[OGL LOG][lduLduBase.H:336] 
Statistics:
	Time per iteration: 6948 [mu s]
	Time per residual norm calculation: 297.000000 [mu s]
	Time per iteration and DOF: 0.550805 [ns]
	Retrieve results bandwidth 1.884000 [GByte/s]
[OGL LOG][Proc: 0]Uz: solve_multi_gpu: 83.28 [ms]
BJhipGKOBiCGStab:  Solving for Uz, Initial residual = 0.04165103809888249, Final residual = 0.004161668658100251, No Iterations 10
[INFO] MomentumPredictor: 390.242 [ms]
[INFO] MatrixAssemblyPI: 158.062 [ms]
[INFO] MatrixAssemblyPII: 74.384 [ms]
DICPCG:  Solving for p, Initial residual = 0.05579403425860563, Final residual = 0.0005560012181151786, No Iterations 98
[INFO] SolveP: 1903.112 [ms]
time step continuity errors : sum local = 0.004591586012304384, global = 0.0007497787031961743, cumulative = -0.0006048065050902476
[INFO] postSolveP: 38.785 [ms]
[OGL LOG][Proc: 0]: global_index_init: 0.479 [ms]
[OGL LOG][Proc: 0]nuTilda_local_coeffs: call_update: 0 [ms]
[OGL LOG][Proc: 0]nuTilda_non_local_coeffs: call_update: 0 [ms]
[OGL LOG][Proc: 0]nuTilda: update_local_matrix_data: 19.755 [ms]
[OGL LOG][Proc: 0]nuTilda: update_non_local_matrix_data: 0.136 [ms]
[OGL LOG][Proc: 0]nuTilda_matrix: call_update: 6.624000000000001 [ms]
[OGL LOG][Proc: 0]nuTilda_rhs: call_update: 4.263 [ms]
[OGL LOG][Preconditioner.H:121] Generate preconditioner BJ MaxBlockSize 1
[OGL LOG][Proc: 0]nuTilda: init_precond: 0.594 [ms]
[OGL LOG][StoppingCriterion.H:373] Creating stopping criterion with minIter 3 frequency 1
[OGL LOG][Proc: 0]nuTilda: generate_solver: 0.001 [ms]
[OGL LOG][Proc: 0]nuTilda: solve: 50.067 [ms]
[OGL LOG][Proc: 0]nuTilda: copy_x_back: 2.052 [ms]
[OGL LOG][lduLduBase.H:336] 
Statistics:
	Time per iteration: 25033 [mu s]
	Time per residual norm calculation: 323.000000 [mu s]
	Time per iteration and DOF: 1.984498 [ns]
	Retrieve results bandwidth 1.847000 [GByte/s]
[OGL LOG][Proc: 0]nuTilda: solve_multi_gpu: 64.675 [ms]
BJhipGKOBiCGStab:  Solving for nuTilda, Initial residual = 0.060554068065701, Final residual = 0.004657403146844076, No Iterations 2
[INFO] TimeStep: 3960.251 [ms]
[...]
[OGL LOG][Proc: 0]Uy_matrix: call_update: 5.76 [ms]
[OGL LOG][Proc: 0]Uy_rhs: call_update: 3.511 [ms]
[OGL LOG][Preconditioner.H:121] Generate preconditioner BJ MaxBlockSize 1
[OGL LOG][Proc: 0]Uy: init_precond: 0.584 [ms]
[OGL LOG][StoppingCriterion.H:373] Creating stopping criterion with minIter 15 frequency 1
[OGL LOG][Proc: 0]Uy: generate_solver: 0.001 [ms]
[OGL LOG][Proc: 0]Uy: solve: 84.586 [ms]
[OGL LOG][Proc: 0]Uy: copy_x_back: 2.014 [ms]
[OGL LOG][lduLduBase.H:336] 
Statistics:
	Time per iteration: 8458 [mu s]
	Time per residual norm calculation: 299.000000 [mu s]
	Time per iteration and DOF: 0.670510 [ns]
	Retrieve results bandwidth 1.882000 [GByte/s]
[OGL LOG][Proc: 0]Uy: solve_multi_gpu: 97.554 [ms]
BJhipGKOBiCGStab:  Solving for Uy, Initial residual = 0.08767861769354444, Final residual = 0.008738766539988042, No Iterations 10
[OGL LOG][Proc: 0]: global_index_init: 0.216 [ms]
[OGL LOG][Proc: 0]Uz_local_coeffs: call_update: 0 [ms]
[OGL LOG][Proc: 0]Uz_non_local_coeffs: call_update: 0 [ms]
[OGL LOG][Proc: 0]Uz: update_local_matrix_data: 19.132 [ms]
[OGL LOG][Proc: 0]Uz: update_non_local_matrix_data: 0.091 [ms]
[OGL LOG][Proc: 0]Uz_matrix: call_update: 7.852 [ms]
[OGL LOG][Proc: 0]Uz_rhs: call_update: 2.313 [ms]
[OGL LOG][Preconditioner.H:121] Generate preconditioner BJ MaxBlockSize 1
[OGL LOG][Proc: 0]Uz: init_precond: 0.626 [ms]
[OGL LOG][StoppingCriterion.H:373] Creating stopping criterion with minIter 12 frequency 1
[OGL LOG][Proc: 0]Uz: generate_solver: 0.001 [ms]
[OGL LOG][Proc: 0]Uz: solve: 79.93900000000001 [ms]
[OGL LOG][Proc: 0]Uz: copy_x_back: 2.025 [ms]
[OGL LOG][lduLduBase.H:336] 
Statistics:
	Time per iteration: 6149 [mu s]
	Time per residual norm calculation: 326.000000 [mu s]
	Time per iteration and DOF: 0.487464 [ns]
	Retrieve results bandwidth 1.871000 [GByte/s]
[OGL LOG][Proc: 0]Uz: solve_multi_gpu: 93.86 [ms]
BJhipGKOBiCGStab:  Solving for Uz, Initial residual = 0.0766073895272182, Final residual = 0.006325830702647823, No Iterations 13
[INFO] MomentumPredictor: 410.463 [ms]
[INFO] MatrixAssemblyPI: 158.793 [ms]
[INFO] MatrixAssemblyPII: 74.117 [ms]
DICPCG:  Solving for p, Initial residual = 0.06026283548390542, Final residual = 0.0005934800073545147, No Iterations 219
[INFO] SolveP: 4213.589 [ms]
time step continuity errors : sum local = 0.006134981134453429, global = -0.0004420814214564212, cumulative = -0.003334932839549491
[INFO] postSolveP: 38.413 [ms]
[OGL LOG][Proc: 0]: global_index_init: 3.949 [ms]
[OGL LOG][Proc: 0]nuTilda_local_coeffs: call_update: 0 [ms]
[OGL LOG][Proc: 0]nuTilda_non_local_coeffs: call_update: 0 [ms]
[OGL LOG][Proc: 0]nuTilda: update_local_matrix_data: 21.188 [ms]
[OGL LOG][Proc: 0]nuTilda: update_non_local_matrix_data: 0.127 [ms]
[OGL LOG][Proc: 0]nuTilda_matrix: call_update: 4.535 [ms]
[OGL LOG][Proc: 0]nuTilda_rhs: call_update: 6.504 [ms]
[OGL LOG][Preconditioner.H:121] Generate preconditioner BJ MaxBlockSize 1
[OGL LOG][Proc: 0]nuTilda: init_precond: 0.639 [ms]
[OGL LOG][StoppingCriterion.H:373] Creating stopping criterion with minIter 2 frequency 1
[OGL LOG][Proc: 0]nuTilda: generate_solver: 0.001 [ms]
[OGL LOG][Proc: 0]nuTilda: solve: 45.245 [ms]
[OGL LOG][Proc: 0]nuTilda: copy_x_back: 2.031 [ms]
[OGL LOG][lduLduBase.H:336] 
Statistics:
	Time per iteration: 22622 [mu s]
	Time per residual norm calculation: 301.000000 [mu s]
	Time per iteration and DOF: 1.793365 [ns]
	Retrieve results bandwidth 1.866000 [GByte/s]
[OGL LOG][Proc: 0]nuTilda: solve_multi_gpu: 60.063 [ms]
BJhipGKOBiCGStab:  Solving for nuTilda, Initial residual = 0.0118175260470424, Final residual = 0.000717752345813566, No Iterations 2
bounding nuTilda, min: -7.121951462981009e-05 max: 0.006926020719939179 average: 0.0003406582363996152
[INFO] TimeStep: 6302.453 [ms]
ExecutionTime = 263.41 s  ClockTime = 265 s

Time = 48

velocityDampingConstraint velocityDamping damped 0 (0%) of cells, with max limit 300
[INFO] MatrixAssemblyU: 832.2619999999999 [ms]
[OGL LOG][Proc: 0]: global_index_init: 0.278 [ms]
[OGL LOG][Proc: 0]Ux_local_coeffs: call_update: 0 [ms]
[OGL LOG][Proc: 0]Ux_non_local_coeffs: call_update: 0 [ms]
[OGL LOG][Proc: 0]Ux: update_local_matrix_data: 19.556 [ms]
[OGL LOG][Proc: 0]Ux: update_non_local_matrix_data: 0.128 [ms]
[OGL LOG][Proc: 0]Ux_matrix: call_update: 4.509 [ms]
[OGL LOG][Proc: 0]Ux_rhs: call_update: 3.26 [ms]
[OGL LOG][Preconditioner.H:121] Generate preconditioner BJ MaxBlockSize 1
[OGL LOG][Proc: 0]Ux: init_precond: 0.578 [ms]
[OGL LOG][StoppingCriterion.H:373] Creating stopping criterion with minIter 13 frequency 1
[OGL LOG][Proc: 0]Ux: generate_solver: 0.001 [ms]
[OGL LOG][Proc: 0]Ux: solve: 75.73099999999999 [ms]
[OGL LOG][Proc: 0]Ux: copy_x_back: 1.969 [ms]
[OGL LOG][lduLduBase.H:336] 
Statistics:
	Time per iteration: 7573 [mu s]
	Time per residual norm calculation: 301.000000 [mu s]
	Time per iteration and DOF: 0.600352 [ns]
	Retrieve results bandwidth 1.925000 [GByte/s]
[OGL LOG][Proc: 0]Ux: solve_multi_gpu: 87.23100000000001 [ms]
BJhipGKOBiCGStab:  Solving for Ux, Initial residual = 0.01205363988469734, Final residual = 0.001090310755140811, No Iterations 10
[OGL LOG][Proc: 0]: global_index_init: 0.195 [ms]
[OGL LOG][Proc: 0]Uy_local_coeffs: call_update: 0 [ms]
[OGL LOG][Proc: 0]Uy_non_local_coeffs: call_update: 0 [ms]
[OGL LOG][Proc: 0]Uy: update_local_matrix_data: 18.875 [ms]
[OGL LOG][Proc: 0]Uy: update_non_local_matrix_data: 0.093 [ms]
[OGL LOG][Proc: 0]Uy_matrix: call_update: 5.077 [ms]
[OGL LOG][Proc: 0]Uy_rhs: call_update: 3.83 [ms]
[OGL LOG][Preconditioner.H:121] Generate preconditioner BJ MaxBlockSize 1
[OGL LOG][Proc: 0]Uy: init_precond: 0.649 [ms]
[OGL LOG][StoppingCriterion.H:373] Creating stopping criterion with minIter 12 frequency 1
[OGL LOG][Proc: 0]Uy: generate_solver: 0.001 [ms]
[OGL LOG][Proc: 0]Uy: solve: 71.73 [ms]
[OGL LOG][Proc: 0]Uy: copy_x_back: 1.986 [ms]
[OGL LOG][lduLduBase.H:336] 
Statistics:
	Time per iteration: 6520 [mu s]
	Time per residual norm calculation: 324.000000 [mu s]
	Time per iteration and DOF: 0.516875 [ns]
	Retrieve results bandwidth 1.908000 [GByte/s]
[OGL LOG][Proc: 0]Uy: solve_multi_gpu: 84.386 [ms]
BJhipGKOBiCGStab:  Solving for Uy, Initial residual = 0.06818921848921917, Final residual = 0.006061752826263428, No Iterations 11
[OGL LOG][Proc: 0]: global_index_init: 0.226 [ms]
[OGL LOG][Proc: 0]Uz_local_coeffs: call_update: 0 [ms]
[OGL LOG][Proc: 0]Uz_non_local_coeffs: call_update: 0 [ms]
[OGL LOG][Proc: 0]Uz: update_local_matrix_data: 20.006 [ms]
[OGL LOG][Proc: 0]Uz: update_non_local_matrix_data: 0.097 [ms]
[OGL LOG][Proc: 0]Uz_matrix: call_update: 4.841 [ms]
[OGL LOG][Proc: 0]Uz_rhs: call_update: 7.871 [ms]
[OGL LOG][Preconditioner.H:121] Generate preconditioner BJ MaxBlockSize 1
[OGL LOG][Proc: 0]Uz: init_precond: 0.522 [ms]
[OGL LOG][StoppingCriterion.H:373] Creating stopping criterion with minIter 15 frequency 1
[OGL LOG][Proc: 0]Uz: generate_solver: 0.001 [ms]
[OGL LOG][Proc: 0]Uz: solve: 84.071 [ms]
[OGL LOG][Proc: 0]Uz: copy_x_back: 1.995 [ms]
[OGL LOG][lduLduBase.H:336] 
Statistics:
	Time per iteration: 6005 [mu s]
	Time per residual norm calculation: 298.000000 [mu s]
	Time per iteration and DOF: 0.476048 [ns]
	Retrieve results bandwidth 1.899000 [GByte/s]
[OGL LOG][Proc: 0]Uz: solve_multi_gpu: 100.656 [ms]
BJhipGKOBiCGStab:  Solving for Uz, Initial residual = 0.078347236826597, Final residual = 0.00696499589648304, No Iterations 14
[INFO] MomentumPredictor: 408.553 [ms]
[INFO] MatrixAssemblyPI: 157.805 [ms]
[INFO] MatrixAssemblyPII: 75.667 [ms]
DICPCG:  Solving for p, Initial residual = 0.05851651478304992, Final residual = 0.0005704973318457601, No Iterations 73
[INFO] SolveP: 1524.595 [ms]
time step continuity errors : sum local = 0.005581472626655069, global = 0.0004700631389629761, cumulative = -0.002864869700586515
[INFO] postSolveP: 38.378 [ms]
[OGL LOG][Proc: 0]: global_index_init: 3.87 [ms]
[OGL LOG][Proc: 0]nuTilda_local_coeffs: call_update: 0 [ms]
[OGL LOG][Proc: 0]nuTilda_non_local_coeffs: call_update: 0 [ms]
[OGL LOG][Proc: 0]nuTilda: update_local_matrix_data: 24.983 [ms]
[OGL LOG][Proc: 0]nuTilda: update_non_local_matrix_data: 0.092 [ms]
[OGL LOG][Proc: 0]nuTilda_matrix: call_update: 3.902 [ms]
[OGL LOG][Proc: 0]nuTilda_rhs: call_update: 3.571 [ms]
[OGL LOG][Preconditioner.H:121] Generate preconditioner BJ MaxBlockSize 1
[OGL LOG][Proc: 0]nuTilda: init_precond: 0.646 [ms]
[OGL LOG][StoppingCriterion.H:373] Creating stopping criterion with minIter 3 frequency 1
[OGL LOG][Proc: 0]nuTilda: generate_solver: 0.002 [ms]
[OGL LOG][Proc: 0]nuTilda: solve: 47.075 [ms]
[OGL LOG][Proc: 0]nuTilda: copy_x_back: 2.007 [ms]
[OGL LOG][lduLduBase.H:336] 
Statistics:
	Time per iteration: 23537 [mu s]
	Time per residual norm calculation: 324.000000 [mu s]
	Time per iteration and DOF: 1.865902 [ns]
	Retrieve results bandwidth 1.888000 [GByte/s]
[OGL LOG][Proc: 0]nuTilda: solve_multi_gpu: 58.261 [ms]
BJhipGKOBiCGStab:  Solving for nuTilda, Initial residual = 0.0151514488413284, Final residual = 0.001345949458370168, No Iterations 2
bounding nuTilda, min: -0.000297946927340551 max: 0.006965925105012184 average: 0.0003477022686093387
[INFO] TimeStep: 3611.266 [ms]
ExecutionTime = 267.64 s  ClockTime = 269 s

Time = 49

velocityDampingConstraint velocityDamping damped 0 (0%) of cells, with max limit 300
[INFO] MatrixAssemblyU: 832.4 [ms]
[OGL LOG][Proc: 0]: global_index_init: 0.223 [ms]
[OGL LOG][Proc: 0]Ux_local_coeffs: call_update: 0 [ms]
[OGL LOG][Proc: 0]Ux_non_local_coeffs: call_update: 0 [ms]
[OGL LOG][Proc: 0]Ux: update_local_matrix_data: 20.283 [ms]
[OGL LOG][Proc: 0]Ux: update_non_local_matrix_data: 0.1 [ms]
[OGL LOG][Proc: 0]Ux_matrix: call_update: 4.064 [ms]
[OGL LOG][Proc: 0]Ux_rhs: call_update: 4.22 [ms]
[OGL LOG][Preconditioner.H:121] Generate preconditioner BJ MaxBlockSize 1
[OGL LOG][Proc: 0]Ux: init_precond: 0.582 [ms]
[OGL LOG][StoppingCriterion.H:373] Creating stopping criterion with minIter 12 frequency 1
[OGL LOG][Proc: 0]Ux: generate_solver: 0.001 [ms]
[OGL LOG][Proc: 0]Ux: solve: 68.489 [ms]
[OGL LOG][Proc: 0]Ux: copy_x_back: 2.125 [ms]
[OGL LOG][lduLduBase.H:336] 
Statistics:
	Time per iteration: 6848 [mu s]
	Time per residual norm calculation: 320.000000 [mu s]
	Time per iteration and DOF: 0.542877 [ns]
	Retrieve results bandwidth 1.783000 [GByte/s]
[OGL LOG][Proc: 0]Ux: solve_multi_gpu: 80.59100000000001 [ms]
BJhipGKOBiCGStab:  Solving for Ux, Initial residual = 0.01153030454931355, Final residual = 0.001058590261784932, No Iterations 10
[OGL LOG][Proc: 0]: global_index_init: 2.897 [ms]
[OGL LOG][Proc: 0]Uy_local_coeffs: call_update: 0 [ms]
[OGL LOG][Proc: 0]Uy_non_local_coeffs: call_update: 0 [ms]
[OGL LOG][Proc: 0]Uy: update_local_matrix_data: 21.214 [ms]
[OGL LOG][Proc: 0]Uy: update_non_local_matrix_data: 0.105 [ms]
[OGL LOG][Proc: 0]Uy_matrix: call_update: 8.933 [ms]
[OGL LOG][Proc: 0]Uy_rhs: call_update: 0.675 [ms]
[OGL LOG][Preconditioner.H:121] Generate preconditioner BJ MaxBlockSize 1
[OGL LOG][Proc: 0]Uy: init_precond: 0.55 [ms]
[OGL LOG][StoppingCriterion.H:373] Creating stopping criterion with minIter 13 frequency 1
[OGL LOG][Proc: 0]Uy: generate_solver: 0.002 [ms]
[OGL LOG][Proc: 0]Uy: solve: 86.98400000000001 [ms]
[OGL LOG][Proc: 0]Uy: copy_x_back: 2.201 [ms]
[OGL LOG][lduLduBase.H:336] 
Statistics:
	Time per iteration: 5436 [mu s]
	Time per residual norm calculation: 326.000000 [mu s]
	Time per iteration and DOF: 0.430940 [ns]
	Retrieve results bandwidth 1.722000 [GByte/s]
[OGL LOG][Proc: 0]Uy: solve_multi_gpu: 100.491 [ms]
BJhipGKOBiCGStab:  Solving for Uy, Initial residual = 0.06367281359051068, Final residual = 0.002690167703177219, No Iterations 16
[OGL LOG][Proc: 0]: global_index_init: 0.204 [ms]
[OGL LOG][Proc: 0]Uz_local_coeffs: call_update: 0 [ms]
[OGL LOG][Proc: 0]Uz_non_local_coeffs: call_update: 0 [ms]
[OGL LOG][Proc: 0]Uz: update_local_matrix_data: 23.849 [ms]
[OGL LOG][Proc: 0]Uz: update_non_local_matrix_data: 0.094 [ms]
[OGL LOG][Proc: 0]Uz_matrix: call_update: 3.941 [ms]
[OGL LOG][Proc: 0]Uz_rhs: call_update: 4.208 [ms]
[OGL LOG][Preconditioner.H:121] Generate preconditioner BJ MaxBlockSize 1
[OGL LOG][Proc: 0]Uz: init_precond: 0.577 [ms]
[OGL LOG][StoppingCriterion.H:373] Creating stopping criterion with minIter 17 frequency 1
[OGL LOG][Proc: 0]Uz: generate_solver: 0.002 [ms]
[OGL LOG][Proc: 0]Uz: solve: 77.291 [ms]
[OGL LOG][Proc: 0]Uz: copy_x_back: 2.062 [ms]
[OGL LOG][lduLduBase.H:336] 
Statistics:
	Time per iteration: 6440 [mu s]
	Time per residual norm calculation: 310.000000 [mu s]
	Time per iteration and DOF: 0.510533 [ns]
	Retrieve results bandwidth 1.838000 [GByte/s]
[OGL LOG][Proc: 0]Uz: solve_multi_gpu: 89.27 [ms]
BJhipGKOBiCGStab:  Solving for Uz, Initial residual = 0.06976982097352395, Final residual = 0.00649909784190556, No Iterations 12
[INFO] MomentumPredictor: 416.032 [ms]
[INFO] MatrixAssemblyPI: 157.68 [ms]
[INFO] MatrixAssemblyPII: 75.41 [ms]
DICPCG:  Solving for p, Initial residual = 0.06007475905570706, Final residual = 0.0005920851276375254, No Iterations 90
[INFO] SolveP: 1757.659 [ms]
time step continuity errors : sum local = 0.005755672203349558, global = 0.001175081502516656, cumulative = -0.001689788198069859
[INFO] postSolveP: 38.24 [ms]
[OGL LOG][Proc: 0]: global_index_init: 1.962 [ms]
[OGL LOG][Proc: 0]nuTilda_local_coeffs: call_update: 0 [ms]
[OGL LOG][Proc: 0]nuTilda_non_local_coeffs: call_update: 0 [ms]
[OGL LOG][Proc: 0]nuTilda: update_local_matrix_data: 21.069 [ms]
[OGL LOG][Proc: 0]nuTilda: update_non_local_matrix_data: 0.093 [ms]
[OGL LOG][Proc: 0]nuTilda_matrix: call_update: 5.051 [ms]
[OGL LOG][Proc: 0]nuTilda_rhs: call_update: 6.103 [ms]
[OGL LOG][Preconditioner.H:121] Generate preconditioner BJ MaxBlockSize 1
[OGL LOG][Proc: 0]nuTilda: init_precond: 0.5760000000000001 [ms]
[OGL LOG][StoppingCriterion.H:373] Creating stopping criterion with minIter 2 frequency 1
[OGL LOG][Proc: 0]nuTilda: generate_solver: 0.001 [ms]
[OGL LOG][Proc: 0]nuTilda: solve: 43.434 [ms]
[OGL LOG][Proc: 0]nuTilda: copy_x_back: 2.006 [ms]
[OGL LOG][lduLduBase.H:336] 
Statistics:
	Time per iteration: 21717 [mu s]
	Time per residual norm calculation: 360.000000 [mu s]
	Time per iteration and DOF: 1.721621 [ns]
	Retrieve results bandwidth 1.889000 [GByte/s]
[OGL LOG][Proc: 0]nuTilda: solve_multi_gpu: 58.389 [ms]
BJhipGKOBiCGStab:  Solving for nuTilda, Initial residual = 0.01139578302613494, Final residual = 0.0007002305584561076, No Iterations 2
bounding nuTilda, min: -0.0001012105275097292 max: 0.007018861300180876 average: 0.0003574697150274738
[INFO] TimeStep: 3850.303 [ms]
ExecutionTime = 272.11 s  ClockTime = 274 s

Time = 50

velocityDampingConstraint velocityDamping damped 0 (0%) of cells, with max limit 300
[INFO] MatrixAssemblyU: 828.571 [ms]
[OGL LOG][Proc: 0]: global_index_init: 0.256 [ms]
[OGL LOG][Proc: 0]Ux_local_coeffs: call_update: 0 [ms]
[OGL LOG][Proc: 0]Ux_non_local_coeffs: call_update: 0 [ms]
[OGL LOG][Proc: 0]Ux: update_local_matrix_data: 20.752 [ms]
[OGL LOG][Proc: 0]Ux: update_non_local_matrix_data: 0.09 [ms]
[OGL LOG][Proc: 0]Ux_matrix: call_update: 7.051 [ms]
[OGL LOG][Proc: 0]Ux_rhs: call_update: 1.537 [ms]
[OGL LOG][Preconditioner.H:121] Generate preconditioner BJ MaxBlockSize 1
[OGL LOG][Proc: 0]Ux: init_precond: 0.623 [ms]
[OGL LOG][StoppingCriterion.H:373] Creating stopping criterion with minIter 12 frequency 1
[OGL LOG][Proc: 0]Ux: generate_solver: 0.001 [ms]
[OGL LOG][Proc: 0]Ux: solve: 87.65000000000001 [ms]
[OGL LOG][Proc: 0]Ux: copy_x_back: 1.983 [ms]
[OGL LOG][lduLduBase.H:336] 
Statistics:
	Time per iteration: 7304 [mu s]
	Time per residual norm calculation: 322.000000 [mu s]
	Time per iteration and DOF: 0.579027 [ns]
	Retrieve results bandwidth 1.911000 [GByte/s]
[OGL LOG][Proc: 0]Ux: solve_multi_gpu: 100.417 [ms]
BJhipGKOBiCGStab:  Solving for Ux, Initial residual = 0.0124376522630255, Final residual = 0.0008257064498456757, No Iterations 12
[OGL LOG][Proc: 0]: global_index_init: 0.225 [ms]
[OGL LOG][Proc: 0]Uy_local_coeffs: call_update: 0 [ms]
[OGL LOG][Proc: 0]Uy_non_local_coeffs: call_update: 0 [ms]
[OGL LOG][Proc: 0]Uy: update_local_matrix_data: 20.463 [ms]
[OGL LOG][Proc: 0]Uy: update_non_local_matrix_data: 0.08799999999999999 [ms]
[OGL LOG][Proc: 0]Uy_matrix: call_update: 8.500999999999999 [ms]
[OGL LOG][Proc: 0]Uy_rhs: call_update: 0.921 [ms]
[OGL LOG][Preconditioner.H:121] Generate preconditioner BJ MaxBlockSize 1
[OGL LOG][Proc: 0]Uy: init_precond: 0.5690000000000001 [ms]
[OGL LOG][StoppingCriterion.H:373] Creating stopping criterion with minIter 19 frequency 1
[OGL LOG][Proc: 0]Uy: generate_solver: 0.001 [ms]
[OGL LOG][Proc: 0]Uy: solve: 80.148 [ms]
[OGL LOG][Proc: 0]Uy: copy_x_back: 2 [ms]
[OGL LOG][lduLduBase.H:336] 
Statistics:
	Time per iteration: 5724 [mu s]
	Time per residual norm calculation: 322.000000 [mu s]
	Time per iteration and DOF: 0.453772 [ns]
	Retrieve results bandwidth 1.895000 [GByte/s]
[OGL LOG][Proc: 0]Uy: solve_multi_gpu: 93.294 [ms]
BJhipGKOBiCGStab:  Solving for Uy, Initial residual = 0.06519036571934644, Final residual = 0.005335021150838032, No Iterations 14
[OGL LOG][Proc: 0]: global_index_init: 0.218 [ms]
[OGL LOG][Proc: 0]Uz_local_coeffs: call_update: 0 [ms]
[OGL LOG][Proc: 0]Uz_non_local_coeffs: call_update: 0 [ms]
[OGL LOG][Proc: 0]Uz: update_local_matrix_data: 20.165 [ms]
[OGL LOG][Proc: 0]Uz: update_non_local_matrix_data: 0.082 [ms]
[OGL LOG][Proc: 0]Uz_matrix: call_update: 4.789 [ms]
[OGL LOG][Proc: 0]Uz_rhs: call_update: 2.976 [ms]
[OGL LOG][Preconditioner.H:121] Generate preconditioner BJ MaxBlockSize 1
[OGL LOG][Proc: 0]Uz: init_precond: 0.583 [ms]
[OGL LOG][StoppingCriterion.H:373] Creating stopping criterion with minIter 15 frequency 1
[OGL LOG][Proc: 0]Uz: generate_solver: 0.001 [ms]
[OGL LOG][Proc: 0]Uz: solve: 72.071 [ms]
[OGL LOG][Proc: 0]Uz: copy_x_back: 2.026 [ms]
[OGL LOG][lduLduBase.H:336] 
Statistics:
	Time per iteration: 6551 [mu s]
	Time per residual norm calculation: 303.000000 [mu s]
	Time per iteration and DOF: 0.519332 [ns]
	Retrieve results bandwidth 1.870000 [GByte/s]
[OGL LOG][Proc: 0]Uz: solve_multi_gpu: 83.554 [ms]
BJhipGKOBiCGStab:  Solving for Uz, Initial residual = 0.06792273730997542, Final residual = 0.0064125988082872, No Iterations 11
[INFO] MomentumPredictor: 417.29 [ms]
[INFO] MatrixAssemblyPI: 156.582 [ms]
[INFO] MatrixAssemblyPII: 76.167 [ms]
DICPCG:  Solving for p, Initial residual = 0.1788497063790289, Final residual = 0.001736252190085839, No Iterations 111
[INFO] SolveP: 2385.073 [ms]
time step continuity errors : sum local = 0.01873786024445179, global = 0.00145277847554777, cumulative = -0.0002370097225220895
[INFO] postSolveP: 39.188 [ms]
[OGL LOG][Proc: 0]: global_index_init: 0.049 [ms]
[OGL LOG][Proc: 0]nuTilda_local_coeffs: call_update: 0 [ms]
[OGL LOG][Proc: 0]nuTilda_non_local_coeffs: call_update: 0 [ms]
[OGL LOG][Proc: 0]nuTilda: update_local_matrix_data: 20.131 [ms]
[OGL LOG][Proc: 0]nuTilda: update_non_local_matrix_data: 0.104 [ms]
[OGL LOG][Proc: 0]nuTilda_matrix: call_update: 7.013 [ms]
[OGL LOG][Proc: 0]nuTilda_rhs: call_update: 2.915 [ms]
[OGL LOG][Preconditioner.H:121] Generate preconditioner BJ MaxBlockSize 1
[OGL LOG][Proc: 0]nuTilda: init_precond: 0.584 [ms]
[OGL LOG][StoppingCriterion.H:373] Creating stopping criterion with minIter 3 frequency 1
[OGL LOG][Proc: 0]nuTilda: generate_solver: 0.001 [ms]
[OGL LOG][Proc: 0]nuTilda: solve: 45.317 [ms]
[OGL LOG][Proc: 0]nuTilda: copy_x_back: 2.015 [ms]
[OGL LOG][lduLduBase.H:336] 
Statistics:
	Time per iteration: 22658 [mu s]
	Time per residual norm calculation: 327.000000 [mu s]
	Time per iteration and DOF: 1.796219 [ns]
	Retrieve results bandwidth 1.881000 [GByte/s]
[OGL LOG][Proc: 0]nuTilda: solve_multi_gpu: 59.029 [ms]
BJhipGKOBiCGStab:  Solving for nuTilda, Initial residual = 0.01462043411390155, Final residual = 0.001350497548010694, No Iterations 2
bounding nuTilda, min: -0.0004813672163838235 max: 0.00705254947205545 average: 0.0003649778928452651
[INFO] TimeStep: 4476.93 [ms]
ExecutionTime = 277.2 s  ClockTime = 279 s

End

Finalising parallel run
