/*---------------------------------------------------------------------------*\
| =========                 |                                                 |
| \\      /  F ield         | OpenFOAM: The Open Source CFD Toolbox           |
|  \\    /   O peration     | Version:  2306                                  |
|   \\  /    A nd           | Website:  www.openfoam.com                      |
|    \\/     M anipulation  |                                                 |
\*---------------------------------------------------------------------------*/
Build  : a6e826bd55-20230630 OPENFOAM=2306 version=v2306
Arch   : "LSB;label=32;scalar=64"
Exec   : decomposePar -force
Date   : Aug 01 2023
Time   : 14:49:50
Host   : nla-gpu2.ianm.kit.edu
PID    : 35546
--> FOAM Warning : 
    From Foam::fileName Foam::cwd_L()
    in file POSIX.C at line 552
    PWD is not the cwd() - reverting to physical description
I/O    : uncollated
--> FOAM Warning : 
    From Foam::fileName Foam::cwd_L()
    in file POSIX.C at line 552
    PWD is not the cwd() - reverting to physical description
Case   : /home/greole/data/code/exasim_project/micro_benchmarks/WindsorBody/workspace/93c08be470a591a4c35ce124acef7fd3/case
nProcs : 1
trapFpe: Floating point exception trapping enabled (FOAM_SIGFPE).
fileModificationChecking : Monitoring run-time modified files using timeStampMaster (fileModificationSkew 5, maxFileModificationPolls 20)
allowSystemOperations : Allowing user-supplied system call operations

// * * * * * * * * * * * * * * * * * * * * * * * * * * * * * * * * * * * * * //
Create time

--> FOAM Warning : 
    From void* Foam::dlLibraryTable::openLibrary(const Foam::fileName&, bool)
    in file db/dynamicLibrary/dlLibraryTable/dlLibraryTable.C at line 188
    Could not load "libpetscFoam.so"
libpetscFoam.so: cannot open shared object file: No such file or directory


Decomposing mesh

Create mesh

Calculating distribution of cells
Decomposition method simple [16] (region region0)

Finished decomposition in 14.14 s

Calculating original mesh data

Distributing cells to processors

Distributing faces to processors

Distributing points to processors

Constructing processor meshes

Processor 0
    Number of cells = 1421751
    Number of points = 1499429
    Number of faces shared with processor 1 = 6642
    Number of faces shared with processor 4 = 6288
    Number of faces shared with processor 8 = 25112
    Number of faces shared with processor 9 = 3
    Number of processor patches = 4
    Number of processor faces = 38045
    Number of boundary faces = 109762

Processor 1
    Number of cells = 959421
    Number of points = 1008896
    Number of faces shared with processor 0 = 6642
    Number of faces shared with processor 2 = 7737
    Number of faces shared with processor 5 = 4594
    Number of faces shared with processor 9 = 29104
    Number of processor patches = 4
    Number of processor faces = 48077
    Number of boundary faces = 42375

Processor 2
    Number of cells = 932129
    Number of points = 979399
    Number of faces shared with processor 1 = 7737
    Number of faces shared with processor 3 = 7648
    Number of faces shared with processor 6 = 4371
    Number of faces shared with processor 9 = 5
    Number of faces shared with processor 10 = 29569
    Number of faces shared with processor 11 = 3
    Number of processor patches = 6
    Number of processor faces = 49333
    Number of boundary faces = 35855

Processor 3
    Number of cells = 1377639
    Number of points = 1455869
    Number of faces shared with processor 2 = 7648
    Number of faces shared with processor 7 = 6864
    Number of faces shared with processor 10 = 10
    Number of faces shared with processor 11 = 33092
    Number of processor patches = 4
    Number of processor faces = 47614
    Number of boundary faces = 75832

Processor 4
    Number of cells = 1432030
    Number of points = 1510298
    Number of faces shared with processor 0 = 6288
    Number of faces shared with processor 5 = 6539
    Number of faces shared with processor 12 = 24733
    Number of processor patches = 3
    Number of processor faces = 37560
    Number of boundary faces = 110623

Processor 5
    Number of cells = 980031
    Number of points = 1029543
    Number of faces shared with processor 1 = 4594
    Number of faces shared with processor 4 = 6539
    Number of faces shared with processor 6 = 7906
    Number of faces shared with processor 9 = 2
    Number of faces shared with processor 13 = 28327
    Number of faces shared with processor 14 = 1
    Number of processor patches = 6
    Number of processor faces = 47369
    Number of boundary faces = 42503

Processor 6
    Number of cells = 955871
    Number of points = 1002537
    Number of faces shared with processor 2 = 4371
    Number of faces shared with processor 5 = 7906
    Number of faces shared with processor 7 = 7790
    Number of faces shared with processor 14 = 29179
    Number of faces shared with processor 15 = 21
    Number of processor patches = 5
    Number of processor faces = 49267
    Number of boundary faces = 35923

Processor 7
    Number of cells = 1401832
    Number of points = 1480249
    Number of faces shared with processor 3 = 6864
    Number of faces shared with processor 6 = 7790
    Number of faces shared with processor 14 = 10
    Number of faces shared with processor 15 = 32385
    Number of processor patches = 4
    Number of processor faces = 47049
    Number of boundary faces = 75797

Processor 8
    Number of cells = 943904
    Number of points = 1021029
    Number of faces shared with processor 0 = 25112
    Number of faces shared with processor 9 = 7754
    Number of faces shared with processor 12 = 5443
    Number of processor patches = 3
    Number of processor faces = 38309
    Number of boundary faces = 57343

Processor 9
    Number of cells = 1410951
    Number of points = 1474369
    Number of faces shared with processor 0 = 3
    Number of faces shared with processor 1 = 29104
    Number of faces shared with processor 2 = 5
    Number of faces shared with processor 5 = 2
    Number of faces shared with processor 8 = 7754
    Number of faces shared with processor 10 = 13530
    Number of faces shared with processor 13 = 8248
    Number of processor patches = 7
    Number of processor faces = 58646
    Number of boundary faces = 12212

Processor 10
    Number of cells = 1430307
    Number of points = 1490770
    Number of faces shared with processor 2 = 29569
    Number of faces shared with processor 3 = 10
    Number of faces shared with processor 9 = 13530
    Number of faces shared with processor 11 = 13474
    Number of faces shared with processor 14 = 8566
    Number of faces shared with processor 15 = 1
    Number of processor patches = 6
    Number of processor faces = 65150
    Number of boundary faces = 440

Processor 11
    Number of cells = 984602
    Number of points = 1046798
    Number of faces shared with processor 2 = 3
    Number of faces shared with processor 3 = 33092
    Number of faces shared with processor 10 = 13474
    Number of faces shared with processor 15 = 7465
    Number of processor patches = 4
    Number of processor faces = 54034
    Number of boundary faces = 3704

Processor 12
    Number of cells = 932667
    Number of points = 1009701
    Number of faces shared with processor 4 = 24733
    Number of faces shared with processor 8 = 5443
    Number of faces shared with processor 13 = 7546
    Number of processor patches = 3
    Number of processor faces = 37722
    Number of boundary faces = 56434

Processor 13
    Number of cells = 1379949
    Number of points = 1442218
    Number of faces shared with processor 5 = 28327
    Number of faces shared with processor 9 = 8248
    Number of faces shared with processor 12 = 7546
    Number of faces shared with processor 14 = 13034
    Number of processor patches = 4
    Number of processor faces = 57155
    Number of boundary faces = 11921

Processor 14
    Number of cells = 1412045
    Number of points = 1471783
    Number of faces shared with processor 5 = 1
    Number of faces shared with processor 6 = 29179
    Number of faces shared with processor 7 = 10
    Number of faces shared with processor 10 = 8566
    Number of faces shared with processor 13 = 13034
    Number of faces shared with processor 15 = 13310
    Number of processor patches = 6
    Number of processor faces = 64100
    Number of boundary faces = 440

Processor 15
    Number of cells = 966279
    Number of points = 1028038
    Number of faces shared with processor 6 = 21
    Number of faces shared with processor 7 = 32385
    Number of faces shared with processor 10 = 1
    Number of faces shared with processor 11 = 7465
    Number of faces shared with processor 14 = 13310
    Number of processor patches = 5
    Number of processor faces = 53182
    Number of boundary faces = 3704

Number of processor faces = 396306
Max number of cells = 1432030 (21.09289118441926% above average 1182588)
Max number of processor patches = 7 (51.35135135135135% above average 4.625)
Max number of faces between processors = 65150 (31.51453674685723% above average 49538.25)

Time = 0

Processor 0: field transfer
--> FOAM Warning : 
    From void* Foam::dlLibraryTable::openLibrary(const Foam::fileName&, bool)
    in file db/dynamicLibrary/dlLibraryTable/dlLibraryTable.C at line 188
    Could not load "libpetscFoam.so"
libpetscFoam.so: cannot open shared object file: No such file or directory
Processor 1: field transfer
--> FOAM Warning : 
    From void* Foam::dlLibraryTable::openLibrary(const Foam::fileName&, bool)
    in file db/dynamicLibrary/dlLibraryTable/dlLibraryTable.C at line 188
    Could not load "libpetscFoam.so"
libpetscFoam.so: cannot open shared object file: No such file or directory
Processor 2: field transfer
--> FOAM Warning : 
    From void* Foam::dlLibraryTable::openLibrary(const Foam::fileName&, bool)
    in file db/dynamicLibrary/dlLibraryTable/dlLibraryTable.C at line 188
    Could not load "libpetscFoam.so"
libpetscFoam.so: cannot open shared object file: No such file or directory
Processor 3: field transfer
--> FOAM Warning : 
    From void* Foam::dlLibraryTable::openLibrary(const Foam::fileName&, bool)
    in file db/dynamicLibrary/dlLibraryTable/dlLibraryTable.C at line 188
    Could not load "libpetscFoam.so"
libpetscFoam.so: cannot open shared object file: No such file or directory
Processor 4: field transfer
--> FOAM Warning : 
    From void* Foam::dlLibraryTable::openLibrary(const Foam::fileName&, bool)
    in file db/dynamicLibrary/dlLibraryTable/dlLibraryTable.C at line 188
    Could not load "libpetscFoam.so"
libpetscFoam.so: cannot open shared object file: No such file or directory
Processor 5: field transfer
--> FOAM Warning : 
    From void* Foam::dlLibraryTable::openLibrary(const Foam::fileName&, bool)
    in file db/dynamicLibrary/dlLibraryTable/dlLibraryTable.C at line 188
    Could not load "libpetscFoam.so"
libpetscFoam.so: cannot open shared object file: No such file or directory
Processor 6: field transfer
--> FOAM Warning : 
    From void* Foam::dlLibraryTable::openLibrary(const Foam::fileName&, bool)
    in file db/dynamicLibrary/dlLibraryTable/dlLibraryTable.C at line 188
    Could not load "libpetscFoam.so"
libpetscFoam.so: cannot open shared object file: No such file or directory
Processor 7: field transfer
--> FOAM Warning : 
    From void* Foam::dlLibraryTable::openLibrary(const Foam::fileName&, bool)
    in file db/dynamicLibrary/dlLibraryTable/dlLibraryTable.C at line 188
    Could not load "libpetscFoam.so"
libpetscFoam.so: cannot open shared object file: No such file or directory
Processor 8: field transfer
--> FOAM Warning : 
    From void* Foam::dlLibraryTable::openLibrary(const Foam::fileName&, bool)
    in file db/dynamicLibrary/dlLibraryTable/dlLibraryTable.C at line 188
    Could not load "libpetscFoam.so"
libpetscFoam.so: cannot open shared object file: No such file or directory
Processor 9: field transfer
--> FOAM Warning : 
    From void* Foam::dlLibraryTable::openLibrary(const Foam::fileName&, bool)
    in file db/dynamicLibrary/dlLibraryTable/dlLibraryTable.C at line 188
    Could not load "libpetscFoam.so"
libpetscFoam.so: cannot open shared object file: No such file or directory
Processor 10: field transfer
--> FOAM Warning : 
    From void* Foam::dlLibraryTable::openLibrary(const Foam::fileName&, bool)
    in file db/dynamicLibrary/dlLibraryTable/dlLibraryTable.C at line 188
    Could not load "libpetscFoam.so"
libpetscFoam.so: cannot open shared object file: No such file or directory
Processor 11: field transfer
--> FOAM Warning : 
    From void* Foam::dlLibraryTable::openLibrary(const Foam::fileName&, bool)
    in file db/dynamicLibrary/dlLibraryTable/dlLibraryTable.C at line 188
    Could not load "libpetscFoam.so"
libpetscFoam.so: cannot open shared object file: No such file or directory
Processor 12: field transfer
--> FOAM Warning : 
    From void* Foam::dlLibraryTable::openLibrary(const Foam::fileName&, bool)
    in file db/dynamicLibrary/dlLibraryTable/dlLibraryTable.C at line 188
    Could not load "libpetscFoam.so"
libpetscFoam.so: cannot open shared object file: No such file or directory
Processor 13: field transfer
--> FOAM Warning : 
    From void* Foam::dlLibraryTable::openLibrary(const Foam::fileName&, bool)
    in file db/dynamicLibrary/dlLibraryTable/dlLibraryTable.C at line 188
    Could not load "libpetscFoam.so"
libpetscFoam.so: cannot open shared object file: No such file or directory
Processor 14: field transfer
--> FOAM Warning : 
    From void* Foam::dlLibraryTable::openLibrary(const Foam::fileName&, bool)
    in file db/dynamicLibrary/dlLibraryTable/dlLibraryTable.C at line 188
    Could not load "libpetscFoam.so"
libpetscFoam.so: cannot open shared object file: No such file or directory
Processor 15: field transfer
--> FOAM Warning : 
    From void* Foam::dlLibraryTable::openLibrary(const Foam::fileName&, bool)
    in file db/dynamicLibrary/dlLibraryTable/dlLibraryTable.C at line 188
    Could not load "libpetscFoam.so"
libpetscFoam.so: cannot open shared object file: No such file or directory

End

