/*---------------------------------------------------------------------------*\
| =========                 |                                                 |
| \\      /  F ield         | OpenFOAM: The Open Source CFD Toolbox           |
|  \\    /   O peration     | Version:  v2106                                 |
|   \\  /    A nd           | Website:  www.openfoam.com                      |
|    \\/     M anipulation  |                                                 |
\*---------------------------------------------------------------------------*/
Build  : f815a12bba-20210902 OPENFOAM=2106
Arch   : "LSB;label=32;scalar=64"
Exec   : icoFoam -parallel -case /home/greole/data/code/micro_benchmarks/LidDrivenCavity3D/workspace/c0e90ba21a5f8e6994909406f33fb153/case
Date   : Mar 06 2023
Time   : 03:02:11
Host   : nla-gpu2.ianm.kit.edu
PID    : 2123851
I/O    : uncollated
Case   : /home/greole/data/code/micro_benchmarks/LidDrivenCavity3D/workspace/c0e90ba21a5f8e6994909406f33fb153/case
nProcs : 16
Hosts  :
(
    (nla-gpu2.ianm.kit.edu 16)
)
Pstream initialized with:
    floatTransfer      : 0
    nProcsSimpleSum    : 0
    commsType          : nonBlocking
    polling iterations : 0
trapFpe: Floating point exception trapping enabled (FOAM_SIGFPE).
fileModificationChecking : Monitoring run-time modified files using timeStampMaster (fileModificationSkew 5, maxFileModificationPolls 20)
allowSystemOperations : Allowing user-supplied system call operations

// * * * * * * * * * * * * * * * * * * * * * * * * * * * * * * * * * * * * * //
Create time

--> FOAM Warning : 
    From virtual void Foam::Time::readDict()
    in file db/Time/TimeIO.C at line 411
    Reading "/home/greole/data/code/micro_benchmarks/LidDrivenCavity3D/workspace/c0e90ba21a5f8e6994909406f33fb153/case/system/controlDict" at line 17 to 47
    Disabled binary format compression (inefficient/ineffective)
Create mesh for time = 0


PISO: Operating solver in PISO mode

Reading transportProperties

Reading field p

Reading field U

Reading/calculating face flux field phi


Starting time loop

Time = 0.00025

Courant Number mean: 8.24341e-18 max: 2.08167e-14
[INFO] MatrixAssemblyU: 147.3 [ms]
DILUPBiCGStab:  Solving for Ux, Initial residual = 1, Final residual = 0.00994539, No Iterations 5
DILUPBiCGStab:  Solving for Uy:  solution singularity
DILUPBiCGStab:  Solving for Uz:  solution singularity
linear solve U 448.927 [ms]
[INFO] MomentumPredictor: 514.51 [ms]
[INFO] MatrixAssemblyPI: 165.163 [ms]
[INFO] AdjustPhi: 7.189 [ms]
[INFO] ConstrainPressure: 0.007 [ms]
[INFO] MatrixAssemblyPII: 51.067 [ms]
[OGL LOG][lduLduBase.H:121] Initialising OGL
	OGL commit:  84e53c6+
	Branch: HEAD 
	Build type: Debug
	Ginkgo version: 1.5.0 ( develop)
	Ginkgo commit: 6b441077b
	MPI is GPU aware: 0
	Forces host buffer based communication: 1
	CPU ranks per GPU: 2
	Matrix format: Coo
	End OGL_INFO
[OGL LOG][Proc: 0]: global_index_init: 90.561 [ms]
[OGL LOG][Proc: 0]p_local_cols: call_init: 0.277 [ms]
[OGL LOG][Proc: 0]p_local_rows: call_init: 0.021 [ms]
[OGL LOG][Proc: 0]p_local_ldu_map: call_init: 0.007 [ms]
[OGL LOG][Proc: 0]p_local_coeffs: call_init: 0.114 [ms]
[OGL LOG][Proc: 0]p_non_local_cols: call_init: 0.005 [ms]
[OGL LOG][Proc: 0]p_non_local_rows: call_init: 0.003 [ms]
[OGL LOG][Proc: 0]p_non_local_ldu_map: call_init: 0.005 [ms]
[OGL LOG][Proc: 0]p_non_local_coeffs: call_init: 0.006 [ms]
[OGL LOG][Proc: 0]p: init_local_sparsity_pattern: 685.407 [ms]
[OGL LOG][Proc: 0]p: init_non_local_sparsity_pattern: 164.526 [ms]
[OGL LOG][Proc: 0]p: update_local_matrix_data: 29.62 [ms]
[OGL LOG][Proc: 0]p: update_non_local_matrix_data: 103.293 [ms]
[OGL LOG][Proc: 0]device_partition: call_init: 15.997 [ms]
[OGL LOG][Proc: 0]local_scatter_map: call_init: 3.192 [ms]
[OGL LOG][Proc: 0]non_local_scatter_map: call_init: 0.058 [ms]
[OGL LOG][Proc: 0]sorting_idx: call_init: 1.525 [ms]
[OGL LOG][Proc: 0]send_sizes: call_init: 0.016 [ms]
[OGL LOG][Proc: 0]send_offs: call_init: 0.008 [ms]
[OGL LOG][Proc: 0]recv_sizes: call_init: 0.006 [ms]
[OGL LOG][Proc: 0]recv_offs: call_init: 0.007 [ms]
[OGL LOG][Proc: 0]p_matrix: call_init: 1033.29 [ms]
[OGL LOG][Proc: 0]p_rhs: call_init: 18.981 [ms]
[OGL LOG][Proc: 0]p_solution: call_init: 8.233 [ms]
[OGL LOG][Proc: 0]p: init_precond: 0.149 [ms]
[OGL LOG][StoppingCriterion.H:372] Creating stopping criterion with minIter 0 frequency 1
[OGL LOG][Proc: 0]p: generate_solver: 0.427 [ms]
[OGL LOG][Proc: 0]p: solve: 2799.61 [ms]
[OGL LOG][Proc: 0]p: copy_x_back: 12.98 [ms]
[OGL LOG][lduLduBase.H:319] 
Statistics:
	Time per iteration: 1737 [mu s]
	Time per residual norm calculation: 3063.000000 [mu s]
	Time per iteration and DOF: 0.217125 [ns]
	Retrieve results bandwith 0.616000 [GByte/s]
[OGL LOG][Proc: 0]p: solve_multi_gpu: 3891.84 [ms]
nonehipGKOCG:  Solving for p, Initial residual = 1, Final residual = 9.86258e-05, No Iterations 1611
linear solve p 5679.57 [ms]
[INFO] SolveP: 5679.61 [ms]
time step continuity errors : sum local = 7.57104e-09, global = -2.32052e-21, cumulative = -2.32052e-21
[INFO] ContinuityError: 22.373 [ms]
[INFO] CorrectBoundary: 0.983 [ms]
[INFO] PISOStep: 5990.03 [ms]
[INFO] MatrixAssemblyPI: 150.879 [ms]
[INFO] AdjustPhi: 8.167 [ms]
[INFO] ConstrainPressure: 0.004 [ms]
[INFO] MatrixAssemblyPII: 46.808 [ms]
[OGL LOG][Proc: 0]: global_index_init: 0.237 [ms]
[OGL LOG][Proc: 0]p_local_coeffs: call_update: 0.001 [ms]
[OGL LOG][Proc: 0]p_non_local_coeffs: call_update: 0 [ms]
[OGL LOG][Proc: 0]p: update_local_matrix_data: 31.498 [ms]
[OGL LOG][Proc: 0]p: update_non_local_matrix_data: 3.115 [ms]
[OGL LOG][Proc: 0]p: update_build_repartitioner: 3.555 [ms]
[OGL LOG][Proc: 0]p: update_repartitioned_existing: 53.314 [ms]
[OGL LOG][Proc: 0]p: update_offload_local_values: 6.491 [ms]
[OGL LOG][Proc: 0]p: update_offload_non_local_values: 0.086 [ms]
[OGL LOG][Proc: 0]p_matrix: call_update: 63.757 [ms]
[OGL LOG][Proc: 0]p_rhs: call_update: 10.93 [ms]
[OGL LOG][Proc: 0]p: init_precond: 0.074 [ms]
[OGL LOG][StoppingCriterion.H:372] Creating stopping criterion with minIter 0 frequency 1
[OGL LOG][Proc: 0]p: generate_solver: 0.028 [ms]
[OGL LOG][Proc: 0]p: solve: 2624.55 [ms]
[OGL LOG][Proc: 0]p: copy_x_back: 12.927 [ms]
[OGL LOG][lduLduBase.H:319] 
Statistics:
	Time per iteration: 1649 [mu s]
	Time per residual norm calculation: 361.000000 [mu s]
	Time per iteration and DOF: 0.206125 [ns]
	Retrieve results bandwith 0.618000 [GByte/s]
[OGL LOG][Proc: 0]p: solve_multi_gpu: 2713.3 [ms]
nonehipGKOCG:  Solving for p, Initial residual = 0.786384, Final residual = 9.70191e-05, No Iterations 1591
linear solve p 2753.65 [ms]
[INFO] SolveP: 2753.7 [ms]
time step continuity errors : sum local = 9.30951e-09, global = 1.49332e-22, cumulative = -2.17119e-21
[INFO] ContinuityError: 13.461 [ms]
[INFO] CorrectBoundary: 0.887 [ms]
[INFO] PISOStep: 3034.18 [ms]
[INFO] TimeStep: 9710.88 [ms]
ExecutionTime = 10.1 s  ClockTime = 10 s

Time = 0.0005

Courant Number mean: 0.0159459 max: 0.412549
[INFO] MatrixAssemblyU: 129.228 [ms]
DILUPBiCGStab:  Solving for Ux, Initial residual = 0.129572, Final residual = 0.00549869, No Iterations 5
DILUPBiCGStab:  Solving for Uy, Initial residual = 0.426965, Final residual = 0.0140636, No Iterations 5
DILUPBiCGStab:  Solving for Uz, Initial residual = 0.987077, Final residual = 0.0342228, No Iterations 5
linear solve U 876.864 [ms]
[INFO] MomentumPredictor: 932.409 [ms]
[INFO] MatrixAssemblyPI: 144.619 [ms]
[INFO] AdjustPhi: 7.911 [ms]
[INFO] ConstrainPressure: 0.003 [ms]
[INFO] MatrixAssemblyPII: 45.427 [ms]
[OGL LOG][Proc: 0]: global_index_init: 0.184 [ms]
[OGL LOG][Proc: 0]p_local_coeffs: call_update: 0 [ms]
[OGL LOG][Proc: 0]p_non_local_coeffs: call_update: 0 [ms]
[OGL LOG][Proc: 0]p: update_local_matrix_data: 32.289 [ms]
[OGL LOG][Proc: 0]p: update_non_local_matrix_data: 1.041 [ms]
[OGL LOG][Proc: 0]p: update_build_repartitioner: 4.57 [ms]
[OGL LOG][Proc: 0]p: update_repartitioned_existing: 50.504 [ms]
[OGL LOG][Proc: 0]p: update_offload_local_values: 6.136 [ms]
[OGL LOG][Proc: 0]p: update_offload_non_local_values: 0.092 [ms]
[OGL LOG][Proc: 0]p_matrix: call_update: 61.607 [ms]
[OGL LOG][Proc: 0]p_rhs: call_update: 13.006 [ms]
[OGL LOG][Proc: 0]p: init_precond: 0.036 [ms]
[OGL LOG][StoppingCriterion.H:372] Creating stopping criterion with minIter 954 frequency 12
[OGL LOG][Proc: 0]p: generate_solver: 0.026 [ms]
[OGL LOG][Proc: 0]p: solve: 2031.26 [ms]
[OGL LOG][Proc: 0]p: copy_x_back: 11.582 [ms]
[OGL LOG][lduLduBase.H:319] 
Statistics:
	Time per iteration: 1291 [mu s]
	Time per residual norm calculation: 383.000000 [mu s]
	Time per iteration and DOF: 0.161375 [ns]
	Retrieve results bandwith 0.690000 [GByte/s]
[OGL LOG][Proc: 0]p: solve_multi_gpu: 2118.43 [ms]
nonehipGKOCG:  Solving for p, Initial residual = 0.825153, Final residual = 9.30982e-05, No Iterations 1573
linear solve p 2158.44 [ms]
[INFO] SolveP: 2158.49 [ms]
time step continuity errors : sum local = 1.37129e-08, global = -2.03695e-21, cumulative = -4.20813e-21
[INFO] ContinuityError: 20.869 [ms]
[INFO] CorrectBoundary: 0.566 [ms]
[INFO] PISOStep: 2431.59 [ms]
[INFO] MatrixAssemblyPI: 136.573 [ms]
[INFO] AdjustPhi: 8.207 [ms]
[INFO] ConstrainPressure: 0.004 [ms]
[INFO] MatrixAssemblyPII: 40.591 [ms]
[OGL LOG][Proc: 0]: global_index_init: 0.047 [ms]
[OGL LOG][Proc: 0]p_local_coeffs: call_update: 0 [ms]
[OGL LOG][Proc: 0]p_non_local_coeffs: call_update: 0 [ms]
[OGL LOG][Proc: 0]p: update_local_matrix_data: 31.363 [ms]
[OGL LOG][Proc: 0]p: update_non_local_matrix_data: 1.96 [ms]
[OGL LOG][Proc: 0]p: update_build_repartitioner: 3.708 [ms]
[OGL LOG][Proc: 0]p: update_repartitioned_existing: 50.776 [ms]
[OGL LOG][Proc: 0]p: update_offload_local_values: 6.624 [ms]
[OGL LOG][Proc: 0]p: update_offload_non_local_values: 0.097 [ms]
[OGL LOG][Proc: 0]p_matrix: call_update: 61.499 [ms]
[OGL LOG][Proc: 0]p_rhs: call_update: 9.249 [ms]
[OGL LOG][Proc: 0]p: init_precond: 0.041 [ms]
[OGL LOG][StoppingCriterion.H:372] Creating stopping criterion with minIter 943 frequency 14
[OGL LOG][Proc: 0]p: generate_solver: 0.023 [ms]
[OGL LOG][Proc: 0]p: solve: 2026.78 [ms]
[OGL LOG][Proc: 0]p: copy_x_back: 11.224 [ms]
[OGL LOG][lduLduBase.H:319] 
Statistics:
	Time per iteration: 1291 [mu s]
	Time per residual norm calculation: 383.000000 [mu s]
	Time per iteration and DOF: 0.161375 [ns]
	Retrieve results bandwith 0.712000 [GByte/s]
[OGL LOG][Proc: 0]p: solve_multi_gpu: 2109.71 [ms]
nonehipGKOCG:  Solving for p, Initial residual = 0.768304, Final residual = 8.99198e-05, No Iterations 1569
linear solve p 2149.95 [ms]
[INFO] SolveP: 2150 [ms]
time step continuity errors : sum local = 1.34832e-08, global = -2.68122e-21, cumulative = -6.88935e-21
[INFO] ContinuityError: 13.899 [ms]
[INFO] CorrectBoundary: 1.112 [ms]
[INFO] PISOStep: 2403.76 [ms]
[INFO] TimeStep: 5915.1 [ms]
ExecutionTime = 15.94 s  ClockTime = 16 s

Time = 0.00075

Courant Number mean: 0.024329 max: 0.472012
[INFO] MatrixAssemblyU: 130.112 [ms]
DILUPBiCGStab:  Solving for Ux, Initial residual = 0.0547791, Final residual = 0.00187254, No Iterations 5
DILUPBiCGStab:  Solving for Uy, Initial residual = 0.182222, Final residual = 0.00762624, No Iterations 5
DILUPBiCGStab:  Solving for Uz, Initial residual = 0.810964, Final residual = 0.0252628, No Iterations 5
linear solve U 872.355 [ms]
[INFO] MomentumPredictor: 922.157 [ms]
[INFO] MatrixAssemblyPI: 141.299 [ms]
[INFO] AdjustPhi: 6.443 [ms]
[INFO] ConstrainPressure: 0.003 [ms]
[INFO] MatrixAssemblyPII: 38.986 [ms]
[OGL LOG][Proc: 0]: global_index_init: 0.276 [ms]
[OGL LOG][Proc: 0]p_local_coeffs: call_update: 0 [ms]
[OGL LOG][Proc: 0]p_non_local_coeffs: call_update: 0 [ms]
[OGL LOG][Proc: 0]p: update_local_matrix_data: 32.4 [ms]
[OGL LOG][Proc: 0]p: update_non_local_matrix_data: 0.966 [ms]
[OGL LOG][Proc: 0]p: update_build_repartitioner: 3.412 [ms]
[OGL LOG][Proc: 0]p: update_repartitioned_existing: 50.22 [ms]
[OGL LOG][Proc: 0]p: update_offload_local_values: 7.432 [ms]
[OGL LOG][Proc: 0]p: update_offload_non_local_values: 0.087 [ms]
[OGL LOG][Proc: 0]p_matrix: call_update: 61.443 [ms]
[OGL LOG][Proc: 0]p_rhs: call_update: 6.355 [ms]
[OGL LOG][Proc: 0]p: init_precond: 0.035 [ms]
[OGL LOG][StoppingCriterion.H:372] Creating stopping criterion with minIter 941 frequency 14
[OGL LOG][Proc: 0]p: generate_solver: 0.026 [ms]
[OGL LOG][Proc: 0]p: solve: 2071.22 [ms]
[OGL LOG][Proc: 0]p: copy_x_back: 11.853 [ms]
[OGL LOG][lduLduBase.H:319] 
Statistics:
	Time per iteration: 1308 [mu s]
	Time per residual norm calculation: 382.000000 [mu s]
	Time per iteration and DOF: 0.163500 [ns]
	Retrieve results bandwith 0.674000 [GByte/s]
[OGL LOG][Proc: 0]p: solve_multi_gpu: 2151.91 [ms]
nonehipGKOCG:  Solving for p, Initial residual = 0.849303, Final residual = 6.65172e-05, No Iterations 1583
linear solve p 2190.65 [ms]
[INFO] SolveP: 2190.69 [ms]
time step continuity errors : sum local = 8.94429e-09, global = -9.20778e-22, cumulative = -7.81013e-21
[INFO] ContinuityError: 13.984 [ms]
[INFO] CorrectBoundary: 3.025 [ms]
[INFO] PISOStep: 2444.3 [ms]
[INFO] MatrixAssemblyPI: 136.735 [ms]
[INFO] AdjustPhi: 6.876 [ms]
[INFO] ConstrainPressure: 0.005 [ms]
[INFO] MatrixAssemblyPII: 39.807 [ms]
[OGL LOG][Proc: 0]: global_index_init: 0.151 [ms]
[OGL LOG][Proc: 0]p_local_coeffs: call_update: 0 [ms]
[OGL LOG][Proc: 0]p_non_local_coeffs: call_update: 0 [ms]
[OGL LOG][Proc: 0]p: update_local_matrix_data: 31.414 [ms]
[OGL LOG][Proc: 0]p: update_non_local_matrix_data: 1.203 [ms]
[OGL LOG][Proc: 0]p: update_build_repartitioner: 4.259 [ms]
[OGL LOG][Proc: 0]p: update_repartitioned_existing: 32.886 [ms]
[OGL LOG][Proc: 0]p: update_offload_local_values: 7.303 [ms]
[OGL LOG][Proc: 0]p: update_offload_non_local_values: 0.086 [ms]
[OGL LOG][Proc: 0]p_matrix: call_update: 44.842 [ms]
[OGL LOG][Proc: 0]p_rhs: call_update: 20.953 [ms]
[OGL LOG][Proc: 0]p: init_precond: 0.044 [ms]
[OGL LOG][StoppingCriterion.H:372] Creating stopping criterion with minIter 949 frequency 14
[OGL LOG][Proc: 0]p: generate_solver: 0.026 [ms]
[OGL LOG][Proc: 0]p: solve: 2056.5 [ms]
[OGL LOG][Proc: 0]p: copy_x_back: 13.42 [ms]
[OGL LOG][lduLduBase.H:319] 
Statistics:
	Time per iteration: 1299 [mu s]
	Time per residual norm calculation: 414.000000 [mu s]
	Time per iteration and DOF: 0.162375 [ns]
	Retrieve results bandwith 0.596000 [GByte/s]
[OGL LOG][Proc: 0]p: solve_multi_gpu: 2136.65 [ms]
nonehipGKOCG:  Solving for p, Initial residual = 0.815705, Final residual = 6.20857e-05, No Iterations 1583
linear solve p 2174.96 [ms]
[INFO] SolveP: 2175 [ms]
time step continuity errors : sum local = 8.16892e-09, global = -2.27511e-21, cumulative = -1.00852e-20
[INFO] ContinuityError: 14.51 [ms]
[INFO] CorrectBoundary: 0.605 [ms]
[INFO] PISOStep: 2424.23 [ms]
[INFO] TimeStep: 5936.68 [ms]
ExecutionTime = 21.8 s  ClockTime = 22 s

Time = 0.001

Courant Number mean: 0.0291952 max: 0.467755
[INFO] MatrixAssemblyU: 128.079 [ms]
DILUPBiCGStab:  Solving for Ux, Initial residual = 0.034692, Final residual = 0.00124168, No Iterations 5
DILUPBiCGStab:  Solving for Uy, Initial residual = 0.129101, Final residual = 0.00473221, No Iterations 5
DILUPBiCGStab:  Solving for Uz, Initial residual = 0.610616, Final residual = 0.0151929, No Iterations 5
linear solve U 869.086 [ms]
[INFO] MomentumPredictor: 922.37 [ms]
[INFO] MatrixAssemblyPI: 141.656 [ms]
[INFO] AdjustPhi: 6.468 [ms]
[INFO] ConstrainPressure: 0.003 [ms]
[INFO] MatrixAssemblyPII: 41.048 [ms]
[OGL LOG][Proc: 0]: global_index_init: 0.025 [ms]
[OGL LOG][Proc: 0]p_local_coeffs: call_update: 0 [ms]
[OGL LOG][Proc: 0]p_non_local_coeffs: call_update: 0 [ms]
[OGL LOG][Proc: 0]p: update_local_matrix_data: 32.325 [ms]
[OGL LOG][Proc: 0]p: update_non_local_matrix_data: 0.979 [ms]
[OGL LOG][Proc: 0]p: update_build_repartitioner: 3.757 [ms]
[OGL LOG][Proc: 0]p: update_repartitioned_existing: 27.506 [ms]
[OGL LOG][Proc: 0]p: update_offload_local_values: 6.663 [ms]
[OGL LOG][Proc: 0]p: update_offload_non_local_values: 0.102 [ms]
[OGL LOG][Proc: 0]p_matrix: call_update: 38.326 [ms]
[OGL LOG][Proc: 0]p_rhs: call_update: 32.084 [ms]
[OGL LOG][Proc: 0]p: init_precond: 0.033 [ms]
[OGL LOG][StoppingCriterion.H:372] Creating stopping criterion with minIter 949 frequency 14
[OGL LOG][Proc: 0]p: generate_solver: 0.022 [ms]
[OGL LOG][Proc: 0]p: solve: 1229.06 [ms]
[OGL LOG][Proc: 0]p: copy_x_back: 11.57 [ms]
[OGL LOG][lduLduBase.H:319] 
Statistics:
	Time per iteration: 1289 [mu s]
	Time per residual norm calculation: 364.000000 [mu s]
	Time per iteration and DOF: 0.161125 [ns]
	Retrieve results bandwith 0.691000 [GByte/s]
[OGL LOG][Proc: 0]p: solve_multi_gpu: 1312.12 [ms]
nonehipGKOCG:  Solving for p, Initial residual = 0.770558, Final residual = 4.79206e-05, No Iterations 953
linear solve p 1350.54 [ms]
[INFO] SolveP: 1350.59 [ms]
time step continuity errors : sum local = 6.3057e-09, global = -6.96822e-22, cumulative = -1.07821e-20
[INFO] ContinuityError: 15.539 [ms]
[INFO] CorrectBoundary: 1.772 [ms]
[INFO] PISOStep: 1607.47 [ms]
[INFO] MatrixAssemblyPI: 134.985 [ms]
[INFO] AdjustPhi: 7.153 [ms]
[INFO] ConstrainPressure: 0.004 [ms]
[INFO] MatrixAssemblyPII: 40.529 [ms]
[OGL LOG][Proc: 0]: global_index_init: 0.1 [ms]
[OGL LOG][Proc: 0]p_local_coeffs: call_update: 0 [ms]
[OGL LOG][Proc: 0]p_non_local_coeffs: call_update: 0 [ms]
[OGL LOG][Proc: 0]p: update_local_matrix_data: 32.098 [ms]
[OGL LOG][Proc: 0]p: update_non_local_matrix_data: 0.804 [ms]
[OGL LOG][Proc: 0]p: update_build_repartitioner: 3.462 [ms]
[OGL LOG][Proc: 0]p: update_repartitioned_existing: 27.575 [ms]
[OGL LOG][Proc: 0]p: update_offload_local_values: 5.863 [ms]
[OGL LOG][Proc: 0]p: update_offload_non_local_values: 0.09 [ms]
[OGL LOG][Proc: 0]p_matrix: call_update: 37.314 [ms]
[OGL LOG][Proc: 0]p_rhs: call_update: 31.264 [ms]
[OGL LOG][Proc: 0]p: init_precond: 0.033 [ms]
[OGL LOG][StoppingCriterion.H:372] Creating stopping criterion with minIter 571 frequency 11
[OGL LOG][Proc: 0]p: generate_solver: 0.024 [ms]
[OGL LOG][Proc: 0]p: solve: 1018.12 [ms]
[OGL LOG][Proc: 0]p: copy_x_back: 11.459 [ms]
[OGL LOG][lduLduBase.H:319] 
Statistics:
	Time per iteration: 1339 [mu s]
	Time per residual norm calculation: 378.000000 [mu s]
	Time per iteration and DOF: 0.167375 [ns]
	Retrieve results bandwith 0.698000 [GByte/s]
[OGL LOG][Proc: 0]p: solve_multi_gpu: 1099.14 [ms]
nonehipGKOCG:  Solving for p, Initial residual = 0.707933, Final residual = 9.91392e-05, No Iterations 760
linear solve p 1137.43 [ms]
[INFO] SolveP: 1137.47 [ms]
time step continuity errors : sum local = 1.24089e-08, global = 1.41277e-21, cumulative = -9.36928e-21
[INFO] ContinuityError: 14.287 [ms]
[INFO] CorrectBoundary: 2.058 [ms]
[INFO] PISOStep: 1384.51 [ms]
[INFO] TimeStep: 4058.19 [ms]
ExecutionTime = 25.82 s  ClockTime = 26 s

Time = 0.00125

Courant Number mean: 0.0333376 max: 0.472935
[INFO] MatrixAssemblyU: 131.43 [ms]
DILUPBiCGStab:  Solving for Ux, Initial residual = 0.0271321, Final residual = 0.000902586, No Iterations 5
DILUPBiCGStab:  Solving for Uy, Initial residual = 0.0813995, Final residual = 0.00356643, No Iterations 5
DILUPBiCGStab:  Solving for Uz, Initial residual = 0.462395, Final residual = 0.0116952, No Iterations 5
linear solve U 873.08 [ms]
[INFO] MomentumPredictor: 919.536 [ms]
[INFO] MatrixAssemblyPI: 139.906 [ms]
[INFO] AdjustPhi: 6.935 [ms]
[INFO] ConstrainPressure: 0.004 [ms]
[INFO] MatrixAssemblyPII: 41.733 [ms]
[OGL LOG][Proc: 0]: global_index_init: 0.019 [ms]
[OGL LOG][Proc: 0]p_local_coeffs: call_update: 0 [ms]
[OGL LOG][Proc: 0]p_non_local_coeffs: call_update: 0 [ms]
[OGL LOG][Proc: 0]p: update_local_matrix_data: 32.004 [ms]
[OGL LOG][Proc: 0]p: update_non_local_matrix_data: 0.986 [ms]
[OGL LOG][Proc: 0]p: update_build_repartitioner: 7.751 [ms]
[OGL LOG][Proc: 0]p: update_repartitioned_existing: 48.629 [ms]
[OGL LOG][Proc: 0]p: update_offload_local_values: 6.154 [ms]
[OGL LOG][Proc: 0]p: update_offload_non_local_values: 0.097 [ms]
[OGL LOG][Proc: 0]p_matrix: call_update: 62.955 [ms]
[OGL LOG][Proc: 0]p_rhs: call_update: 7.258 [ms]
[OGL LOG][Proc: 0]p: init_precond: 0.037 [ms]
[OGL LOG][StoppingCriterion.H:372] Creating stopping criterion with minIter 456 frequency 10
[OGL LOG][Proc: 0]p: generate_solver: 0.028 [ms]
[OGL LOG][Proc: 0]p: solve: 998.932 [ms]
[OGL LOG][Proc: 0]p: copy_x_back: 11.928 [ms]
[OGL LOG][lduLduBase.H:319] 
Statistics:
	Time per iteration: 1330 [mu s]
	Time per residual norm calculation: 385.000000 [mu s]
	Time per iteration and DOF: 0.166250 [ns]
	Retrieve results bandwith 0.670000 [GByte/s]
[OGL LOG][Proc: 0]p: solve_multi_gpu: 1082.1 [ms]
nonehipGKOCG:  Solving for p, Initial residual = 0.776175, Final residual = 7.82553e-05, No Iterations 751
linear solve p 1121.11 [ms]
[INFO] SolveP: 1121.17 [ms]
time step continuity errors : sum local = 8.07736e-09, global = 3.48295e-22, cumulative = -9.02099e-21
[INFO] ContinuityError: 13.43 [ms]
[INFO] CorrectBoundary: 0.337 [ms]
[INFO] PISOStep: 1373.16 [ms]
[INFO] MatrixAssemblyPI: 135.352 [ms]
[INFO] AdjustPhi: 6.836 [ms]
[INFO] ConstrainPressure: 0.003 [ms]
[INFO] MatrixAssemblyPII: 40.729 [ms]
[OGL LOG][Proc: 0]: global_index_init: 0.509 [ms]
[OGL LOG][Proc: 0]p_local_coeffs: call_update: 0 [ms]
[OGL LOG][Proc: 0]p_non_local_coeffs: call_update: 0 [ms]
[OGL LOG][Proc: 0]p: update_local_matrix_data: 32.238 [ms]
[OGL LOG][Proc: 0]p: update_non_local_matrix_data: 0.912 [ms]
[OGL LOG][Proc: 0]p: update_build_repartitioner: 3.341 [ms]
[OGL LOG][Proc: 0]p: update_repartitioned_existing: 48.031 [ms]
[OGL LOG][Proc: 0]p: update_offload_local_values: 6.149 [ms]
[OGL LOG][Proc: 0]p: update_offload_non_local_values: 0.091 [ms]
[OGL LOG][Proc: 0]p_matrix: call_update: 57.932 [ms]
[OGL LOG][Proc: 0]p_rhs: call_update: 8.79 [ms]
[OGL LOG][Proc: 0]p: init_precond: 0.034 [ms]
[OGL LOG][StoppingCriterion.H:372] Creating stopping criterion with minIter 450 frequency 10
[OGL LOG][Proc: 0]p: generate_solver: 0.028 [ms]
[OGL LOG][Proc: 0]p: solve: 984.735 [ms]
[OGL LOG][Proc: 0]p: copy_x_back: 10.077 [ms]
[OGL LOG][lduLduBase.H:319] 
Statistics:
	Time per iteration: 1311 [mu s]
	Time per residual norm calculation: 385.000000 [mu s]
	Time per iteration and DOF: 0.163875 [ns]
	Retrieve results bandwith 0.793000 [GByte/s]
[OGL LOG][Proc: 0]p: solve_multi_gpu: 1062.57 [ms]
nonehipGKOCG:  Solving for p, Initial residual = 0.725229, Final residual = 7.48411e-05, No Iterations 751
linear solve p 1101.19 [ms]
[INFO] SolveP: 1101.22 [ms]
time step continuity errors : sum local = 7.51471e-09, global = -1.21726e-21, cumulative = -1.02382e-20
[INFO] ContinuityError: 16.158 [ms]
[INFO] CorrectBoundary: 0.543 [ms]
[INFO] PISOStep: 1347.66 [ms]
[INFO] TimeStep: 3786.3 [ms]
ExecutionTime = 29.57 s  ClockTime = 30 s

Time = 0.0015

Courant Number mean: 0.0366382 max: 0.475557
[INFO] MatrixAssemblyU: 127.491 [ms]
DILUPBiCGStab:  Solving for Ux, Initial residual = 0.0204297, Final residual = 0.000644947, No Iterations 5
DILUPBiCGStab:  Solving for Uy, Initial residual = 0.0658492, Final residual = 0.00244965, No Iterations 5
DILUPBiCGStab:  Solving for Uz, Initial residual = 0.335688, Final residual = 0.00852886, No Iterations 5
linear solve U 875.349 [ms]
[INFO] MomentumPredictor: 927.833 [ms]
[INFO] MatrixAssemblyPI: 137.033 [ms]
[INFO] AdjustPhi: 9.933 [ms]
[INFO] ConstrainPressure: 0.004 [ms]
[INFO] MatrixAssemblyPII: 39.818 [ms]
[OGL LOG][Proc: 0]: global_index_init: 0.026 [ms]
[OGL LOG][Proc: 0]p_local_coeffs: call_update: 0 [ms]
[OGL LOG][Proc: 0]p_non_local_coeffs: call_update: 0 [ms]
[OGL LOG][Proc: 0]p: update_local_matrix_data: 31.607 [ms]
[OGL LOG][Proc: 0]p: update_non_local_matrix_data: 1.019 [ms]
[OGL LOG][Proc: 0]p: update_build_repartitioner: 4.181 [ms]
[OGL LOG][Proc: 0]p: update_repartitioned_existing: 27.014 [ms]
[OGL LOG][Proc: 0]p: update_offload_local_values: 8.278 [ms]
[OGL LOG][Proc: 0]p: update_offload_non_local_values: 0.105 [ms]
[OGL LOG][Proc: 0]p_matrix: call_update: 39.884 [ms]
[OGL LOG][Proc: 0]p_rhs: call_update: 20.432 [ms]
[OGL LOG][Proc: 0]p: init_precond: 0.034 [ms]
[OGL LOG][StoppingCriterion.H:372] Creating stopping criterion with minIter 450 frequency 10
[OGL LOG][Proc: 0]p: generate_solver: 0.029 [ms]
[OGL LOG][Proc: 0]p: solve: 995.591 [ms]
[OGL LOG][Proc: 0]p: copy_x_back: 10.299 [ms]
[OGL LOG][lduLduBase.H:319] 
Statistics:
	Time per iteration: 1325 [mu s]
	Time per residual norm calculation: 369.000000 [mu s]
	Time per iteration and DOF: 0.165625 [ns]
	Retrieve results bandwith 0.776000 [GByte/s]
[OGL LOG][Proc: 0]p: solve_multi_gpu: 1067.33 [ms]
nonehipGKOCG:  Solving for p, Initial residual = 0.683307, Final residual = 8.95908e-05, No Iterations 751
linear solve p 1105.97 [ms]
[INFO] SolveP: 1106.02 [ms]
time step continuity errors : sum local = 9.32257e-09, global = -1.01847e-21, cumulative = -1.12567e-20
[INFO] ContinuityError: 15.7 [ms]
[INFO] CorrectBoundary: 0.62 [ms]
[INFO] PISOStep: 1359.65 [ms]
[INFO] MatrixAssemblyPI: 134.166 [ms]
[INFO] AdjustPhi: 6.544 [ms]
[INFO] ConstrainPressure: 0.004 [ms]
[INFO] MatrixAssemblyPII: 40.123 [ms]
[OGL LOG][Proc: 0]: global_index_init: 0.021 [ms]
[OGL LOG][Proc: 0]p_local_coeffs: call_update: 0 [ms]
[OGL LOG][Proc: 0]p_non_local_coeffs: call_update: 0 [ms]
[OGL LOG][Proc: 0]p: update_local_matrix_data: 31.917 [ms]
[OGL LOG][Proc: 0]p: update_non_local_matrix_data: 0.785 [ms]
[OGL LOG][Proc: 0]p: update_build_repartitioner: 3.889 [ms]
[OGL LOG][Proc: 0]p: update_repartitioned_existing: 27.465 [ms]
[OGL LOG][Proc: 0]p: update_offload_local_values: 7.203 [ms]
[OGL LOG][Proc: 0]p: update_offload_non_local_values: 0.112 [ms]
[OGL LOG][Proc: 0]p_matrix: call_update: 39.022 [ms]
[OGL LOG][Proc: 0]p_rhs: call_update: 18.721 [ms]
[OGL LOG][Proc: 0]p: init_precond: 0.033 [ms]
[OGL LOG][StoppingCriterion.H:372] Creating stopping criterion with minIter 450 frequency 10
[OGL LOG][Proc: 0]p: generate_solver: 0.029 [ms]
[OGL LOG][Proc: 0]p: solve: 971.345 [ms]
[OGL LOG][Proc: 0]p: copy_x_back: 11.708 [ms]
[OGL LOG][lduLduBase.H:319] 
Statistics:
	Time per iteration: 1310 [mu s]
	Time per residual norm calculation: 388.000000 [mu s]
	Time per iteration and DOF: 0.163750 [ns]
	Retrieve results bandwith 0.683000 [GByte/s]
[OGL LOG][Proc: 0]p: solve_multi_gpu: 1041.87 [ms]
nonehipGKOCG:  Solving for p, Initial residual = 0.622871, Final residual = 9.37984e-05, No Iterations 741
linear solve p 1079.86 [ms]
[INFO] SolveP: 1079.9 [ms]
time step continuity errors : sum local = 9.07871e-09, global = -2.01718e-21, cumulative = -1.32739e-20
[INFO] ContinuityError: 13.903 [ms]
[INFO] CorrectBoundary: 0.507 [ms]
[INFO] PISOStep: 1323.68 [ms]
[INFO] TimeStep: 3753.18 [ms]
ExecutionTime = 33.28 s  ClockTime = 34 s

Time = 0.00175

Courant Number mean: 0.039554 max: 0.477501
[INFO] MatrixAssemblyU: 129.781 [ms]
DILUPBiCGStab:  Solving for Ux, Initial residual = 0.0174378, Final residual = 0.000513098, No Iterations 5
DILUPBiCGStab:  Solving for Uy, Initial residual = 0.0490565, Final residual = 0.00179747, No Iterations 5
DILUPBiCGStab:  Solving for Uz, Initial residual = 0.260445, Final residual = 0.00776629, No Iterations 5
linear solve U 875.202 [ms]
[INFO] MomentumPredictor: 925.772 [ms]
[INFO] MatrixAssemblyPI: 139.621 [ms]
[INFO] AdjustPhi: 6.468 [ms]
[INFO] ConstrainPressure: 0.004 [ms]
[INFO] MatrixAssemblyPII: 39.827 [ms]
[OGL LOG][Proc: 0]: global_index_init: 0.268 [ms]
[OGL LOG][Proc: 0]p_local_coeffs: call_update: 0 [ms]
[OGL LOG][Proc: 0]p_non_local_coeffs: call_update: 0 [ms]
[OGL LOG][Proc: 0]p: update_local_matrix_data: 31.989 [ms]
[OGL LOG][Proc: 0]p: update_non_local_matrix_data: 0.939 [ms]
[OGL LOG][Proc: 0]p: update_build_repartitioner: 3.585 [ms]
[OGL LOG][Proc: 0]p: update_repartitioned_existing: 32.581 [ms]
[OGL LOG][Proc: 0]p: update_offload_local_values: 6.504 [ms]
[OGL LOG][Proc: 0]p: update_offload_non_local_values: 0.095 [ms]
[OGL LOG][Proc: 0]p_matrix: call_update: 43.069 [ms]
[OGL LOG][Proc: 0]p_rhs: call_update: 24.014 [ms]
[OGL LOG][Proc: 0]p: init_precond: 0.046 [ms]
[OGL LOG][StoppingCriterion.H:372] Creating stopping criterion with minIter 444 frequency 9
[OGL LOG][Proc: 0]p: generate_solver: 0.025 [ms]
[OGL LOG][Proc: 0]p: solve: 1982.29 [ms]
[OGL LOG][Proc: 0]p: copy_x_back: 13.527 [ms]
[OGL LOG][lduLduBase.H:319] 
Statistics:
	Time per iteration: 1302 [mu s]
	Time per residual norm calculation: 380.000000 [mu s]
	Time per iteration and DOF: 0.162750 [ns]
	Retrieve results bandwith 0.591000 [GByte/s]
[OGL LOG][Proc: 0]p: solve_multi_gpu: 2063.92 [ms]
nonehipGKOCG:  Solving for p, Initial residual = 0.679298, Final residual = 8.42569e-05, No Iterations 1522
linear solve p 2102.9 [ms]
[INFO] SolveP: 2102.95 [ms]
time step continuity errors : sum local = 6.5564e-09, global = -4.21172e-21, cumulative = -1.74856e-20
[INFO] ContinuityError: 15.032 [ms]
[INFO] CorrectBoundary: 0.905 [ms]
[INFO] PISOStep: 2352.99 [ms]
[INFO] MatrixAssemblyPI: 133.343 [ms]
[INFO] AdjustPhi: 8.824 [ms]
[INFO] ConstrainPressure: 0.005 [ms]
[INFO] MatrixAssemblyPII: 40.062 [ms]
[OGL LOG][Proc: 0]: global_index_init: 0.224 [ms]
[OGL LOG][Proc: 0]p_local_coeffs: call_update: 0 [ms]
[OGL LOG][Proc: 0]p_non_local_coeffs: call_update: 0 [ms]
[OGL LOG][Proc: 0]p: update_local_matrix_data: 31.485 [ms]
[OGL LOG][Proc: 0]p: update_non_local_matrix_data: 1.311 [ms]
[OGL LOG][Proc: 0]p: update_build_repartitioner: 3.663 [ms]
[OGL LOG][Proc: 0]p: update_repartitioned_existing: 32.865 [ms]
[OGL LOG][Proc: 0]p: update_offload_local_values: 6.664 [ms]
[OGL LOG][Proc: 0]p: update_offload_non_local_values: 0.09 [ms]
[OGL LOG][Proc: 0]p_matrix: call_update: 43.712 [ms]
[OGL LOG][Proc: 0]p_rhs: call_update: 21.132 [ms]
[OGL LOG][Proc: 0]p: init_precond: 0.033 [ms]
[OGL LOG][StoppingCriterion.H:372] Creating stopping criterion with minIter 913 frequency 14
[OGL LOG][Proc: 0]p: generate_solver: 0.025 [ms]
[OGL LOG][Proc: 0]p: solve: 1939.78 [ms]
[OGL LOG][Proc: 0]p: copy_x_back: 10.635 [ms]
[OGL LOG][lduLduBase.H:319] 
Statistics:
	Time per iteration: 1282 [mu s]
	Time per residual norm calculation: 422.000000 [mu s]
	Time per iteration and DOF: 0.160250 [ns]
	Retrieve results bandwith 0.752000 [GByte/s]
[OGL LOG][Proc: 0]p: solve_multi_gpu: 2016.22 [ms]
nonehipGKOCG:  Solving for p, Initial residual = 0.620029, Final residual = 9.96538e-05, No Iterations 1513
linear solve p 2054.71 [ms]
[INFO] SolveP: 2054.76 [ms]
time step continuity errors : sum local = 7.71407e-09, global = -3.49977e-21, cumulative = -2.09854e-20
[INFO] ContinuityError: 11.636 [ms]
[INFO] CorrectBoundary: 0.233 [ms]
[INFO] PISOStep: 2299.8 [ms]
[INFO] TimeStep: 5722.96 [ms]
ExecutionTime = 38.94 s  ClockTime = 40 s

Time = 0.002

Courant Number mean: 0.0420791 max: 0.479205
[INFO] MatrixAssemblyU: 127.366 [ms]
DILUPBiCGStab:  Solving for Ux, Initial residual = 0.0142992, Final residual = 0.000394662, No Iterations 5
DILUPBiCGStab:  Solving for Uy, Initial residual = 0.0417827, Final residual = 0.00138507, No Iterations 5
DILUPBiCGStab:  Solving for Uz, Initial residual = 0.203331, Final residual = 0.00600467, No Iterations 5
linear solve U 870.195 [ms]
[INFO] MomentumPredictor: 921.86 [ms]
[INFO] MatrixAssemblyPI: 139.585 [ms]
[INFO] AdjustPhi: 6.803 [ms]
[INFO] ConstrainPressure: 0.003 [ms]
[INFO] MatrixAssemblyPII: 40.067 [ms]
[OGL LOG][Proc: 0]: global_index_init: 0.306 [ms]
[OGL LOG][Proc: 0]p_local_coeffs: call_update: 0.001 [ms]
[OGL LOG][Proc: 0]p_non_local_coeffs: call_update: 0 [ms]
[OGL LOG][Proc: 0]p: update_local_matrix_data: 32.273 [ms]
[OGL LOG][Proc: 0]p: update_non_local_matrix_data: 0.909 [ms]
[OGL LOG][Proc: 0]p: update_build_repartitioner: 3.332 [ms]
[OGL LOG][Proc: 0]p: update_repartitioned_existing: 27.457 [ms]
[OGL LOG][Proc: 0]p: update_offload_local_values: 7.4 [ms]
[OGL LOG][Proc: 0]p: update_offload_non_local_values: 0.112 [ms]
[OGL LOG][Proc: 0]p_matrix: call_update: 38.611 [ms]
[OGL LOG][Proc: 0]p_rhs: call_update: 28.601 [ms]
[OGL LOG][Proc: 0]p: init_precond: 0.033 [ms]
[OGL LOG][StoppingCriterion.H:372] Creating stopping criterion with minIter 907 frequency 14
[OGL LOG][Proc: 0]p: generate_solver: 0.03 [ms]
[OGL LOG][Proc: 0]p: solve: 1962.44 [ms]
[OGL LOG][Proc: 0]p: copy_x_back: 8.533 [ms]
[OGL LOG][lduLduBase.H:319] 
Statistics:
	Time per iteration: 1285 [mu s]
	Time per residual norm calculation: 395.000000 [mu s]
	Time per iteration and DOF: 0.160625 [ns]
	Retrieve results bandwith 0.937000 [GByte/s]
[OGL LOG][Proc: 0]p: solve_multi_gpu: 2039.53 [ms]
nonehipGKOCG:  Solving for p, Initial residual = 0.588204, Final residual = 8.49834e-05, No Iterations 1527
linear solve p 2078.26 [ms]
[INFO] SolveP: 2078.29 [ms]
time step continuity errors : sum local = 6.29188e-09, global = -2.41458e-21, cumulative = -2.34e-20
[INFO] ContinuityError: 19.896 [ms]
[INFO] CorrectBoundary: 1.899 [ms]
[INFO] PISOStep: 2329.83 [ms]
[INFO] MatrixAssemblyPI: 133.475 [ms]
[INFO] AdjustPhi: 8.919 [ms]
[INFO] ConstrainPressure: 0.005 [ms]
[INFO] MatrixAssemblyPII: 39.944 [ms]
[OGL LOG][Proc: 0]: global_index_init: 0.128 [ms]
[OGL LOG][Proc: 0]p_local_coeffs: call_update: 0 [ms]
[OGL LOG][Proc: 0]p_non_local_coeffs: call_update: 0 [ms]
[OGL LOG][Proc: 0]p: update_local_matrix_data: 32.196 [ms]
[OGL LOG][Proc: 0]p: update_non_local_matrix_data: 0.884 [ms]
[OGL LOG][Proc: 0]p: update_build_repartitioner: 3.397 [ms]
[OGL LOG][Proc: 0]p: update_repartitioned_existing: 27.31 [ms]
[OGL LOG][Proc: 0]p: update_offload_local_values: 7.876 [ms]
[OGL LOG][Proc: 0]p: update_offload_non_local_values: 0.104 [ms]
[OGL LOG][Proc: 0]p_matrix: call_update: 38.999 [ms]
[OGL LOG][Proc: 0]p_rhs: call_update: 25.234 [ms]
[OGL LOG][Proc: 0]p: init_precond: 0.039 [ms]
[OGL LOG][StoppingCriterion.H:372] Creating stopping criterion with minIter 916 frequency 14
[OGL LOG][Proc: 0]p: generate_solver: 0.03 [ms]
[OGL LOG][Proc: 0]p: solve: 1936.32 [ms]
[OGL LOG][Proc: 0]p: copy_x_back: 7.692 [ms]
[OGL LOG][lduLduBase.H:319] 
Statistics:
	Time per iteration: 1268 [mu s]
	Time per residual norm calculation: 410.000000 [mu s]
	Time per iteration and DOF: 0.158500 [ns]
	Retrieve results bandwith 1.040000 [GByte/s]
[OGL LOG][Proc: 0]p: solve_multi_gpu: 2009.19 [ms]
nonehipGKOCG:  Solving for p, Initial residual = 0.531003, Final residual = 8.05686e-05, No Iterations 1527
linear solve p 2050.7 [ms]
[INFO] SolveP: 2050.76 [ms]
time step continuity errors : sum local = 5.95109e-09, global = -1.31919e-21, cumulative = -2.47192e-20
[INFO] ContinuityError: 14.096 [ms]
[INFO] CorrectBoundary: 0.685 [ms]
[INFO] PISOStep: 2296.4 [ms]
[INFO] TimeStep: 5689.9 [ms]
ExecutionTime = 44.58 s  ClockTime = 45 s

Time = 0.00225

Courant Number mean: 0.0443649 max: 0.480354
[INFO] MatrixAssemblyU: 129.777 [ms]
DILUPBiCGStab:  Solving for Ux, Initial residual = 0.0125784, Final residual = 0.000325659, No Iterations 5
DILUPBiCGStab:  Solving for Uy, Initial residual = 0.0336515, Final residual = 0.000983954, No Iterations 5
DILUPBiCGStab:  Solving for Uz, Initial residual = 0.163701, Final residual = 0.00557156, No Iterations 5
linear solve U 875.282 [ms]
[INFO] MomentumPredictor: 924.783 [ms]
[INFO] MatrixAssemblyPI: 139.095 [ms]
[INFO] AdjustPhi: 6.956 [ms]
[INFO] ConstrainPressure: 0.003 [ms]
[INFO] MatrixAssemblyPII: 39.22 [ms]
[OGL LOG][Proc: 0]: global_index_init: 0.021 [ms]
[OGL LOG][Proc: 0]p_local_coeffs: call_update: 0 [ms]
[OGL LOG][Proc: 0]p_non_local_coeffs: call_update: 0 [ms]
[OGL LOG][Proc: 0]p: update_local_matrix_data: 32.07 [ms]
[OGL LOG][Proc: 0]p: update_non_local_matrix_data: 0.91 [ms]
[OGL LOG][Proc: 0]p: update_build_repartitioner: 3.549 [ms]
[OGL LOG][Proc: 0]p: update_repartitioned_existing: 32.357 [ms]
[OGL LOG][Proc: 0]p: update_offload_local_values: 6.299 [ms]
[OGL LOG][Proc: 0]p: update_offload_non_local_values: 0.093 [ms]
[OGL LOG][Proc: 0]p_matrix: call_update: 42.645 [ms]
[OGL LOG][Proc: 0]p_rhs: call_update: 25.066 [ms]
[OGL LOG][Proc: 0]p: init_precond: 0.035 [ms]
[OGL LOG][StoppingCriterion.H:372] Creating stopping criterion with minIter 916 frequency 14
[OGL LOG][Proc: 0]p: generate_solver: 0.02 [ms]
[OGL LOG][Proc: 0]p: solve: 1918.94 [ms]
[OGL LOG][Proc: 0]p: copy_x_back: 10.746 [ms]
[OGL LOG][lduLduBase.H:319] 
Statistics:
	Time per iteration: 1268 [mu s]
	Time per residual norm calculation: 372.000000 [mu s]
	Time per iteration and DOF: 0.158500 [ns]
	Retrieve results bandwith 0.744000 [GByte/s]
[OGL LOG][Proc: 0]p: solve_multi_gpu: 1998.5 [ms]
nonehipGKOCG:  Solving for p, Initial residual = 0.575315, Final residual = 8.22245e-05, No Iterations 1513
linear solve p 2037.13 [ms]
[INFO] SolveP: 2037.17 [ms]
time step continuity errors : sum local = 5.27124e-09, global = -4.95728e-22, cumulative = -2.52149e-20
[INFO] ContinuityError: 13.379 [ms]
[INFO] CorrectBoundary: 0.332 [ms]
[INFO] PISOStep: 2287.1 [ms]
[INFO] MatrixAssemblyPI: 135.092 [ms]
[INFO] AdjustPhi: 7.898 [ms]
[INFO] ConstrainPressure: 0.004 [ms]
[INFO] MatrixAssemblyPII: 40.19 [ms]
[OGL LOG][Proc: 0]: global_index_init: 0.018 [ms]
[OGL LOG][Proc: 0]p_local_coeffs: call_update: 0 [ms]
[OGL LOG][Proc: 0]p_non_local_coeffs: call_update: 0 [ms]
[OGL LOG][Proc: 0]p: update_local_matrix_data: 31.976 [ms]
[OGL LOG][Proc: 0]p: update_non_local_matrix_data: 0.795 [ms]
[OGL LOG][Proc: 0]p: update_build_repartitioner: 4.014 [ms]
[OGL LOG][Proc: 0]p: update_repartitioned_existing: 32.664 [ms]
[OGL LOG][Proc: 0]p: update_offload_local_values: 6.823 [ms]
[OGL LOG][Proc: 0]p: update_offload_non_local_values: 0.092 [ms]
[OGL LOG][Proc: 0]p_matrix: call_update: 43.947 [ms]
[OGL LOG][Proc: 0]p_rhs: call_update: 23.017 [ms]
[OGL LOG][Proc: 0]p: init_precond: 0.033 [ms]
[OGL LOG][StoppingCriterion.H:372] Creating stopping criterion with minIter 907 frequency 14
[OGL LOG][Proc: 0]p: generate_solver: 0.025 [ms]
[OGL LOG][Proc: 0]p: solve: 1923.41 [ms]
[OGL LOG][Proc: 0]p: copy_x_back: 10.573 [ms]
[OGL LOG][lduLduBase.H:319] 
Statistics:
	Time per iteration: 1283 [mu s]
	Time per residual norm calculation: 373.000000 [mu s]
	Time per iteration and DOF: 0.160375 [ns]
	Retrieve results bandwith 0.756000 [GByte/s]
[OGL LOG][Proc: 0]p: solve_multi_gpu: 2002.08 [ms]
nonehipGKOCG:  Solving for p, Initial residual = 0.514894, Final residual = 9.55107e-05, No Iterations 1499
linear solve p 2040.45 [ms]
[INFO] SolveP: 2040.5 [ms]
time step continuity errors : sum local = 6.12065e-09, global = -2.65623e-21, cumulative = -2.78711e-20
[INFO] ContinuityError: 12.573 [ms]
[INFO] CorrectBoundary: 0.226 [ms]
[INFO] PISOStep: 2286.07 [ms]
[INFO] TimeStep: 5642.33 [ms]
ExecutionTime = 50.13 s  ClockTime = 51 s

Time = 0.0025

Courant Number mean: 0.0464191 max: 0.48146
[INFO] MatrixAssemblyU: 131.336 [ms]
DILUPBiCGStab:  Solving for Ux, Initial residual = 0.0108253, Final residual = 0.000262313, No Iterations 5
DILUPBiCGStab:  Solving for Uy, Initial residual = 0.029486, Final residual = 0.000804426, No Iterations 5
DILUPBiCGStab:  Solving for Uz, Initial residual = 0.132382, Final residual = 0.00458749, No Iterations 5
linear solve U 873.255 [ms]
[INFO] MomentumPredictor: 921.927 [ms]
[INFO] MatrixAssemblyPI: 139.656 [ms]
[INFO] AdjustPhi: 6.568 [ms]
[INFO] ConstrainPressure: 0.003 [ms]
[INFO] MatrixAssemblyPII: 40.216 [ms]
[OGL LOG][Proc: 0]: global_index_init: 0.054 [ms]
[OGL LOG][Proc: 0]p_local_coeffs: call_update: 0 [ms]
[OGL LOG][Proc: 0]p_non_local_coeffs: call_update: 0 [ms]
[OGL LOG][Proc: 0]p: update_local_matrix_data: 32.371 [ms]
[OGL LOG][Proc: 0]p: update_non_local_matrix_data: 0.892 [ms]
[OGL LOG][Proc: 0]p: update_build_repartitioner: 3.16 [ms]
[OGL LOG][Proc: 0]p: update_repartitioned_existing: 27.547 [ms]
[OGL LOG][Proc: 0]p: update_offload_local_values: 6.547 [ms]
[OGL LOG][Proc: 0]p: update_offload_non_local_values: 0.117 [ms]
[OGL LOG][Proc: 0]p_matrix: call_update: 37.695 [ms]
[OGL LOG][Proc: 0]p_rhs: call_update: 20.876 [ms]
[OGL LOG][Proc: 0]p: init_precond: 0.031 [ms]
[OGL LOG][StoppingCriterion.H:372] Creating stopping criterion with minIter 899 frequency 14
[OGL LOG][Proc: 0]p: generate_solver: 0.028 [ms]
[OGL LOG][Proc: 0]p: solve: 1918.2 [ms]
[OGL LOG][Proc: 0]p: copy_x_back: 11.117 [ms]
[OGL LOG][lduLduBase.H:319] 
Statistics:
	Time per iteration: 1279 [mu s]
	Time per residual norm calculation: 364.000000 [mu s]
	Time per iteration and DOF: 0.159875 [ns]
	Retrieve results bandwith 0.719000 [GByte/s]
[OGL LOG][Proc: 0]p: solve_multi_gpu: 1988.98 [ms]
nonehipGKOCG:  Solving for p, Initial residual = 0.498611, Final residual = 9.28172e-05, No Iterations 1499
linear solve p 2027.65 [ms]
[INFO] SolveP: 2027.68 [ms]
time step continuity errors : sum local = 5.77566e-09, global = -4.22292e-21, cumulative = -3.2094e-20
[INFO] ContinuityError: 15.152 [ms]
[INFO] CorrectBoundary: 0.61 [ms]
[INFO] PISOStep: 2277.36 [ms]
[INFO] MatrixAssemblyPI: 134.477 [ms]
[INFO] AdjustPhi: 7.412 [ms]
[INFO] ConstrainPressure: 0.005 [ms]
[INFO] MatrixAssemblyPII: 40.217 [ms]
[OGL LOG][Proc: 0]: global_index_init: 0.057 [ms]
[OGL LOG][Proc: 0]p_local_coeffs: call_update: 0 [ms]
[OGL LOG][Proc: 0]p_non_local_coeffs: call_update: 0 [ms]
[OGL LOG][Proc: 0]p: update_local_matrix_data: 32.063 [ms]
[OGL LOG][Proc: 0]p: update_non_local_matrix_data: 1.094 [ms]
[OGL LOG][Proc: 0]p: update_build_repartitioner: 3.733 [ms]
[OGL LOG][Proc: 0]p: update_repartitioned_existing: 49.434 [ms]
[OGL LOG][Proc: 0]p: update_offload_local_values: 6.706 [ms]
[OGL LOG][Proc: 0]p: update_offload_non_local_values: 0.087 [ms]
[OGL LOG][Proc: 0]p_matrix: call_update: 60.243 [ms]
[OGL LOG][Proc: 0]p_rhs: call_update: 6.402 [ms]
[OGL LOG][Proc: 0]p: init_precond: 0.041 [ms]
[OGL LOG][StoppingCriterion.H:372] Creating stopping criterion with minIter 899 frequency 14
[OGL LOG][Proc: 0]p: generate_solver: 0.031 [ms]
[OGL LOG][Proc: 0]p: solve: 1919.11 [ms]
[OGL LOG][Proc: 0]p: copy_x_back: 11.136 [ms]
[OGL LOG][lduLduBase.H:319] 
Statistics:
	Time per iteration: 1280 [mu s]
	Time per residual norm calculation: 383.000000 [mu s]
	Time per iteration and DOF: 0.160000 [ns]
	Retrieve results bandwith 0.718000 [GByte/s]
[OGL LOG][Proc: 0]p: solve_multi_gpu: 1998.14 [ms]
nonehipGKOCG:  Solving for p, Initial residual = 0.44621, Final residual = 9.13037e-05, No Iterations 1499
linear solve p 2036.43 [ms]
[INFO] SolveP: 2036.47 [ms]
time step continuity errors : sum local = 5.65723e-09, global = -1.55457e-22, cumulative = -3.22495e-20
[INFO] ContinuityError: 13.723 [ms]
[INFO] CorrectBoundary: 0.497 [ms]
[INFO] PISOStep: 2281.51 [ms]
[INFO] TimeStep: 5626.56 [ms]
ExecutionTime = 55.71 s  ClockTime = 57 s

Time = 0.00275

Courant Number mean: 0.0483074 max: 0.482233
[INFO] MatrixAssemblyU: 130.249 [ms]
DILUPBiCGStab:  Solving for Ux, Initial residual = 0.00969639, Final residual = 0.000220374, No Iterations 5
DILUPBiCGStab:  Solving for Uy, Initial residual = 0.0249585, Final residual = 0.000584458, No Iterations 5
DILUPBiCGStab:  Solving for Uz, Initial residual = 0.110635, Final residual = 0.00431004, No Iterations 5
linear solve U 872.028 [ms]
[INFO] MomentumPredictor: 921.312 [ms]
[INFO] MatrixAssemblyPI: 139.235 [ms]
[INFO] AdjustPhi: 7.045 [ms]
[INFO] ConstrainPressure: 0.004 [ms]
[INFO] MatrixAssemblyPII: 40.216 [ms]
[OGL LOG][Proc: 0]: global_index_init: 0.036 [ms]
[OGL LOG][Proc: 0]p_local_coeffs: call_update: 0 [ms]
[OGL LOG][Proc: 0]p_non_local_coeffs: call_update: 0 [ms]
[OGL LOG][Proc: 0]p: update_local_matrix_data: 31.892 [ms]
[OGL LOG][Proc: 0]p: update_non_local_matrix_data: 0.85 [ms]
[OGL LOG][Proc: 0]p: update_build_repartitioner: 3.723 [ms]
[OGL LOG][Proc: 0]p: update_repartitioned_existing: 48.139 [ms]
[OGL LOG][Proc: 0]p: update_offload_local_values: 6.009 [ms]
[OGL LOG][Proc: 0]p: update_offload_non_local_values: 0.091 [ms]
[OGL LOG][Proc: 0]p_matrix: call_update: 58.271 [ms]
[OGL LOG][Proc: 0]p_rhs: call_update: 6.141 [ms]
[OGL LOG][Proc: 0]p: init_precond: 0.034 [ms]
[OGL LOG][StoppingCriterion.H:372] Creating stopping criterion with minIter 899 frequency 14
[OGL LOG][Proc: 0]p: generate_solver: 0.029 [ms]
[OGL LOG][Proc: 0]p: solve: 1896.4 [ms]
[OGL LOG][Proc: 0]p: copy_x_back: 11.081 [ms]
[OGL LOG][lduLduBase.H:319] 
Statistics:
	Time per iteration: 1265 [mu s]
	Time per residual norm calculation: 389.000000 [mu s]
	Time per iteration and DOF: 0.158125 [ns]
	Retrieve results bandwith 0.721000 [GByte/s]
[OGL LOG][Proc: 0]p: solve_multi_gpu: 1972.92 [ms]
nonehipGKOCG:  Solving for p, Initial residual = 0.474303, Final residual = 7.25528e-05, No Iterations 1499
linear solve p 2010.87 [ms]
[INFO] SolveP: 2010.9 [ms]
time step continuity errors : sum local = 4.07824e-09, global = -2.608e-21, cumulative = -3.48575e-20
[INFO] ContinuityError: 14.28 [ms]
[INFO] CorrectBoundary: 0.314 [ms]
[INFO] PISOStep: 2260.23 [ms]
[INFO] MatrixAssemblyPI: 133.791 [ms]
[INFO] AdjustPhi: 8.644 [ms]
[INFO] ConstrainPressure: 0.004 [ms]
[INFO] MatrixAssemblyPII: 40.349 [ms]
[OGL LOG][Proc: 0]: global_index_init: 0.019 [ms]
[OGL LOG][Proc: 0]p_local_coeffs: call_update: 0 [ms]
[OGL LOG][Proc: 0]p_non_local_coeffs: call_update: 0 [ms]
[OGL LOG][Proc: 0]p: update_local_matrix_data: 31.928 [ms]
[OGL LOG][Proc: 0]p: update_non_local_matrix_data: 0.821 [ms]
[OGL LOG][Proc: 0]p: update_build_repartitioner: 4.097 [ms]
[OGL LOG][Proc: 0]p: update_repartitioned_existing: 35.469 [ms]
[OGL LOG][Proc: 0]p: update_offload_local_values: 7.212 [ms]
[OGL LOG][Proc: 0]p: update_offload_non_local_values: 0.097 [ms]
[OGL LOG][Proc: 0]p_matrix: call_update: 47.223 [ms]
[OGL LOG][Proc: 0]p_rhs: call_update: 21.438 [ms]
[OGL LOG][Proc: 0]p: init_precond: 0.047 [ms]
[OGL LOG][StoppingCriterion.H:372] Creating stopping criterion with minIter 899 frequency 14
[OGL LOG][Proc: 0]p: generate_solver: 0.025 [ms]
[OGL LOG][Proc: 0]p: solve: 1891.78 [ms]
[OGL LOG][Proc: 0]p: copy_x_back: 7.737 [ms]
[OGL LOG][lduLduBase.H:319] 
Statistics:
	Time per iteration: 1273 [mu s]
	Time per residual norm calculation: 370.000000 [mu s]
	Time per iteration and DOF: 0.159125 [ns]
	Retrieve results bandwith 1.033000 [GByte/s]
[OGL LOG][Proc: 0]p: solve_multi_gpu: 1969.24 [ms]
nonehipGKOCG:  Solving for p, Initial residual = 0.420346, Final residual = 9.57082e-05, No Iterations 1485
linear solve p 2009.77 [ms]
[INFO] SolveP: 2009.83 [ms]
time step continuity errors : sum local = 5.38531e-09, global = -1.28612e-21, cumulative = -3.61436e-20
[INFO] ContinuityError: 11.67 [ms]
[INFO] CorrectBoundary: 1.504 [ms]
[INFO] PISOStep: 2256.21 [ms]
[INFO] TimeStep: 5582.98 [ms]
ExecutionTime = 61.24 s  ClockTime = 62 s

Time = 0.003

Courant Number mean: 0.0500404 max: 0.483022
[INFO] MatrixAssemblyU: 131.419 [ms]
DILUPBiCGStab:  Solving for Ux, Initial residual = 0.00860582, Final residual = 0.000183865, No Iterations 5
DILUPBiCGStab:  Solving for Uy, Initial residual = 0.0222985, Final residual = 0.000482638, No Iterations 5
DILUPBiCGStab:  Solving for Uz, Initial residual = 0.092586, Final residual = 0.00365884, No Iterations 5
linear solve U 869.996 [ms]
[INFO] MomentumPredictor: 919.408 [ms]
[INFO] MatrixAssemblyPI: 139.831 [ms]
[INFO] AdjustPhi: 6.426 [ms]
[INFO] ConstrainPressure: 0.003 [ms]
[INFO] MatrixAssemblyPII: 40.199 [ms]
[OGL LOG][Proc: 0]: global_index_init: 0.306 [ms]
[OGL LOG][Proc: 0]p_local_coeffs: call_update: 0 [ms]
[OGL LOG][Proc: 0]p_non_local_coeffs: call_update: 0 [ms]
[OGL LOG][Proc: 0]p: update_local_matrix_data: 32.022 [ms]
[OGL LOG][Proc: 0]p: update_non_local_matrix_data: 0.947 [ms]
[OGL LOG][Proc: 0]p: update_build_repartitioner: 3.468 [ms]
[OGL LOG][Proc: 0]p: update_repartitioned_existing: 32.762 [ms]
[OGL LOG][Proc: 0]p: update_offload_local_values: 6.186 [ms]
[OGL LOG][Proc: 0]p: update_offload_non_local_values: 0.089 [ms]
[OGL LOG][Proc: 0]p_matrix: call_update: 42.829 [ms]
[OGL LOG][Proc: 0]p_rhs: call_update: 21.175 [ms]
[OGL LOG][Proc: 0]p: init_precond: 0.033 [ms]
[OGL LOG][StoppingCriterion.H:372] Creating stopping criterion with minIter 891 frequency 14
[OGL LOG][Proc: 0]p: generate_solver: 0.028 [ms]
[OGL LOG][Proc: 0]p: solve: 1927.18 [ms]
[OGL LOG][Proc: 0]p: copy_x_back: 11.523 [ms]
[OGL LOG][lduLduBase.H:319] 
Statistics:
	Time per iteration: 1285 [mu s]
	Time per residual norm calculation: 390.000000 [mu s]
	Time per iteration and DOF: 0.160625 [ns]
	Retrieve results bandwith 0.694000 [GByte/s]
[OGL LOG][Proc: 0]p: solve_multi_gpu: 2003.9 [ms]
nonehipGKOCG:  Solving for p, Initial residual = 0.417054, Final residual = 7.44114e-05, No Iterations 1499
linear solve p 2041.88 [ms]
[INFO] SolveP: 2041.92 [ms]
time step continuity errors : sum local = 4.06406e-09, global = -4.44502e-21, cumulative = -4.05886e-20
[INFO] ContinuityError: 13.89 [ms]
[INFO] CorrectBoundary: 0.306 [ms]
[INFO] PISOStep: 2290.82 [ms]
[INFO] MatrixAssemblyPI: 135.173 [ms]
[INFO] AdjustPhi: 7.165 [ms]
[INFO] ConstrainPressure: 0.005 [ms]
[INFO] MatrixAssemblyPII: 40.21 [ms]
[OGL LOG][Proc: 0]: global_index_init: 0.02 [ms]
[OGL LOG][Proc: 0]p_local_coeffs: call_update: 0 [ms]
[OGL LOG][Proc: 0]p_non_local_coeffs: call_update: 0 [ms]
[OGL LOG][Proc: 0]p: update_local_matrix_data: 32.161 [ms]
[OGL LOG][Proc: 0]p: update_non_local_matrix_data: 0.798 [ms]
[OGL LOG][Proc: 0]p: update_build_repartitioner: 3.829 [ms]
[OGL LOG][Proc: 0]p: update_repartitioned_existing: 32.767 [ms]
[OGL LOG][Proc: 0]p: update_offload_local_values: 6.359 [ms]
[OGL LOG][Proc: 0]p: update_offload_non_local_values: 0.089 [ms]
[OGL LOG][Proc: 0]p_matrix: call_update: 43.385 [ms]
[OGL LOG][Proc: 0]p_rhs: call_update: 13.759 [ms]
[OGL LOG][Proc: 0]p: init_precond: 0.033 [ms]
[OGL LOG][StoppingCriterion.H:372] Creating stopping criterion with minIter 899 frequency 14
[OGL LOG][Proc: 0]p: generate_solver: 0.03 [ms]
[OGL LOG][Proc: 0]p: solve: 1919.67 [ms]
[OGL LOG][Proc: 0]p: copy_x_back: 10.675 [ms]
[OGL LOG][lduLduBase.H:319] 
Statistics:
	Time per iteration: 1292 [mu s]
	Time per residual norm calculation: 394.000000 [mu s]
	Time per iteration and DOF: 0.161500 [ns]
	Retrieve results bandwith 0.749000 [GByte/s]
[OGL LOG][Proc: 0]p: solve_multi_gpu: 1988.66 [ms]
nonehipGKOCG:  Solving for p, Initial residual = 0.370677, Final residual = 9.61494e-05, No Iterations 1485
linear solve p 2027.01 [ms]
[INFO] SolveP: 2027.04 [ms]
time step continuity errors : sum local = 5.228e-09, global = -3.37177e-21, cumulative = -4.39604e-20
[INFO] ContinuityError: 15.963 [ms]
[INFO] CorrectBoundary: 0.229 [ms]
[INFO] PISOStep: 2273.13 [ms]
[INFO] TimeStep: 5629.38 [ms]
ExecutionTime = 66.83 s  ClockTime = 68 s

Time = 0.00325

Courant Number mean: 0.0516503 max: 0.483587
[INFO] MatrixAssemblyU: 127.849 [ms]
DILUPBiCGStab:  Solving for Ux, Initial residual = 0.00781062, Final residual = 0.000157022, No Iterations 5
DILUPBiCGStab:  Solving for Uy, Initial residual = 0.0195176, Final residual = 0.000373184, No Iterations 5
DILUPBiCGStab:  Solving for Uz, Initial residual = 0.0789669, Final residual = 0.00340013, No Iterations 5
linear solve U 870.112 [ms]
[INFO] MomentumPredictor: 921.15 [ms]
[INFO] MatrixAssemblyPI: 138.407 [ms]
[INFO] AdjustPhi: 8.934 [ms]
[INFO] ConstrainPressure: 0.002 [ms]
[INFO] MatrixAssemblyPII: 40.064 [ms]
[OGL LOG][Proc: 0]: global_index_init: 0.023 [ms]
[OGL LOG][Proc: 0]p_local_coeffs: call_update: 0 [ms]
[OGL LOG][Proc: 0]p_non_local_coeffs: call_update: 0 [ms]
[OGL LOG][Proc: 0]p: update_local_matrix_data: 31.774 [ms]
[OGL LOG][Proc: 0]p: update_non_local_matrix_data: 1.14 [ms]
[OGL LOG][Proc: 0]p: update_build_repartitioner: 3.23 [ms]
[OGL LOG][Proc: 0]p: update_repartitioned_existing: 27.301 [ms]
[OGL LOG][Proc: 0]p: update_offload_local_values: 6.947 [ms]
[OGL LOG][Proc: 0]p: update_offload_non_local_values: 0.115 [ms]
[OGL LOG][Proc: 0]p_matrix: call_update: 37.932 [ms]
[OGL LOG][Proc: 0]p_rhs: call_update: 23.652 [ms]
[OGL LOG][Proc: 0]p: init_precond: 0.034 [ms]
[OGL LOG][StoppingCriterion.H:372] Creating stopping criterion with minIter 891 frequency 14
[OGL LOG][Proc: 0]p: generate_solver: 0.021 [ms]
[OGL LOG][Proc: 0]p: solve: 1883.22 [ms]
[OGL LOG][Proc: 0]p: copy_x_back: 9.316 [ms]
[OGL LOG][lduLduBase.H:319] 
Statistics:
	Time per iteration: 1268 [mu s]
	Time per residual norm calculation: 394.000000 [mu s]
	Time per iteration and DOF: 0.158500 [ns]
	Retrieve results bandwith 0.858000 [GByte/s]
[OGL LOG][Proc: 0]p: solve_multi_gpu: 1955.43 [ms]
nonehipGKOCG:  Solving for p, Initial residual = 0.386508, Final residual = 9.17601e-05, No Iterations 1485
linear solve p 1993.47 [ms]
[INFO] SolveP: 1993.5 [ms]
time step continuity errors : sum local = 4.68357e-09, global = -3.03482e-21, cumulative = -4.69952e-20
[INFO] ContinuityError: 14.218 [ms]
[INFO] CorrectBoundary: 0.295 [ms]
[INFO] PISOStep: 2243.73 [ms]
[INFO] MatrixAssemblyPI: 135.467 [ms]
[INFO] AdjustPhi: 7.236 [ms]
[INFO] ConstrainPressure: 0.004 [ms]
[INFO] MatrixAssemblyPII: 40.14 [ms]
[OGL LOG][Proc: 0]: global_index_init: 0.271 [ms]
[OGL LOG][Proc: 0]p_local_coeffs: call_update: 0 [ms]
[OGL LOG][Proc: 0]p_non_local_coeffs: call_update: 0 [ms]
[OGL LOG][Proc: 0]p: update_local_matrix_data: 32.077 [ms]
[OGL LOG][Proc: 0]p: update_non_local_matrix_data: 0.784 [ms]
[OGL LOG][Proc: 0]p: update_build_repartitioner: 3.534 [ms]
[OGL LOG][Proc: 0]p: update_repartitioned_existing: 27.254 [ms]
[OGL LOG][Proc: 0]p: update_offload_local_values: 6.713 [ms]
[OGL LOG][Proc: 0]p: update_offload_non_local_values: 0.104 [ms]
[OGL LOG][Proc: 0]p_matrix: call_update: 37.944 [ms]
[OGL LOG][Proc: 0]p_rhs: call_update: 18.385 [ms]
[OGL LOG][Proc: 0]p: init_precond: 0.037 [ms]
[OGL LOG][StoppingCriterion.H:372] Creating stopping criterion with minIter 891 frequency 14
[OGL LOG][Proc: 0]p: generate_solver: 0.029 [ms]
[OGL LOG][Proc: 0]p: solve: 1894.81 [ms]
[OGL LOG][Proc: 0]p: copy_x_back: 7.542 [ms]
[OGL LOG][lduLduBase.H:319] 
Statistics:
	Time per iteration: 1275 [mu s]
	Time per residual norm calculation: 361.000000 [mu s]
	Time per iteration and DOF: 0.159375 [ns]
	Retrieve results bandwith 1.060000 [GByte/s]
[OGL LOG][Proc: 0]p: solve_multi_gpu: 1959.66 [ms]
nonehipGKOCG:  Solving for p, Initial residual = 0.340515, Final residual = 8.5716e-05, No Iterations 1485
linear solve p 1998.58 [ms]
[INFO] SolveP: 1998.61 [ms]
time step continuity errors : sum local = 4.38063e-09, global = -5.62163e-22, cumulative = -4.75574e-20
[INFO] ContinuityError: 17.308 [ms]
[INFO] CorrectBoundary: 0.48 [ms]
[INFO] PISOStep: 2244.86 [ms]
[INFO] TimeStep: 5552.05 [ms]
ExecutionTime = 72.32 s  ClockTime = 73 s

Time = 0.0035

Courant Number mean: 0.0531454 max: 0.484182
[INFO] MatrixAssemblyU: 129.851 [ms]
DILUPBiCGStab:  Solving for Ux, Initial residual = 0.00707672, Final residual = 0.000134797, No Iterations 5
DILUPBiCGStab:  Solving for Uy, Initial residual = 0.0177003, Final residual = 0.000308116, No Iterations 5
DILUPBiCGStab:  Solving for Uz, Initial residual = 0.0681015, Final residual = 0.00295362, No Iterations 5
linear solve U 875.047 [ms]
[INFO] MomentumPredictor: 924.641 [ms]
[INFO] MatrixAssemblyPI: 139.284 [ms]
[INFO] AdjustPhi: 6.437 [ms]
[INFO] ConstrainPressure: 0.003 [ms]
[INFO] MatrixAssemblyPII: 40.214 [ms]
[OGL LOG][Proc: 0]: global_index_init: 0.038 [ms]
[OGL LOG][Proc: 0]p_local_coeffs: call_update: 0 [ms]
[OGL LOG][Proc: 0]p_non_local_coeffs: call_update: 0 [ms]
[OGL LOG][Proc: 0]p: update_local_matrix_data: 32.183 [ms]
[OGL LOG][Proc: 0]p: update_non_local_matrix_data: 0.84 [ms]
[OGL LOG][Proc: 0]p: update_build_repartitioner: 3.545 [ms]
[OGL LOG][Proc: 0]p: update_repartitioned_existing: 32.477 [ms]
[OGL LOG][Proc: 0]p: update_offload_local_values: 5.954 [ms]
[OGL LOG][Proc: 0]p: update_offload_non_local_values: 0.091 [ms]
[OGL LOG][Proc: 0]p_matrix: call_update: 42.368 [ms]
[OGL LOG][Proc: 0]p_rhs: call_update: 14.334 [ms]
[OGL LOG][Proc: 0]p: init_precond: 0.034 [ms]
[OGL LOG][StoppingCriterion.H:372] Creating stopping criterion with minIter 891 frequency 14
[OGL LOG][Proc: 0]p: generate_solver: 0.03 [ms]
[OGL LOG][Proc: 0]p: solve: 1911.38 [ms]
[OGL LOG][Proc: 0]p: copy_x_back: 10.292 [ms]
[OGL LOG][lduLduBase.H:319] 
Statistics:
	Time per iteration: 1287 [mu s]
	Time per residual norm calculation: 382.000000 [mu s]
	Time per iteration and DOF: 0.160875 [ns]
	Retrieve results bandwith 0.777000 [GByte/s]
[OGL LOG][Proc: 0]p: solve_multi_gpu: 1979.61 [ms]
nonehipGKOCG:  Solving for p, Initial residual = 0.344544, Final residual = 9.54045e-05, No Iterations 1485
linear solve p 2017.92 [ms]
[INFO] SolveP: 2017.95 [ms]
time step continuity errors : sum local = 4.71179e-09, global = -3.00783e-21, cumulative = -5.05652e-20
[INFO] ContinuityError: 16.493 [ms]
[INFO] CorrectBoundary: 1.215 [ms]
[INFO] PISOStep: 2267.81 [ms]
[INFO] MatrixAssemblyPI: 134.367 [ms]
[INFO] AdjustPhi: 8.118 [ms]
[INFO] ConstrainPressure: 0.004 [ms]
[INFO] MatrixAssemblyPII: 39.693 [ms]
[OGL LOG][Proc: 0]: global_index_init: 0.019 [ms]
[OGL LOG][Proc: 0]p_local_coeffs: call_update: 0 [ms]
[OGL LOG][Proc: 0]p_non_local_coeffs: call_update: 0 [ms]
[OGL LOG][Proc: 0]p: update_local_matrix_data: 32.028 [ms]
[OGL LOG][Proc: 0]p: update_non_local_matrix_data: 0.929 [ms]
[OGL LOG][Proc: 0]p: update_build_repartitioner: 3.917 [ms]
[OGL LOG][Proc: 0]p: update_repartitioned_existing: 32.845 [ms]
[OGL LOG][Proc: 0]p: update_offload_local_values: 5.839 [ms]
[OGL LOG][Proc: 0]p: update_offload_non_local_values: 0.088 [ms]
[OGL LOG][Proc: 0]p_matrix: call_update: 43 [ms]
[OGL LOG][Proc: 0]p_rhs: call_update: 24.993 [ms]
[OGL LOG][Proc: 0]p: init_precond: 0.033 [ms]
[OGL LOG][StoppingCriterion.H:372] Creating stopping criterion with minIter 891 frequency 14
[OGL LOG][Proc: 0]p: generate_solver: 0.022 [ms]
[OGL LOG][Proc: 0]p: solve: 1896.1 [ms]
[OGL LOG][Proc: 0]p: copy_x_back: 13.104 [ms]
[OGL LOG][lduLduBase.H:319] 
Statistics:
	Time per iteration: 1276 [mu s]
	Time per residual norm calculation: 388.000000 [mu s]
	Time per iteration and DOF: 0.159500 [ns]
	Retrieve results bandwith 0.610000 [GByte/s]
[OGL LOG][Proc: 0]p: solve_multi_gpu: 1978.31 [ms]
nonehipGKOCG:  Solving for p, Initial residual = 0.305124, Final residual = 8.98002e-05, No Iterations 1485
linear solve p 2016.6 [ms]
[INFO] SolveP: 2016.63 [ms]
time step continuity errors : sum local = 4.41746e-09, global = -2.65048e-21, cumulative = -5.32157e-20
[INFO] ContinuityError: 11.793 [ms]
[INFO] CorrectBoundary: 0.408 [ms]
[INFO] PISOStep: 2262.78 [ms]
[INFO] TimeStep: 5599.53 [ms]
ExecutionTime = 77.87 s  ClockTime = 79 s

Time = 0.00375

Courant Number mean: 0.0545471 max: 0.484622
[INFO] MatrixAssemblyU: 129.343 [ms]
DILUPBiCGStab:  Solving for Ux, Initial residual = 0.00648925, Final residual = 0.000116785, No Iterations 5
DILUPBiCGStab:  Solving for Uy, Initial residual = 0.0158567, Final residual = 0.000257275, No Iterations 5
DILUPBiCGStab:  Solving for Uz, Initial residual = 0.058874, Final residual = 0.00269743, No Iterations 5
linear solve U 874.278 [ms]
[INFO] MomentumPredictor: 921.061 [ms]
[INFO] MatrixAssemblyPI: 137.553 [ms]
[INFO] AdjustPhi: 8.955 [ms]
[INFO] ConstrainPressure: 0.003 [ms]
[INFO] MatrixAssemblyPII: 37.874 [ms]
[OGL LOG][Proc: 0]: global_index_init: 0.061 [ms]
[OGL LOG][Proc: 0]p_local_coeffs: call_update: 0 [ms]
[OGL LOG][Proc: 0]p_non_local_coeffs: call_update: 0 [ms]
[OGL LOG][Proc: 0]p: update_local_matrix_data: 31.945 [ms]
[OGL LOG][Proc: 0]p: update_non_local_matrix_data: 0.93 [ms]
[OGL LOG][Proc: 0]p: update_build_repartitioner: 3.485 [ms]
[OGL LOG][Proc: 0]p: update_repartitioned_existing: 32.557 [ms]
[OGL LOG][Proc: 0]p: update_offload_local_values: 6.16 [ms]
[OGL LOG][Proc: 0]p: update_offload_non_local_values: 0.092 [ms]
[OGL LOG][Proc: 0]p_matrix: call_update: 42.604 [ms]
[OGL LOG][Proc: 0]p_rhs: call_update: 25.528 [ms]
[OGL LOG][Proc: 0]p: init_precond: 0.038 [ms]
[OGL LOG][StoppingCriterion.H:372] Creating stopping criterion with minIter 891 frequency 14
[OGL LOG][Proc: 0]p: generate_solver: 0.025 [ms]
[OGL LOG][Proc: 0]p: solve: 1901.73 [ms]
[OGL LOG][Proc: 0]p: copy_x_back: 7.62 [ms]
[OGL LOG][lduLduBase.H:319] 
Statistics:
	Time per iteration: 1280 [mu s]
	Time per residual norm calculation: 376.000000 [mu s]
	Time per iteration and DOF: 0.160000 [ns]
	Retrieve results bandwith 1.049000 [GByte/s]
[OGL LOG][Proc: 0]p: solve_multi_gpu: 1978.63 [ms]
nonehipGKOCG:  Solving for p, Initial residual = 0.312263, Final residual = 8.64603e-05, No Iterations 1485
linear solve p 2020.04 [ms]
[INFO] SolveP: 2020.13 [ms]
time step continuity errors : sum local = 4.09725e-09, global = -2.30621e-21, cumulative = -5.55219e-20
[INFO] ContinuityError: 13.873 [ms]
[INFO] CorrectBoundary: 0.784 [ms]
[INFO] PISOStep: 2269.1 [ms]
[INFO] MatrixAssemblyPI: 135.137 [ms]
[INFO] AdjustPhi: 7.025 [ms]
[INFO] ConstrainPressure: 0.005 [ms]
[INFO] MatrixAssemblyPII: 40.111 [ms]
[OGL LOG][Proc: 0]: global_index_init: 0.017 [ms]
[OGL LOG][Proc: 0]p_local_coeffs: call_update: 0 [ms]
[OGL LOG][Proc: 0]p_non_local_coeffs: call_update: 0 [ms]
[OGL LOG][Proc: 0]p: update_local_matrix_data: 31.992 [ms]
[OGL LOG][Proc: 0]p: update_non_local_matrix_data: 0.795 [ms]
[OGL LOG][Proc: 0]p: update_build_repartitioner: 3.857 [ms]
[OGL LOG][Proc: 0]p: update_repartitioned_existing: 32.677 [ms]
[OGL LOG][Proc: 0]p: update_offload_local_values: 7.004 [ms]
[OGL LOG][Proc: 0]p: update_offload_non_local_values: 0.088 [ms]
[OGL LOG][Proc: 0]p_matrix: call_update: 44.168 [ms]
[OGL LOG][Proc: 0]p_rhs: call_update: 13.627 [ms]
[OGL LOG][Proc: 0]p: init_precond: 0.033 [ms]
[OGL LOG][StoppingCriterion.H:372] Creating stopping criterion with minIter 891 frequency 14
[OGL LOG][Proc: 0]p: generate_solver: 0.029 [ms]
[OGL LOG][Proc: 0]p: solve: 1902.12 [ms]
[OGL LOG][Proc: 0]p: copy_x_back: 8.195 [ms]
[OGL LOG][lduLduBase.H:319] 
Statistics:
	Time per iteration: 1280 [mu s]
	Time per residual norm calculation: 389.000000 [mu s]
	Time per iteration and DOF: 0.160000 [ns]
	Retrieve results bandwith 0.976000 [GByte/s]
[OGL LOG][Proc: 0]p: solve_multi_gpu: 1969.33 [ms]
nonehipGKOCG:  Solving for p, Initial residual = 0.274414, Final residual = 8.06365e-05, No Iterations 1485
linear solve p 2009.02 [ms]
[INFO] SolveP: 2009.06 [ms]
time step continuity errors : sum local = 3.8255e-09, global = -2.10702e-21, cumulative = -5.76289e-20
[INFO] ContinuityError: 13.933 [ms]
[INFO] CorrectBoundary: 4.695 [ms]
[INFO] PISOStep: 2252.94 [ms]
[INFO] TimeStep: 5589.23 [ms]
ExecutionTime = 83.41 s  ClockTime = 84 s

Time = 0.004

Courant Number mean: 0.0558602 max: 0.485085
[INFO] MatrixAssemblyU: 129.78 [ms]
DILUPBiCGStab:  Solving for Ux, Initial residual = 0.00596595, Final residual = 0.000102541, No Iterations 5
DILUPBiCGStab:  Solving for Uy, Initial residual = 0.0145537, Final residual = 0.000216117, No Iterations 5
DILUPBiCGStab:  Solving for Uz, Initial residual = 0.0519413, Final residual = 0.00236435, No Iterations 5
linear solve U 869.293 [ms]
[INFO] MomentumPredictor: 919.304 [ms]
[INFO] MatrixAssemblyPI: 139.574 [ms]
[INFO] AdjustPhi: 6.572 [ms]
[INFO] ConstrainPressure: 0.004 [ms]
[INFO] MatrixAssemblyPII: 40.78 [ms]
[OGL LOG][Proc: 0]: global_index_init: 0.351 [ms]
[OGL LOG][Proc: 0]p_local_coeffs: call_update: 0 [ms]
[OGL LOG][Proc: 0]p_non_local_coeffs: call_update: 0 [ms]
[OGL LOG][Proc: 0]p: update_local_matrix_data: 31.996 [ms]
[OGL LOG][Proc: 0]p: update_non_local_matrix_data: 0.81 [ms]
[OGL LOG][Proc: 0]p: update_build_repartitioner: 3.434 [ms]
[OGL LOG][Proc: 0]p: update_repartitioned_existing: 32.68 [ms]
[OGL LOG][Proc: 0]p: update_offload_local_values: 10.136 [ms]
[OGL LOG][Proc: 0]p: update_offload_non_local_values: 0.088 [ms]
[OGL LOG][Proc: 0]p_matrix: call_update: 46.658 [ms]
[OGL LOG][Proc: 0]p_rhs: call_update: 6.149 [ms]
[OGL LOG][Proc: 0]p: init_precond: 0.033 [ms]
[OGL LOG][StoppingCriterion.H:372] Creating stopping criterion with minIter 891 frequency 14
[OGL LOG][Proc: 0]p: generate_solver: 0.029 [ms]
[OGL LOG][Proc: 0]p: solve: 1888.35 [ms]
[OGL LOG][Proc: 0]p: copy_x_back: 11.499 [ms]
[OGL LOG][lduLduBase.H:319] 
Statistics:
	Time per iteration: 1271 [mu s]
	Time per residual norm calculation: 394.000000 [mu s]
	Time per iteration and DOF: 0.158875 [ns]
	Retrieve results bandwith 0.695000 [GByte/s]
[OGL LOG][Proc: 0]p: solve_multi_gpu: 1953.64 [ms]
nonehipGKOCG:  Solving for p, Initial residual = 0.281566, Final residual = 7.91562e-05, No Iterations 1485
linear solve p 1992.39 [ms]
[INFO] SolveP: 1992.43 [ms]
time step continuity errors : sum local = 3.61504e-09, global = -1.93509e-21, cumulative = -5.9564e-20
[INFO] ContinuityError: 11.733 [ms]
[INFO] CorrectBoundary: 1.02 [ms]
[INFO] PISOStep: 2241.46 [ms]
[INFO] MatrixAssemblyPI: 134.759 [ms]
[INFO] AdjustPhi: 8.341 [ms]
[INFO] ConstrainPressure: 0.004 [ms]
[INFO] MatrixAssemblyPII: 40.219 [ms]
[OGL LOG][Proc: 0]: global_index_init: 0.018 [ms]
[OGL LOG][Proc: 0]p_local_coeffs: call_update: 0 [ms]
[OGL LOG][Proc: 0]p_non_local_coeffs: call_update: 0 [ms]
[OGL LOG][Proc: 0]p: update_local_matrix_data: 32.059 [ms]
[OGL LOG][Proc: 0]p: update_non_local_matrix_data: 1.124 [ms]
[OGL LOG][Proc: 0]p: update_build_repartitioner: 3.23 [ms]
[OGL LOG][Proc: 0]p: update_repartitioned_existing: 48.43 [ms]
[OGL LOG][Proc: 0]p: update_offload_local_values: 6.932 [ms]
[OGL LOG][Proc: 0]p: update_offload_non_local_values: 0.088 [ms]
[OGL LOG][Proc: 0]p_matrix: call_update: 58.969 [ms]
[OGL LOG][Proc: 0]p_rhs: call_update: 6.486 [ms]
[OGL LOG][Proc: 0]p: init_precond: 0.036 [ms]
[OGL LOG][StoppingCriterion.H:372] Creating stopping criterion with minIter 891 frequency 14
[OGL LOG][Proc: 0]p: generate_solver: 0.036 [ms]
[OGL LOG][Proc: 0]p: solve: 1908.65 [ms]
[OGL LOG][Proc: 0]p: copy_x_back: 10.722 [ms]
[OGL LOG][lduLduBase.H:319] 
Statistics:
	Time per iteration: 1285 [mu s]
	Time per residual norm calculation: 381.000000 [mu s]
	Time per iteration and DOF: 0.160625 [ns]
	Retrieve results bandwith 0.746000 [GByte/s]
[OGL LOG][Proc: 0]p: solve_multi_gpu: 1985.96 [ms]
nonehipGKOCG:  Solving for p, Initial residual = 0.248575, Final residual = 7.41278e-05, No Iterations 1485
linear solve p 2024.36 [ms]
[INFO] SolveP: 2024.4 [ms]
time step continuity errors : sum local = 3.37452e-09, global = -9.00478e-22, cumulative = -6.04645e-20
[INFO] ContinuityError: 14.041 [ms]
[INFO] CorrectBoundary: 0.299 [ms]
[INFO] PISOStep: 2270.37 [ms]
[INFO] TimeStep: 5575.29 [ms]
ExecutionTime = 88.93 s  ClockTime = 90 s

Time = 0.00425

Courant Number mean: 0.0570983 max: 0.485442
[INFO] MatrixAssemblyU: 129.587 [ms]
DILUPBiCGStab:  Solving for Ux, Initial residual = 0.00551697, Final residual = 8.99022e-05, No Iterations 5
DILUPBiCGStab:  Solving for Uy, Initial residual = 0.0132552, Final residual = 0.000192603, No Iterations 5
DILUPBiCGStab:  Solving for Uz, Initial residual = 0.0454417, Final residual = 0.0021203, No Iterations 5
linear solve U 872.519 [ms]
[INFO] MomentumPredictor: 922.837 [ms]
[INFO] MatrixAssemblyPI: 138.802 [ms]
[INFO] AdjustPhi: 7.906 [ms]
[INFO] ConstrainPressure: 0.003 [ms]
[INFO] MatrixAssemblyPII: 40.295 [ms]
[OGL LOG][Proc: 0]: global_index_init: 0.024 [ms]
[OGL LOG][Proc: 0]p_local_coeffs: call_update: 0 [ms]
[OGL LOG][Proc: 0]p_non_local_coeffs: call_update: 0 [ms]
[OGL LOG][Proc: 0]p: update_local_matrix_data: 31.984 [ms]
[OGL LOG][Proc: 0]p: update_non_local_matrix_data: 0.771 [ms]
[OGL LOG][Proc: 0]p: update_build_repartitioner: 3.3 [ms]
[OGL LOG][Proc: 0]p: update_repartitioned_existing: 49.453 [ms]
[OGL LOG][Proc: 0]p: update_offload_local_values: 6.892 [ms]
[OGL LOG][Proc: 0]p: update_offload_non_local_values: 0.089 [ms]
[OGL LOG][Proc: 0]p_matrix: call_update: 60.038 [ms]
[OGL LOG][Proc: 0]p_rhs: call_update: 6.277 [ms]
[OGL LOG][Proc: 0]p: init_precond: 0.034 [ms]
[OGL LOG][StoppingCriterion.H:372] Creating stopping criterion with minIter 891 frequency 14
[OGL LOG][Proc: 0]p: generate_solver: 0.03 [ms]
[OGL LOG][Proc: 0]p: solve: 1154.99 [ms]
[OGL LOG][Proc: 0]p: copy_x_back: 8.146 [ms]
[OGL LOG][lduLduBase.H:319] 
Statistics:
	Time per iteration: 1287 [mu s]
	Time per residual norm calculation: 407.000000 [mu s]
	Time per iteration and DOF: 0.160875 [ns]
	Retrieve results bandwith 0.982000 [GByte/s]
[OGL LOG][Proc: 0]p: solve_multi_gpu: 1230.59 [ms]
nonehipGKOCG:  Solving for p, Initial residual = 0.251416, Final residual = 8.59905e-05, No Iterations 897
linear solve p 1268.66 [ms]
[INFO] SolveP: 1268.69 [ms]
time step continuity errors : sum local = 3.97769e-09, global = -1.60111e-21, cumulative = -6.20656e-20
[INFO] ContinuityError: 17.28 [ms]
[INFO] CorrectBoundary: 0.386 [ms]
[INFO] PISOStep: 1519.72 [ms]
[INFO] MatrixAssemblyPI: 135.647 [ms]
[INFO] AdjustPhi: 6.639 [ms]
[INFO] ConstrainPressure: 0.004 [ms]
[INFO] MatrixAssemblyPII: 40.192 [ms]
[OGL LOG][Proc: 0]: global_index_init: 0.295 [ms]
[OGL LOG][Proc: 0]p_local_coeffs: call_update: 0 [ms]
[OGL LOG][Proc: 0]p_non_local_coeffs: call_update: 0 [ms]
[OGL LOG][Proc: 0]p: update_local_matrix_data: 32.126 [ms]
[OGL LOG][Proc: 0]p: update_non_local_matrix_data: 0.802 [ms]
[OGL LOG][Proc: 0]p: update_build_repartitioner: 3.719 [ms]
[OGL LOG][Proc: 0]p: update_repartitioned_existing: 27.439 [ms]
[OGL LOG][Proc: 0]p: update_offload_local_values: 7.027 [ms]
[OGL LOG][Proc: 0]p: update_offload_non_local_values: 0.104 [ms]
[OGL LOG][Proc: 0]p_matrix: call_update: 38.644 [ms]
[OGL LOG][Proc: 0]p_rhs: call_update: 17.387 [ms]
[OGL LOG][Proc: 0]p: init_precond: 0.036 [ms]
[OGL LOG][StoppingCriterion.H:372] Creating stopping criterion with minIter 538 frequency 10
[OGL LOG][Proc: 0]p: generate_solver: 0.027 [ms]
[OGL LOG][Proc: 0]p: solve: 871.891 [ms]
[OGL LOG][Proc: 0]p: copy_x_back: 7.697 [ms]
[OGL LOG][lduLduBase.H:319] 
Statistics:
	Time per iteration: 1319 [mu s]
	Time per residual norm calculation: 388.000000 [mu s]
	Time per iteration and DOF: 0.164875 [ns]
	Retrieve results bandwith 1.039000 [GByte/s]
[OGL LOG][Proc: 0]p: solve_multi_gpu: 936.669 [ms]
nonehipGKOCG:  Solving for p, Initial residual = 0.220435, Final residual = 9.00203e-05, No Iterations 661
linear solve p 977.365 [ms]
[INFO] SolveP: 977.425 [ms]
time step continuity errors : sum local = 4.07057e-09, global = -4.67167e-21, cumulative = -6.67373e-20
[INFO] ContinuityError: 13.649 [ms]
[INFO] CorrectBoundary: 0.278 [ms]
[INFO] PISOStep: 1221.82 [ms]
[INFO] TimeStep: 3808.73 [ms]
ExecutionTime = 92.7 s  ClockTime = 94 s

Time = 0.0045

Courant Number mean: 0.0582668 max: 0.485813
[INFO] MatrixAssemblyU: 129.963 [ms]
DILUPBiCGStab:  Solving for Ux, Initial residual = 0.00512849, Final residual = 8.03237e-05, No Iterations 5
DILUPBiCGStab:  Solving for Uy, Initial residual = 0.0122849, Final residual = 0.000166509, No Iterations 5
DILUPBiCGStab:  Solving for Uz, Initial residual = 0.0408964, Final residual = 0.00186316, No Iterations 5
linear solve U 875.079 [ms]
[INFO] MomentumPredictor: 924.59 [ms]
[INFO] MatrixAssemblyPI: 139.204 [ms]
[INFO] AdjustPhi: 6.878 [ms]
[INFO] ConstrainPressure: 0.003 [ms]
[INFO] MatrixAssemblyPII: 40.195 [ms]
[OGL LOG][Proc: 0]: global_index_init: 0.311 [ms]
[OGL LOG][Proc: 0]p_local_coeffs: call_update: 0 [ms]
[OGL LOG][Proc: 0]p_non_local_coeffs: call_update: 0 [ms]
[OGL LOG][Proc: 0]p: update_local_matrix_data: 32.181 [ms]
[OGL LOG][Proc: 0]p: update_non_local_matrix_data: 0.851 [ms]
[OGL LOG][Proc: 0]p: update_build_repartitioner: 3.415 [ms]
[OGL LOG][Proc: 0]p: update_repartitioned_existing: 32.556 [ms]
[OGL LOG][Proc: 0]p: update_offload_local_values: 10.474 [ms]
[OGL LOG][Proc: 0]p: update_offload_non_local_values: 0.09 [ms]
[OGL LOG][Proc: 0]p_matrix: call_update: 46.847 [ms]
[OGL LOG][Proc: 0]p_rhs: call_update: 6.563 [ms]
[OGL LOG][Proc: 0]p: init_precond: 0.037 [ms]
[OGL LOG][StoppingCriterion.H:372] Creating stopping criterion with minIter 396 frequency 9
[OGL LOG][Proc: 0]p: generate_solver: 0.029 [ms]
[OGL LOG][Proc: 0]p: solve: 909.643 [ms]
[OGL LOG][Proc: 0]p: copy_x_back: 8.175 [ms]
[OGL LOG][lduLduBase.H:319] 
Statistics:
	Time per iteration: 1310 [mu s]
	Time per residual norm calculation: 367.000000 [mu s]
	Time per iteration and DOF: 0.163750 [ns]
	Retrieve results bandwith 0.978000 [GByte/s]
[OGL LOG][Proc: 0]p: solve_multi_gpu: 972.398 [ms]
nonehipGKOCG:  Solving for p, Initial residual = 0.227912, Final residual = 9.2626e-05, No Iterations 694
linear solve p 1010.53 [ms]
[INFO] SolveP: 1010.57 [ms]
time step continuity errors : sum local = 4.33844e-09, global = -9.77288e-22, cumulative = -6.77146e-20
[INFO] ContinuityError: 15.079 [ms]
[INFO] CorrectBoundary: 0.43 [ms]
[INFO] PISOStep: 1260.5 [ms]
[INFO] MatrixAssemblyPI: 135.316 [ms]
[INFO] AdjustPhi: 6.557 [ms]
[INFO] ConstrainPressure: 0.004 [ms]
[INFO] MatrixAssemblyPII: 40.174 [ms]
[OGL LOG][Proc: 0]: global_index_init: 0.293 [ms]
[OGL LOG][Proc: 0]p_local_coeffs: call_update: 0 [ms]
[OGL LOG][Proc: 0]p_non_local_coeffs: call_update: 0 [ms]
[OGL LOG][Proc: 0]p: update_local_matrix_data: 31.947 [ms]
[OGL LOG][Proc: 0]p: update_non_local_matrix_data: 0.805 [ms]
[OGL LOG][Proc: 0]p: update_build_repartitioner: 3.606 [ms]
[OGL LOG][Proc: 0]p: update_repartitioned_existing: 32.509 [ms]
[OGL LOG][Proc: 0]p: update_offload_local_values: 6.47 [ms]
[OGL LOG][Proc: 0]p: update_offload_non_local_values: 0.089 [ms]
[OGL LOG][Proc: 0]p_matrix: call_update: 43.012 [ms]
[OGL LOG][Proc: 0]p_rhs: call_update: 13.011 [ms]
[OGL LOG][Proc: 0]p: init_precond: 0.035 [ms]
[OGL LOG][StoppingCriterion.H:372] Creating stopping criterion with minIter 416 frequency 9
[OGL LOG][Proc: 0]p: generate_solver: 0.029 [ms]
[OGL LOG][Proc: 0]p: solve: 889.204 [ms]
[OGL LOG][Proc: 0]p: copy_x_back: 9.092 [ms]
[OGL LOG][lduLduBase.H:319] 
Statistics:
	Time per iteration: 1333 [mu s]
	Time per residual norm calculation: 379.000000 [mu s]
	Time per iteration and DOF: 0.166625 [ns]
	Retrieve results bandwith 0.879000 [GByte/s]
[OGL LOG][Proc: 0]p: solve_multi_gpu: 955.262 [ms]
nonehipGKOCG:  Solving for p, Initial residual = 0.200565, Final residual = 9.54001e-05, No Iterations 667
linear solve p 995.819 [ms]
[INFO] SolveP: 995.857 [ms]
time step continuity errors : sum local = 4.19505e-09, global = -3.54912e-21, cumulative = -7.12637e-20
[INFO] ContinuityError: 15.754 [ms]
[INFO] CorrectBoundary: 0.908 [ms]
[INFO] PISOStep: 1241.09 [ms]
[INFO] TimeStep: 3570.56 [ms]
ExecutionTime = 96.22 s  ClockTime = 97 s

Time = 0.00475

Courant Number mean: 0.0593737 max: 0.486111
[INFO] MatrixAssemblyU: 125.831 [ms]
DILUPBiCGStab:  Solving for Ux, Initial residual = 0.00477156, Final residual = 7.11934e-05, No Iterations 5
DILUPBiCGStab:  Solving for Uy, Initial residual = 0.0113458, Final residual = 0.000153759, No Iterations 5
DILUPBiCGStab:  Solving for Uz, Initial residual = 0.0367953, Final residual = 0.00166908, No Iterations 5
linear solve U 871.489 [ms]
[INFO] MomentumPredictor: 924.128 [ms]
[INFO] MatrixAssemblyPI: 137.822 [ms]
[INFO] AdjustPhi: 8.487 [ms]
[INFO] ConstrainPressure: 0.003 [ms]
[INFO] MatrixAssemblyPII: 39.922 [ms]
[OGL LOG][Proc: 0]: global_index_init: 0.139 [ms]
[OGL LOG][Proc: 0]p_local_coeffs: call_update: 0 [ms]
[OGL LOG][Proc: 0]p_non_local_coeffs: call_update: 0 [ms]
[OGL LOG][Proc: 0]p: update_local_matrix_data: 31.531 [ms]
[OGL LOG][Proc: 0]p: update_non_local_matrix_data: 1.106 [ms]
[OGL LOG][Proc: 0]p: update_build_repartitioner: 3.982 [ms]
[OGL LOG][Proc: 0]p: update_repartitioned_existing: 33.325 [ms]
[OGL LOG][Proc: 0]p: update_offload_local_values: 6.323 [ms]
[OGL LOG][Proc: 0]p: update_offload_non_local_values: 0.086 [ms]
[OGL LOG][Proc: 0]p_matrix: call_update: 44.003 [ms]
[OGL LOG][Proc: 0]p_rhs: call_update: 20.711 [ms]
[OGL LOG][Proc: 0]p: init_precond: 0.054 [ms]
[OGL LOG][StoppingCriterion.H:372] Creating stopping criterion with minIter 400 frequency 9
[OGL LOG][Proc: 0]p: generate_solver: 0.028 [ms]
[OGL LOG][Proc: 0]p: solve: 1902.44 [ms]
[OGL LOG][Proc: 0]p: copy_x_back: 10.095 [ms]
[OGL LOG][lduLduBase.H:319] 
Statistics:
	Time per iteration: 1288 [mu s]
	Time per residual norm calculation: 357.000000 [mu s]
	Time per iteration and DOF: 0.161000 [ns]
	Retrieve results bandwith 0.792000 [GByte/s]
[OGL LOG][Proc: 0]p: solve_multi_gpu: 1978.47 [ms]
nonehipGKOCG:  Solving for p, Initial residual = 0.201912, Final residual = 8.05124e-05, No Iterations 1477
linear solve p 2016.12 [ms]
[INFO] SolveP: 2016.15 [ms]
time step continuity errors : sum local = 3.42823e-09, global = -5.56803e-21, cumulative = -7.68317e-20
[INFO] ContinuityError: 13.623 [ms]
[INFO] CorrectBoundary: 0.314 [ms]
[INFO] PISOStep: 2264.84 [ms]
[INFO] MatrixAssemblyPI: 133.626 [ms]
[INFO] AdjustPhi: 8.968 [ms]
[INFO] ConstrainPressure: 0.004 [ms]
[INFO] MatrixAssemblyPII: 40.095 [ms]
[OGL LOG][Proc: 0]: global_index_init: 0.342 [ms]
[OGL LOG][Proc: 0]p_local_coeffs: call_update: 0 [ms]
[OGL LOG][Proc: 0]p_non_local_coeffs: call_update: 0 [ms]
[OGL LOG][Proc: 0]p: update_local_matrix_data: 32.082 [ms]
[OGL LOG][Proc: 0]p: update_non_local_matrix_data: 0.814 [ms]
[OGL LOG][Proc: 0]p: update_build_repartitioner: 3.565 [ms]
[OGL LOG][Proc: 0]p: update_repartitioned_existing: 32.835 [ms]
[OGL LOG][Proc: 0]p: update_offload_local_values: 6.031 [ms]
[OGL LOG][Proc: 0]p: update_offload_non_local_values: 0.087 [ms]
[OGL LOG][Proc: 0]p_matrix: call_update: 42.839 [ms]
[OGL LOG][Proc: 0]p_rhs: call_update: 22.807 [ms]
[OGL LOG][Proc: 0]p: init_precond: 0.035 [ms]
[OGL LOG][StoppingCriterion.H:372] Creating stopping criterion with minIter 886 frequency 14
[OGL LOG][Proc: 0]p: generate_solver: 0.023 [ms]
[OGL LOG][Proc: 0]p: solve: 1867.7 [ms]
[OGL LOG][Proc: 0]p: copy_x_back: 8.144 [ms]
[OGL LOG][lduLduBase.H:319] 
Statistics:
	Time per iteration: 1269 [mu s]
	Time per residual norm calculation: 357.000000 [mu s]
	Time per iteration and DOF: 0.158625 [ns]
	Retrieve results bandwith 0.982000 [GByte/s]
[OGL LOG][Proc: 0]p: solve_multi_gpu: 1942.57 [ms]
nonehipGKOCG:  Solving for p, Initial residual = 0.176631, Final residual = 9.68317e-05, No Iterations 1471
linear solve p 1980.91 [ms]
[INFO] SolveP: 1980.95 [ms]
time step continuity errors : sum local = 4.12513e-09, global = -2.16594e-21, cumulative = -7.89977e-20
[INFO] ContinuityError: 15.886 [ms]
[INFO] CorrectBoundary: 0.786 [ms]
[INFO] PISOStep: 2226.99 [ms]
[INFO] TimeStep: 5556.3 [ms]
ExecutionTime = 101.7 s  ClockTime = 103 s

Time = 0.005

Courant Number mean: 0.0604236 max: 0.486415
[INFO] MatrixAssemblyU: 129.681 [ms]
DILUPBiCGStab:  Solving for Ux, Initial residual = 0.00447473, Final residual = 6.44833e-05, No Iterations 5
DILUPBiCGStab:  Solving for Uy, Initial residual = 0.010596, Final residual = 0.000135797, No Iterations 5
DILUPBiCGStab:  Solving for Uz, Initial residual = 0.0334304, Final residual = 0.00143314, No Iterations 5
linear solve U 863.806 [ms]
[INFO] MomentumPredictor: 919.642 [ms]
[INFO] MatrixAssemblyPI: 139.121 [ms]
[INFO] AdjustPhi: 6.688 [ms]
[INFO] ConstrainPressure: 0.003 [ms]
[INFO] MatrixAssemblyPII: 40.277 [ms]
[OGL LOG][Proc: 0]: global_index_init: 0.446 [ms]
[OGL LOG][Proc: 0]p_local_coeffs: call_update: 0 [ms]
[OGL LOG][Proc: 0]p_non_local_coeffs: call_update: 0 [ms]
[OGL LOG][Proc: 0]p: update_local_matrix_data: 31.325 [ms]
[OGL LOG][Proc: 0]p: update_non_local_matrix_data: 1.028 [ms]
[OGL LOG][Proc: 0]p: update_build_repartitioner: 4.131 [ms]
[OGL LOG][Proc: 0]p: update_repartitioned_existing: 32.988 [ms]
[OGL LOG][Proc: 0]p: update_offload_local_values: 6.369 [ms]
[OGL LOG][Proc: 0]p: update_offload_non_local_values: 0.095 [ms]
[OGL LOG][Proc: 0]p_matrix: call_update: 43.956 [ms]
[OGL LOG][Proc: 0]p_rhs: call_update: 19.206 [ms]
[OGL LOG][Proc: 0]p: init_precond: 0.036 [ms]
[OGL LOG][StoppingCriterion.H:372] Creating stopping criterion with minIter 882 frequency 14
[OGL LOG][Proc: 0]p: generate_solver: 0.027 [ms]
[OGL LOG][Proc: 0]p: solve: 1870.65 [ms]
[OGL LOG][Proc: 0]p: copy_x_back: 7.5 [ms]
[OGL LOG][lduLduBase.H:319] 
Statistics:
	Time per iteration: 1271 [mu s]
	Time per residual norm calculation: 393.000000 [mu s]
	Time per iteration and DOF: 0.158875 [ns]
	Retrieve results bandwith 1.066000 [GByte/s]
[OGL LOG][Proc: 0]p: solve_multi_gpu: 1942.27 [ms]
nonehipGKOCG:  Solving for p, Initial residual = 0.183396, Final residual = 9.73427e-05, No Iterations 1471
linear solve p 1982.68 [ms]
[INFO] SolveP: 1982.73 [ms]
time step continuity errors : sum local = 4.00402e-09, global = -5.42495e-21, cumulative = -8.44226e-20
[INFO] ContinuityError: 14.261 [ms]
[INFO] CorrectBoundary: 0.253 [ms]
[INFO] PISOStep: 2231.34 [ms]
[INFO] MatrixAssemblyPI: 135.476 [ms]
[INFO] AdjustPhi: 6.696 [ms]
[INFO] ConstrainPressure: 0.005 [ms]
[INFO] MatrixAssemblyPII: 40.223 [ms]
[OGL LOG][Proc: 0]: global_index_init: 0.019 [ms]
[OGL LOG][Proc: 0]p_local_coeffs: call_update: 0 [ms]
[OGL LOG][Proc: 0]p_non_local_coeffs: call_update: 0 [ms]
[OGL LOG][Proc: 0]p: update_local_matrix_data: 32.111 [ms]
[OGL LOG][Proc: 0]p: update_non_local_matrix_data: 0.829 [ms]
[OGL LOG][Proc: 0]p: update_build_repartitioner: 3.738 [ms]
[OGL LOG][Proc: 0]p: update_repartitioned_existing: 32.842 [ms]
[OGL LOG][Proc: 0]p: update_offload_local_values: 9.873 [ms]
[OGL LOG][Proc: 0]p: update_offload_non_local_values: 0.087 [ms]
[OGL LOG][Proc: 0]p_matrix: call_update: 46.876 [ms]
[OGL LOG][Proc: 0]p_rhs: call_update: 9.486 [ms]
[OGL LOG][Proc: 0]p: init_precond: 0.035 [ms]
[OGL LOG][StoppingCriterion.H:372] Creating stopping criterion with minIter 882 frequency 14
[OGL LOG][Proc: 0]p: generate_solver: 0.023 [ms]
[OGL LOG][Proc: 0]p: solve: 1882.03 [ms]
[OGL LOG][Proc: 0]p: copy_x_back: 8.214 [ms]
[OGL LOG][lduLduBase.H:319] 
Statistics:
	Time per iteration: 1279 [mu s]
	Time per residual norm calculation: 373.000000 [mu s]
	Time per iteration and DOF: 0.159875 [ns]
	Retrieve results bandwith 0.973000 [GByte/s]
[OGL LOG][Proc: 0]p: solve_multi_gpu: 1947.62 [ms]
nonehipGKOCG:  Solving for p, Initial residual = 0.161011, Final residual = 8.97225e-05, No Iterations 1471
linear solve p 1988.18 [ms]
[INFO] SolveP: 1988.23 [ms]
time step continuity errors : sum local = 3.6844e-09, global = -6.2358e-21, cumulative = -9.06584e-20
[INFO] ContinuityError: 14.363 [ms]
[INFO] CorrectBoundary: 0.238 [ms]
[INFO] PISOStep: 2233.04 [ms]
[INFO] TimeStep: 5528.26 [ms]
ExecutionTime = 107.16 s  ClockTime = 109 s

End

Finalising parallel run
