/*---------------------------------------------------------------------------*\
| =========                 |                                                 |
| \\      /  F ield         | OpenFOAM: The Open Source CFD Toolbox           |
|  \\    /   O peration     | Version:  2306                                  |
|   \\  /    A nd           | Website:  www.openfoam.com                      |
|    \\/     M anipulation  |                                                 |
\*---------------------------------------------------------------------------*/
Build  : a6e826bd55-20230630 OPENFOAM=2306 version=v2306
Arch   : "LSB;label=32;scalar=64"
Exec   : icoFoam -parallel -case /tmp/lidDrivenCavity/workspace/8d6a124ce3c3953fd5ae533602712d68/case
Date   : Dec 16 2023
Time   : 12:18:06
Host   : nla-gpu2.ianm.kit.edu
PID    : 174284
I/O    : uncollated
Case   : /tmp/lidDrivenCavity/workspace/8d6a124ce3c3953fd5ae533602712d68/case
nProcs : 16
Hosts  :
(
    (nla-gpu2.ianm.kit.edu 16)
)
Pstream initialized with:
    floatTransfer      : false
    nProcsSimpleSum    : 0
    nonBlockingExchange: 0 (tuning: 0)
    exchange algorithm : -1
    commsType          : nonBlocking
    polling iterations : 0
trapFpe: Floating point exception trapping enabled (FOAM_SIGFPE).
fileModificationChecking : Monitoring run-time modified files using timeStampMaster (fileModificationSkew 5, maxFileModificationPolls 20)
allowSystemOperations : Allowing user-supplied system call operations

// * * * * * * * * * * * * * * * * * * * * * * * * * * * * * * * * * * * * * //
Create time

--> FOAM Warning : 
    From void* Foam::dlLibraryTable::openLibrary(const Foam::fileName&, bool)
    in file db/dynamicLibrary/dlLibraryTable/dlLibraryTable.C at line 188
    Could not load "libpetscFoam.so"
libpetscFoam.so: cannot open shared object file: No such file or directory
Create mesh for time = 0


PISO: Operating solver in PISO mode

Reading transportProperties

Reading field p

Reading field U

Reading/calculating face flux field phi


Starting time loop

Time = 0.00025

Courant Number mean: 8.24341e-18 max: 2.08167e-14
[INFO] MatrixAssemblyU: 70.389 [ms]
DILUPBiCGStab:  Solving for Ux, Initial residual = 1, Final residual = 0.00994539, No Iterations 5
DILUPBiCGStab:  Solving for Uy:  solution singularity
DILUPBiCGStab:  Solving for Uz:  solution singularity
[INFO] MomentumPredictor: 280.85 [ms]
[INFO] MatrixAssemblyPI: 68.988 [ms]
[INFO] AdjustPhi: 6.237 [ms]
[INFO] ConstrainPressure: 0.013 [ms]
[INFO] MatrixAssemblyPII: 19.909 [ms]
nonePCG:  Solving for p, Initial residual = 1, Final residual = 9.86234e-05, No Iterations 1610
[INFO] SolveP: 10255.9 [ms]
time step continuity errors : sum local = 7.57086e-09, global = -1.64013e-21, cumulative = -1.64013e-21
[INFO] ContinuityError: 8.442 [ms]
[INFO] CorrectBoundary: 0.449 [ms]
[INFO] PISOStep: 10385.9 [ms]
[INFO] MatrixAssemblyPI: 68.452 [ms]
[INFO] AdjustPhi: 4.928 [ms]
[INFO] ConstrainPressure: 0.004 [ms]
[INFO] MatrixAssemblyPII: 20.707 [ms]
nonePCG:  Solving for p, Initial residual = 0.786384, Final residual = 9.68968e-05, No Iterations 1590
[INFO] SolveP: 9780.31 [ms]
time step continuity errors : sum local = 9.29777e-09, global = 4.76243e-23, cumulative = -1.5925e-21
[INFO] ContinuityError: 7.259 [ms]
[INFO] CorrectBoundary: 0.455 [ms]
[INFO] PISOStep: 9906.78 [ms]
[INFO] TimeStep: 20653.8 [ms]
ExecutionTime = 21.12 s  ClockTime = 21 s

Time = 0.0005

Courant Number mean: 0.0159459 max: 0.412549
[INFO] MatrixAssemblyU: 61.326 [ms]
DILUPBiCGStab:  Solving for Ux, Initial residual = 0.129572, Final residual = 0.00549869, No Iterations 5
DILUPBiCGStab:  Solving for Uy, Initial residual = 0.426965, Final residual = 0.0140636, No Iterations 5
DILUPBiCGStab:  Solving for Uz, Initial residual = 0.987077, Final residual = 0.0342228, No Iterations 5
[INFO] MomentumPredictor: 491.7 [ms]
[INFO] MatrixAssemblyPI: 68.321 [ms]
[INFO] AdjustPhi: 6.897 [ms]
[INFO] ConstrainPressure: 0.004 [ms]
[INFO] MatrixAssemblyPII: 19.911 [ms]
nonePCG:  Solving for p, Initial residual = 0.825153, Final residual = 9.9691e-05, No Iterations 1567
[INFO] SolveP: 9688.45 [ms]
time step continuity errors : sum local = 1.46839e-08, global = -3.60916e-21, cumulative = -5.20167e-21
[INFO] ContinuityError: 7.434 [ms]
[INFO] CorrectBoundary: 0.573 [ms]
[INFO] PISOStep: 9818.09 [ms]
[INFO] MatrixAssemblyPI: 67.83 [ms]
[INFO] AdjustPhi: 4.563 [ms]
[INFO] ConstrainPressure: 0.004 [ms]
[INFO] MatrixAssemblyPII: 20.152 [ms]
nonePCG:  Solving for p, Initial residual = 0.768305, Final residual = 9.744e-05, No Iterations 1563
[INFO] SolveP: 9763.94 [ms]
time step continuity errors : sum local = 1.46108e-08, global = -1.37267e-21, cumulative = -6.57434e-21
[INFO] ContinuityError: 7.423 [ms]
[INFO] CorrectBoundary: 0.955 [ms]
[INFO] PISOStep: 9890.09 [ms]
[INFO] TimeStep: 20269.8 [ms]
ExecutionTime = 41.28 s  ClockTime = 41 s

Time = 0.00075

Courant Number mean: 0.024329 max: 0.472012
[INFO] MatrixAssemblyU: 62.04 [ms]
DILUPBiCGStab:  Solving for Ux, Initial residual = 0.0547791, Final residual = 0.00187253, No Iterations 5
DILUPBiCGStab:  Solving for Uy, Initial residual = 0.182223, Final residual = 0.00762626, No Iterations 5
DILUPBiCGStab:  Solving for Uz, Initial residual = 0.810986, Final residual = 0.0252713, No Iterations 5
[INFO] MomentumPredictor: 487.276 [ms]
[INFO] MatrixAssemblyPI: 67.695 [ms]
[INFO] AdjustPhi: 3.945 [ms]
[INFO] ConstrainPressure: 0.007 [ms]
[INFO] MatrixAssemblyPII: 19.903 [ms]
nonePCG:  Solving for p, Initial residual = 0.849303, Final residual = 9.94077e-05, No Iterations 768
[INFO] SolveP: 4766.39 [ms]
time step continuity errors : sum local = 1.4635e-08, global = 1.32762e-21, cumulative = -5.24672e-21
[INFO] ContinuityError: 7.453 [ms]
[INFO] CorrectBoundary: 0.406 [ms]
[INFO] PISOStep: 4890.61 [ms]
[INFO] MatrixAssemblyPI: 66.439 [ms]
[INFO] AdjustPhi: 4.831 [ms]
[INFO] ConstrainPressure: 0.004 [ms]
[INFO] MatrixAssemblyPII: 20.214 [ms]
nonePCG:  Solving for p, Initial residual = 0.815747, Final residual = 9.72308e-05, No Iterations 764
[INFO] SolveP: 4761.35 [ms]
time step continuity errors : sum local = 1.31632e-08, global = 2.78514e-22, cumulative = -4.9682e-21
[INFO] ContinuityError: 6.904 [ms]
[INFO] CorrectBoundary: 0.371 [ms]
[INFO] PISOStep: 4884.36 [ms]
[INFO] TimeStep: 10333.1 [ms]
ExecutionTime = 51.57 s  ClockTime = 52 s

Time = 0.001

Courant Number mean: 0.0291952 max: 0.467755
[INFO] MatrixAssemblyU: 59.291 [ms]
DILUPBiCGStab:  Solving for Ux, Initial residual = 0.0346702, Final residual = 0.00124022, No Iterations 5
DILUPBiCGStab:  Solving for Uy, Initial residual = 0.129199, Final residual = 0.00473636, No Iterations 5
DILUPBiCGStab:  Solving for Uz, Initial residual = 0.614073, Final residual = 0.0156429, No Iterations 5
[INFO] MomentumPredictor: 488.855 [ms]
[INFO] MatrixAssemblyPI: 67.405 [ms]
[INFO] AdjustPhi: 4.421 [ms]
[INFO] ConstrainPressure: 0.005 [ms]
[INFO] MatrixAssemblyPII: 19.889 [ms]
nonePCG:  Solving for p, Initial residual = 0.770615, Final residual = 9.76858e-05, No Iterations 1572
[INFO] SolveP: 9781 [ms]
time step continuity errors : sum local = 1.19326e-08, global = 1.78062e-21, cumulative = -3.18759e-21
[INFO] ContinuityError: 8.465 [ms]
[INFO] CorrectBoundary: 0.312 [ms]
[INFO] PISOStep: 9906.48 [ms]
[INFO] MatrixAssemblyPI: 67.988 [ms]
[INFO] AdjustPhi: 4.179 [ms]
[INFO] ConstrainPressure: 0.004 [ms]
[INFO] MatrixAssemblyPII: 20.302 [ms]
nonePCG:  Solving for p, Initial residual = 0.707939, Final residual = 9.60181e-05, No Iterations 1570
[INFO] SolveP: 9696.1 [ms]
time step continuity errors : sum local = 1.18946e-08, global = 9.0586e-23, cumulative = -3.097e-21
[INFO] ContinuityError: 7.167 [ms]
[INFO] CorrectBoundary: 0.356 [ms]
[INFO] PISOStep: 9820.9 [ms]
[INFO] TimeStep: 20283.7 [ms]
ExecutionTime = 71.76 s  ClockTime = 72 s

Time = 0.00125

Courant Number mean: 0.0333379 max: 0.472933
[INFO] MatrixAssemblyU: 60.42 [ms]
DILUPBiCGStab:  Solving for Ux, Initial residual = 0.0271495, Final residual = 0.000903388, No Iterations 5
DILUPBiCGStab:  Solving for Uy, Initial residual = 0.0813794, Final residual = 0.00356315, No Iterations 5
DILUPBiCGStab:  Solving for Uz, Initial residual = 0.465273, Final residual = 0.0118305, No Iterations 5
[INFO] MomentumPredictor: 488.104 [ms]
[INFO] MatrixAssemblyPI: 67.324 [ms]
[INFO] AdjustPhi: 4.263 [ms]
[INFO] ConstrainPressure: 0.004 [ms]
[INFO] MatrixAssemblyPII: 19.842 [ms]
nonePCG:  Solving for p, Initial residual = 0.776202, Final residual = 9.76346e-05, No Iterations 1568
[INFO] SolveP: 9721.35 [ms]
time step continuity errors : sum local = 9.87936e-09, global = 7.74635e-22, cumulative = -2.32236e-21
[INFO] ContinuityError: 7.879 [ms]
[INFO] CorrectBoundary: 0.315 [ms]
[INFO] PISOStep: 9845.63 [ms]
[INFO] MatrixAssemblyPI: 66.501 [ms]
[INFO] AdjustPhi: 4.965 [ms]
[INFO] ConstrainPressure: 0.004 [ms]
[INFO] MatrixAssemblyPII: 19.896 [ms]
nonePCG:  Solving for p, Initial residual = 0.725191, Final residual = 9.61903e-05, No Iterations 1567
[INFO] SolveP: 9687.2 [ms]
time step continuity errors : sum local = 9.6036e-09, global = -2.16772e-21, cumulative = -4.49009e-21
[INFO] ContinuityError: 6.957 [ms]
[INFO] CorrectBoundary: 0.822 [ms]
[INFO] PISOStep: 9811.3 [ms]
[INFO] TimeStep: 20214.1 [ms]
ExecutionTime = 91.87 s  ClockTime = 92 s

Time = 0.0015

Courant Number mean: 0.0366383 max: 0.475557
[INFO] MatrixAssemblyU: 60.652 [ms]
DILUPBiCGStab:  Solving for Ux, Initial residual = 0.020431, Final residual = 0.000644718, No Iterations 5
DILUPBiCGStab:  Solving for Uy, Initial residual = 0.0658606, Final residual = 0.00245075, No Iterations 5
DILUPBiCGStab:  Solving for Uz, Initial residual = 0.336753, Final residual = 0.008558, No Iterations 5
[INFO] MomentumPredictor: 488.186 [ms]
[INFO] MatrixAssemblyPI: 67.633 [ms]
[INFO] AdjustPhi: 3.97 [ms]
[INFO] ConstrainPressure: 0.004 [ms]
[INFO] MatrixAssemblyPII: 19.906 [ms]
nonePCG:  Solving for p, Initial residual = 0.683402, Final residual = 9.85998e-05, No Iterations 741
[INFO] SolveP: 4597.47 [ms]
time step continuity errors : sum local = 9.78771e-09, global = -2.00664e-21, cumulative = -6.49672e-21
[INFO] ContinuityError: 6.811 [ms]
[INFO] CorrectBoundary: 0.442 [ms]
[INFO] PISOStep: 4720.74 [ms]
[INFO] MatrixAssemblyPI: 65.523 [ms]
[INFO] AdjustPhi: 3.759 [ms]
[INFO] ConstrainPressure: 0.005 [ms]
[INFO] MatrixAssemblyPII: 19.693 [ms]
nonePCG:  Solving for p, Initial residual = 0.622975, Final residual = 9.98543e-05, No Iterations 738
[INFO] SolveP: 4571.85 [ms]
time step continuity errors : sum local = 9.55918e-09, global = -3.49678e-23, cumulative = -6.53169e-21
[INFO] ContinuityError: 7.831 [ms]
[INFO] CorrectBoundary: 0.753 [ms]
[INFO] PISOStep: 4694.37 [ms]
[INFO] TimeStep: 9972.46 [ms]
ExecutionTime = 101.8 s  ClockTime = 102 s

Time = 0.00175

Courant Number mean: 0.039554 max: 0.477501
[INFO] MatrixAssemblyU: 61.381 [ms]
DILUPBiCGStab:  Solving for Ux, Initial residual = 0.0174634, Final residual = 0.000514084, No Iterations 5
DILUPBiCGStab:  Solving for Uy, Initial residual = 0.0489675, Final residual = 0.00179468, No Iterations 5
DILUPBiCGStab:  Solving for Uz, Initial residual = 0.261137, Final residual = 0.00787249, No Iterations 5
[INFO] MomentumPredictor: 486.82 [ms]
[INFO] MatrixAssemblyPI: 67.41 [ms]
[INFO] AdjustPhi: 4.116 [ms]
[INFO] ConstrainPressure: 0.004 [ms]
[INFO] MatrixAssemblyPII: 19.78 [ms]
nonePCG:  Solving for p, Initial residual = 0.679326, Final residual = 9.99679e-05, No Iterations 1490
[INFO] SolveP: 9214.39 [ms]
time step continuity errors : sum local = 7.77983e-09, global = -2.15904e-21, cumulative = -8.69074e-21
[INFO] ContinuityError: 7.141 [ms]
[INFO] CorrectBoundary: 0.387 [ms]
[INFO] PISOStep: 9337.57 [ms]
[INFO] MatrixAssemblyPI: 65.568 [ms]
[INFO] AdjustPhi: 4.178 [ms]
[INFO] ConstrainPressure: 0.004 [ms]
[INFO] MatrixAssemblyPII: 19.951 [ms]
nonePCG:  Solving for p, Initial residual = 0.620065, Final residual = 9.99421e-05, No Iterations 1491
[INFO] SolveP: 9289.96 [ms]
time step continuity errors : sum local = 7.73723e-09, global = 1.07769e-22, cumulative = -8.58297e-21
[INFO] ContinuityError: 7.627 [ms]
[INFO] CorrectBoundary: 0.526 [ms]
[INFO] PISOStep: 9412.3 [ms]
[INFO] TimeStep: 19306.7 [ms]
ExecutionTime = 121.01 s  ClockTime = 121 s

Time = 0.002

Courant Number mean: 0.0420791 max: 0.479207
[INFO] MatrixAssemblyU: 59.812 [ms]
DILUPBiCGStab:  Solving for Ux, Initial residual = 0.014298, Final residual = 0.000394444, No Iterations 5
DILUPBiCGStab:  Solving for Uy, Initial residual = 0.0417548, Final residual = 0.00138525, No Iterations 5
DILUPBiCGStab:  Solving for Uz, Initial residual = 0.202057, Final residual = 0.00589025, No Iterations 5
[INFO] MomentumPredictor: 486.073 [ms]
[INFO] MatrixAssemblyPI: 67.027 [ms]
[INFO] AdjustPhi: 4.675 [ms]
[INFO] ConstrainPressure: 0.009 [ms]
[INFO] MatrixAssemblyPII: 20.004 [ms]
nonePCG:  Solving for p, Initial residual = 0.588219, Final residual = 9.73992e-05, No Iterations 741
[INFO] SolveP: 4624.32 [ms]
time step continuity errors : sum local = 8.04047e-09, global = -1.92014e-21, cumulative = -1.05031e-20
[INFO] ContinuityError: 6.864 [ms]
[INFO] CorrectBoundary: 0.372 [ms]
[INFO] PISOStep: 4747.51 [ms]
[INFO] MatrixAssemblyPI: 65.626 [ms]
[INFO] AdjustPhi: 3.755 [ms]
[INFO] ConstrainPressure: 0.004 [ms]
[INFO] MatrixAssemblyPII: 19.693 [ms]
nonePCG:  Solving for p, Initial residual = 0.531054, Final residual = 9.80166e-05, No Iterations 733
[INFO] SolveP: 4582.78 [ms]
time step continuity errors : sum local = 7.53702e-09, global = -1.98176e-21, cumulative = -1.24849e-20
[INFO] ContinuityError: 7.865 [ms]
[INFO] CorrectBoundary: 0.399 [ms]
[INFO] PISOStep: 4704.51 [ms]
[INFO] TimeStep: 10006.3 [ms]
ExecutionTime = 130.97 s  ClockTime = 131 s

Time = 0.00225

Courant Number mean: 0.0443648 max: 0.480354
[INFO] MatrixAssemblyU: 59.239 [ms]
DILUPBiCGStab:  Solving for Ux, Initial residual = 0.012592, Final residual = 0.00032606, No Iterations 5
DILUPBiCGStab:  Solving for Uy, Initial residual = 0.0336298, Final residual = 0.000983616, No Iterations 5
DILUPBiCGStab:  Solving for Uz, Initial residual = 0.166145, Final residual = 0.00587225, No Iterations 5
[INFO] MomentumPredictor: 488.552 [ms]
[INFO] MatrixAssemblyPI: 67.297 [ms]
[INFO] AdjustPhi: 4.208 [ms]
[INFO] ConstrainPressure: 0.007 [ms]
[INFO] MatrixAssemblyPII: 19.861 [ms]
nonePCG:  Solving for p, Initial residual = 0.575395, Final residual = 9.99332e-05, No Iterations 1504
[INFO] SolveP: 9339.71 [ms]
time step continuity errors : sum local = 6.4078e-09, global = -9.13831e-22, cumulative = -1.33987e-20
[INFO] ContinuityError: 6.924 [ms]
[INFO] CorrectBoundary: 0.42 [ms]
[INFO] PISOStep: 9462.82 [ms]
[INFO] MatrixAssemblyPI: 65.613 [ms]
[INFO] AdjustPhi: 3.911 [ms]
[INFO] ConstrainPressure: 0.004 [ms]
[INFO] MatrixAssemblyPII: 19.959 [ms]
nonePCG:  Solving for p, Initial residual = 0.514907, Final residual = 9.86214e-05, No Iterations 1502
[INFO] SolveP: 9349.04 [ms]
time step continuity errors : sum local = 6.32184e-09, global = -2.52059e-21, cumulative = -1.59193e-20
[INFO] ContinuityError: 6.797 [ms]
[INFO] CorrectBoundary: 0.4 [ms]
[INFO] PISOStep: 9469.94 [ms]
[INFO] TimeStep: 19489 [ms]
ExecutionTime = 150.36 s  ClockTime = 151 s

Time = 0.0025

Courant Number mean: 0.0464193 max: 0.481461
[INFO] MatrixAssemblyU: 59.837 [ms]
DILUPBiCGStab:  Solving for Ux, Initial residual = 0.0108289, Final residual = 0.000262254, No Iterations 5
DILUPBiCGStab:  Solving for Uy, Initial residual = 0.0295089, Final residual = 0.000804895, No Iterations 5
DILUPBiCGStab:  Solving for Uz, Initial residual = 0.133525, Final residual = 0.0045982, No Iterations 5
[INFO] MomentumPredictor: 485.067 [ms]
[INFO] MatrixAssemblyPI: 67.826 [ms]
[INFO] AdjustPhi: 4.141 [ms]
[INFO] ConstrainPressure: 0.005 [ms]
[INFO] MatrixAssemblyPII: 19.864 [ms]
nonePCG:  Solving for p, Initial residual = 0.498728, Final residual = 9.79886e-05, No Iterations 1501
[INFO] SolveP: 9320.25 [ms]
time step continuity errors : sum local = 6.09912e-09, global = -2.31569e-21, cumulative = -1.8235e-20
[INFO] ContinuityError: 7.458 [ms]
[INFO] CorrectBoundary: 0.39 [ms]
[INFO] PISOStep: 9444.63 [ms]
[INFO] MatrixAssemblyPI: 66.548 [ms]
[INFO] AdjustPhi: 4.181 [ms]
[INFO] ConstrainPressure: 0.004 [ms]
[INFO] MatrixAssemblyPII: 20.012 [ms]
nonePCG:  Solving for p, Initial residual = 0.446304, Final residual = 9.85014e-05, No Iterations 1498
[INFO] SolveP: 9326.43 [ms]
time step continuity errors : sum local = 6.10515e-09, global = -2.92665e-21, cumulative = -2.11616e-20
[INFO] ContinuityError: 8.114 [ms]
[INFO] CorrectBoundary: 0.266 [ms]
[INFO] PISOStep: 9450.32 [ms]
[INFO] TimeStep: 19448 [ms]
ExecutionTime = 169.71 s  ClockTime = 170 s

Time = 0.00275

Courant Number mean: 0.0483074 max: 0.482232
[INFO] MatrixAssemblyU: 61.589 [ms]
DILUPBiCGStab:  Solving for Ux, Initial residual = 0.00969799, Final residual = 0.00022043, No Iterations 5
DILUPBiCGStab:  Solving for Uy, Initial residual = 0.0249739, Final residual = 0.000584691, No Iterations 5
DILUPBiCGStab:  Solving for Uz, Initial residual = 0.110983, Final residual = 0.00430596, No Iterations 5
[INFO] MomentumPredictor: 486.319 [ms]
[INFO] MatrixAssemblyPI: 67.289 [ms]
[INFO] AdjustPhi: 4.556 [ms]
[INFO] ConstrainPressure: 0.004 [ms]
[INFO] MatrixAssemblyPII: 19.969 [ms]
nonePCG:  Solving for p, Initial residual = 0.474476, Final residual = 9.88521e-05, No Iterations 1495
[INFO] SolveP: 9291.8 [ms]
time step continuity errors : sum local = 5.55845e-09, global = -8.6917e-22, cumulative = -2.20308e-20
[INFO] ContinuityError: 7.146 [ms]
[INFO] CorrectBoundary: 0.339 [ms]
[INFO] PISOStep: 9415.39 [ms]
[INFO] MatrixAssemblyPI: 65.828 [ms]
[INFO] AdjustPhi: 4.016 [ms]
[INFO] ConstrainPressure: 0.004 [ms]
[INFO] MatrixAssemblyPII: 19.908 [ms]
nonePCG:  Solving for p, Initial residual = 0.420525, Final residual = 9.91937e-05, No Iterations 1493
[INFO] SolveP: 9312.5 [ms]
time step continuity errors : sum local = 5.58358e-09, global = -2.88943e-21, cumulative = -2.49202e-20
[INFO] ContinuityError: 7.551 [ms]
[INFO] CorrectBoundary: 0.432 [ms]
[INFO] PISOStep: 9434.18 [ms]
[INFO] TimeStep: 19406.2 [ms]
ExecutionTime = 189.03 s  ClockTime = 190 s

Time = 0.003

Courant Number mean: 0.0500404 max: 0.483022
[INFO] MatrixAssemblyU: 57.588 [ms]
DILUPBiCGStab:  Solving for Ux, Initial residual = 0.00860777, Final residual = 0.000183888, No Iterations 5
DILUPBiCGStab:  Solving for Uy, Initial residual = 0.022307, Final residual = 0.000482885, No Iterations 5
DILUPBiCGStab:  Solving for Uz, Initial residual = 0.0929547, Final residual = 0.00366682, No Iterations 5
[INFO] MomentumPredictor: 488.482 [ms]
[INFO] MatrixAssemblyPI: 66.951 [ms]
[INFO] AdjustPhi: 4.352 [ms]
[INFO] ConstrainPressure: 0.004 [ms]
[INFO] MatrixAssemblyPII: 19.851 [ms]
nonePCG:  Solving for p, Initial residual = 0.417226, Final residual = 9.91172e-05, No Iterations 734
[INFO] SolveP: 4545.78 [ms]
time step continuity errors : sum local = 6.07765e-09, global = -4.73147e-22, cumulative = -2.53934e-20
[INFO] ContinuityError: 6.672 [ms]
[INFO] CorrectBoundary: 0.261 [ms]
[INFO] PISOStep: 4669.06 [ms]
[INFO] MatrixAssemblyPI: 65.899 [ms]
[INFO] AdjustPhi: 3.568 [ms]
[INFO] ConstrainPressure: 0.005 [ms]
[INFO] MatrixAssemblyPII: 19.919 [ms]
nonePCG:  Solving for p, Initial residual = 0.370871, Final residual = 9.85736e-05, No Iterations 704
[INFO] SolveP: 4385.21 [ms]
time step continuity errors : sum local = 5.59347e-09, global = -2.29214e-21, cumulative = -2.76855e-20
[INFO] ContinuityError: 7.33 [ms]
[INFO] CorrectBoundary: 0.317 [ms]
[INFO] PISOStep: 4506.13 [ms]
[INFO] TimeStep: 9730.11 [ms]
ExecutionTime = 198.71 s  ClockTime = 199 s

Time = 0.00325

Courant Number mean: 0.0516504 max: 0.483587
[INFO] MatrixAssemblyU: 58.463 [ms]
DILUPBiCGStab:  Solving for Ux, Initial residual = 0.0078225, Final residual = 0.000157221, No Iterations 5
DILUPBiCGStab:  Solving for Uy, Initial residual = 0.0195138, Final residual = 0.00037367, No Iterations 5
DILUPBiCGStab:  Solving for Uz, Initial residual = 0.0809745, Final residual = 0.00355735, No Iterations 5
[INFO] MomentumPredictor: 486.667 [ms]
[INFO] MatrixAssemblyPI: 67.454 [ms]
[INFO] AdjustPhi: 4.244 [ms]
[INFO] ConstrainPressure: 0.005 [ms]
[INFO] MatrixAssemblyPII: 19.772 [ms]
nonePCG:  Solving for p, Initial residual = 0.386677, Final residual = 9.97074e-05, No Iterations 1490
[INFO] SolveP: 9261.27 [ms]
time step continuity errors : sum local = 5.09062e-09, global = -1.35521e-21, cumulative = -2.90407e-20
[INFO] ContinuityError: 8.079 [ms]
[INFO] CorrectBoundary: 0.286 [ms]
[INFO] PISOStep: 9385.75 [ms]
[INFO] MatrixAssemblyPI: 66.403 [ms]
[INFO] AdjustPhi: 5.565 [ms]
[INFO] ConstrainPressure: 0.004 [ms]
[INFO] MatrixAssemblyPII: 19.546 [ms]
nonePCG:  Solving for p, Initial residual = 0.340639, Final residual = 9.77845e-05, No Iterations 1489
[INFO] SolveP: 9251.01 [ms]
time step continuity errors : sum local = 4.99944e-09, global = -3.36809e-21, cumulative = -3.24088e-20
[INFO] ContinuityError: 6.935 [ms]
[INFO] CorrectBoundary: 0.275 [ms]
[INFO] PISOStep: 9374.49 [ms]
[INFO] TimeStep: 19313.8 [ms]
ExecutionTime = 217.93 s  ClockTime = 219 s

Time = 0.0035

Courant Number mean: 0.0531456 max: 0.484182
[INFO] MatrixAssemblyU: 59.724 [ms]
DILUPBiCGStab:  Solving for Ux, Initial residual = 0.007082, Final residual = 0.000134866, No Iterations 5
DILUPBiCGStab:  Solving for Uy, Initial residual = 0.0177247, Final residual = 0.000308572, No Iterations 5
DILUPBiCGStab:  Solving for Uz, Initial residual = 0.0691866, Final residual = 0.00296257, No Iterations 5
[INFO] MomentumPredictor: 486.316 [ms]
[INFO] MatrixAssemblyPI: 67.598 [ms]
[INFO] AdjustPhi: 3.901 [ms]
[INFO] ConstrainPressure: 0.005 [ms]
[INFO] MatrixAssemblyPII: 19.813 [ms]
nonePCG:  Solving for p, Initial residual = 0.344768, Final residual = 9.92462e-05, No Iterations 1487
[INFO] SolveP: 9205.71 [ms]
time step continuity errors : sum local = 4.90326e-09, global = -1.69868e-21, cumulative = -3.41075e-20
[INFO] ContinuityError: 7.245 [ms]
[INFO] CorrectBoundary: 0.429 [ms]
[INFO] PISOStep: 9329.53 [ms]
[INFO] MatrixAssemblyPI: 66.278 [ms]
[INFO] AdjustPhi: 4.527 [ms]
[INFO] ConstrainPressure: 0.004 [ms]
[INFO] MatrixAssemblyPII: 20.094 [ms]
nonePCG:  Solving for p, Initial residual = 0.305315, Final residual = 9.64452e-05, No Iterations 1486
[INFO] SolveP: 9249.09 [ms]
time step continuity errors : sum local = 4.74651e-09, global = -3.42148e-21, cumulative = -3.7529e-20
[INFO] ContinuityError: 8.124 [ms]
[INFO] CorrectBoundary: 0.828 [ms]
[INFO] PISOStep: 9373.08 [ms]
[INFO] TimeStep: 19257 [ms]
ExecutionTime = 237.09 s  ClockTime = 238 s

Time = 0.00375

Courant Number mean: 0.0545472 max: 0.484621
[INFO] MatrixAssemblyU: 60.074 [ms]
DILUPBiCGStab:  Solving for Ux, Initial residual = 0.00649196, Final residual = 0.000116859, No Iterations 5
DILUPBiCGStab:  Solving for Uy, Initial residual = 0.0158742, Final residual = 0.000257647, No Iterations 5
DILUPBiCGStab:  Solving for Uz, Initial residual = 0.0595225, Final residual = 0.0027107, No Iterations 5
[INFO] MomentumPredictor: 487.781 [ms]
[INFO] MatrixAssemblyPI: 67.459 [ms]
[INFO] AdjustPhi: 4.057 [ms]
[INFO] ConstrainPressure: 0.004 [ms]
[INFO] MatrixAssemblyPII: 19.854 [ms]
nonePCG:  Solving for p, Initial residual = 0.312573, Final residual = 9.81046e-05, No Iterations 1484
[INFO] SolveP: 9200.87 [ms]
time step continuity errors : sum local = 4.65126e-09, global = -1.89011e-21, cumulative = -3.94191e-20
[INFO] ContinuityError: 6.909 [ms]
[INFO] CorrectBoundary: 0.344 [ms]
[INFO] PISOStep: 9324.09 [ms]
[INFO] MatrixAssemblyPI: 65.886 [ms]
[INFO] AdjustPhi: 3.878 [ms]
[INFO] ConstrainPressure: 0.004 [ms]
[INFO] MatrixAssemblyPII: 19.996 [ms]
nonePCG:  Solving for p, Initial residual = 0.274719, Final residual = 9.88728e-05, No Iterations 1482
[INFO] SolveP: 9221.59 [ms]
time step continuity errors : sum local = 4.69314e-09, global = -2.50409e-21, cumulative = -4.19232e-20
[INFO] ContinuityError: 6.98 [ms]
[INFO] CorrectBoundary: 0.472 [ms]
[INFO] PISOStep: 9343.2 [ms]
[INFO] TimeStep: 19223.5 [ms]
ExecutionTime = 256.22 s  ClockTime = 257 s

Time = 0.004

Courant Number mean: 0.0558603 max: 0.485084
[INFO] MatrixAssemblyU: 58.851 [ms]
DILUPBiCGStab:  Solving for Ux, Initial residual = 0.00596866, Final residual = 0.000102599, No Iterations 5
DILUPBiCGStab:  Solving for Uy, Initial residual = 0.0145648, Final residual = 0.000216401, No Iterations 5
DILUPBiCGStab:  Solving for Uz, Initial residual = 0.0523687, Final residual = 0.00236827, No Iterations 5
[INFO] MomentumPredictor: 487.195 [ms]
[INFO] MatrixAssemblyPI: 67.381 [ms]
[INFO] AdjustPhi: 4.285 [ms]
[INFO] ConstrainPressure: 0.006 [ms]
[INFO] MatrixAssemblyPII: 19.853 [ms]
nonePCG:  Solving for p, Initial residual = 0.281879, Final residual = 9.65824e-05, No Iterations 1481
[INFO] SolveP: 9182.59 [ms]
time step continuity errors : sum local = 4.41299e-09, global = -4.02532e-21, cumulative = -4.59485e-20
[INFO] ContinuityError: 7.272 [ms]
[INFO] CorrectBoundary: 0.357 [ms]
[INFO] PISOStep: 9306.56 [ms]
[INFO] MatrixAssemblyPI: 66.423 [ms]
[INFO] AdjustPhi: 4.364 [ms]
[INFO] ConstrainPressure: 0.004 [ms]
[INFO] MatrixAssemblyPII: 20.066 [ms]
nonePCG:  Solving for p, Initial residual = 0.248879, Final residual = 9.98162e-05, No Iterations 743
[INFO] SolveP: 4615.82 [ms]
time step continuity errors : sum local = 5.09998e-09, global = -9.44072e-22, cumulative = -4.68926e-20
[INFO] ContinuityError: 6.846 [ms]
[INFO] CorrectBoundary: 0.324 [ms]
[INFO] PISOStep: 4737.76 [ms]
[INFO] TimeStep: 14598.5 [ms]
ExecutionTime = 270.75 s  ClockTime = 272 s

Time = 0.00425

Courant Number mean: 0.0570984 max: 0.485441
[INFO] MatrixAssemblyU: 58.507 [ms]
DILUPBiCGStab:  Solving for Ux, Initial residual = 0.00553383, Final residual = 9.01246e-05, No Iterations 5
DILUPBiCGStab:  Solving for Uy, Initial residual = 0.013254, Final residual = 0.000193346, No Iterations 5
DILUPBiCGStab:  Solving for Uz, Initial residual = 0.0475346, Final residual = 0.00224171, No Iterations 5
[INFO] MomentumPredictor: 486.537 [ms]
[INFO] MatrixAssemblyPI: 67.515 [ms]
[INFO] AdjustPhi: 4.292 [ms]
[INFO] ConstrainPressure: 0.004 [ms]
[INFO] MatrixAssemblyPII: 19.959 [ms]
nonePCG:  Solving for p, Initial residual = 0.251824, Final residual = 9.95731e-05, No Iterations 1479
[INFO] SolveP: 9162.62 [ms]
time step continuity errors : sum local = 4.44926e-09, global = -1.97775e-21, cumulative = -4.88703e-20
[INFO] ContinuityError: 8.113 [ms]
[INFO] CorrectBoundary: 0.307 [ms]
[INFO] PISOStep: 9287.38 [ms]
[INFO] MatrixAssemblyPI: 66.283 [ms]
[INFO] AdjustPhi: 4.491 [ms]
[INFO] ConstrainPressure: 0.005 [ms]
[INFO] MatrixAssemblyPII: 19.451 [ms]
nonePCG:  Solving for p, Initial residual = 0.220789, Final residual = 9.85636e-05, No Iterations 1477
[INFO] SolveP: 9195.36 [ms]
time step continuity errors : sum local = 4.40833e-09, global = -3.25114e-22, cumulative = -4.91954e-20
[INFO] ContinuityError: 6.959 [ms]
[INFO] CorrectBoundary: 0.354 [ms]
[INFO] PISOStep: 9317.85 [ms]
[INFO] TimeStep: 19158.6 [ms]
ExecutionTime = 289.82 s  ClockTime = 291 s

Time = 0.0045

Courant Number mean: 0.058267 max: 0.485814
[INFO] MatrixAssemblyU: 59.711 [ms]
DILUPBiCGStab:  Solving for Ux, Initial residual = 0.00513453, Final residual = 8.04629e-05, No Iterations 5
DILUPBiCGStab:  Solving for Uy, Initial residual = 0.0123236, Final residual = 0.000166997, No Iterations 5
DILUPBiCGStab:  Solving for Uz, Initial residual = 0.0422288, Final residual = 0.00187616, No Iterations 5
[INFO] MomentumPredictor: 487.434 [ms]
[INFO] MatrixAssemblyPI: 67.779 [ms]
[INFO] AdjustPhi: 3.766 [ms]
[INFO] ConstrainPressure: 0.004 [ms]
[INFO] MatrixAssemblyPII: 19.86 [ms]
nonePCG:  Solving for p, Initial residual = 0.22869, Final residual = 9.88263e-05, No Iterations 1476
[INFO] SolveP: 9091.11 [ms]
time step continuity errors : sum local = 4.25557e-09, global = -4.92288e-21, cumulative = -5.41183e-20
[INFO] ContinuityError: 7.26 [ms]
[INFO] CorrectBoundary: 0.572 [ms]
[INFO] PISOStep: 9215.07 [ms]
[INFO] MatrixAssemblyPI: 65.937 [ms]
[INFO] AdjustPhi: 4.893 [ms]
[INFO] ConstrainPressure: 0.004 [ms]
[INFO] MatrixAssemblyPII: 20.06 [ms]
nonePCG:  Solving for p, Initial residual = 0.201303, Final residual = 9.54396e-05, No Iterations 1475
[INFO] SolveP: 9175.48 [ms]
time step continuity errors : sum local = 4.10046e-09, global = -2.28532e-21, cumulative = -5.64036e-20
[INFO] ContinuityError: 8.183 [ms]
[INFO] CorrectBoundary: 0.251 [ms]
[INFO] PISOStep: 9299.19 [ms]
[INFO] TimeStep: 19069.6 [ms]
ExecutionTime = 308.79 s  ClockTime = 310 s

Time = 0.00475

Courant Number mean: 0.0593738 max: 0.48611
[INFO] MatrixAssemblyU: 60.027 [ms]
DILUPBiCGStab:  Solving for Ux, Initial residual = 0.00477899, Final residual = 7.13147e-05, No Iterations 5
DILUPBiCGStab:  Solving for Uy, Initial residual = 0.0113501, Final residual = 0.000154185, No Iterations 5
DILUPBiCGStab:  Solving for Uz, Initial residual = 0.0371683, Final residual = 0.00166072, No Iterations 5
[INFO] MomentumPredictor: 486.13 [ms]
[INFO] MatrixAssemblyPI: 67.206 [ms]
[INFO] AdjustPhi: 4.397 [ms]
[INFO] ConstrainPressure: 0.004 [ms]
[INFO] MatrixAssemblyPII: 19.799 [ms]
nonePCG:  Solving for p, Initial residual = 0.202675, Final residual = 9.83234e-05, No Iterations 1473
[INFO] SolveP: 9341.04 [ms]
time step continuity errors : sum local = 4.19059e-09, global = -2.91013e-21, cumulative = -5.93138e-20
[INFO] ContinuityError: 6.738 [ms]
[INFO] CorrectBoundary: 0.359 [ms]
[INFO] PISOStep: 9464.42 [ms]
[INFO] MatrixAssemblyPI: 65.688 [ms]
[INFO] AdjustPhi: 3.589 [ms]
[INFO] ConstrainPressure: 0.004 [ms]
[INFO] MatrixAssemblyPII: 20.008 [ms]
nonePCG:  Solving for p, Initial residual = 0.177371, Final residual = 9.93094e-05, No Iterations 1471
[INFO] SolveP: 9205.05 [ms]
time step continuity errors : sum local = 4.23476e-09, global = -7.11513e-23, cumulative = -5.93849e-20
[INFO] ContinuityError: 6.934 [ms]
[INFO] CorrectBoundary: 0.338 [ms]
[INFO] PISOStep: 9325.52 [ms]
[INFO] TimeStep: 19345.1 [ms]
ExecutionTime = 328.04 s  ClockTime = 329 s

Time = 0.005

Courant Number mean: 0.0604236 max: 0.486416
[INFO] MatrixAssemblyU: 60.236 [ms]
DILUPBiCGStab:  Solving for Ux, Initial residual = 0.00447618, Final residual = 6.45322e-05, No Iterations 5
DILUPBiCGStab:  Solving for Uy, Initial residual = 0.0106009, Final residual = 0.000135989, No Iterations 5
DILUPBiCGStab:  Solving for Uz, Initial residual = 0.0334251, Final residual = 0.00143189, No Iterations 5
[INFO] MomentumPredictor: 485.735 [ms]
[INFO] MatrixAssemblyPI: 67.311 [ms]
[INFO] AdjustPhi: 4.515 [ms]
[INFO] ConstrainPressure: 0.004 [ms]
[INFO] MatrixAssemblyPII: 19.842 [ms]
nonePCG:  Solving for p, Initial residual = 0.184131, Final residual = 9.84949e-05, No Iterations 1469
[INFO] SolveP: 9096.35 [ms]
time step continuity errors : sum local = 4.05524e-09, global = -6.11556e-21, cumulative = -6.55005e-20
[INFO] ContinuityError: 7.79 [ms]
[INFO] CorrectBoundary: 0.909 [ms]
[INFO] PISOStep: 9221.1 [ms]
[INFO] MatrixAssemblyPI: 65.78 [ms]
[INFO] AdjustPhi: 4.986 [ms]
[INFO] ConstrainPressure: 0.005 [ms]
[INFO] MatrixAssemblyPII: 20.033 [ms]
nonePCG:  Solving for p, Initial residual = 0.161727, Final residual = 9.96097e-05, No Iterations 1467
[INFO] SolveP: 9145.91 [ms]
time step continuity errors : sum local = 4.09446e-09, global = -4.55591e-21, cumulative = -7.00564e-20
[INFO] ContinuityError: 8.259 [ms]
[INFO] CorrectBoundary: 0.372 [ms]
[INFO] PISOStep: 9269.83 [ms]
[INFO] TimeStep: 19045.4 [ms]
ExecutionTime = 346.99 s  ClockTime = 348 s

End

Finalising parallel run
