/*---------------------------------------------------------------------------*\
| =========                 |                                                 |
| \\      /  F ield         | OpenFOAM: The Open Source CFD Toolbox           |
|  \\    /   O peration     | Version:  2306                                  |
|   \\  /    A nd           | Website:  www.openfoam.com                      |
|    \\/     M anipulation  |                                                 |
\*---------------------------------------------------------------------------*/
Build  : a6e826bd55-20230630 OPENFOAM=2306 version=v2306
Arch   : "LSB;label=32;scalar=64"
Exec   : icoFoam -parallel -case /tmp/lidDrivenCavity3D/workspace/456156c044b1dc010a06eda6b9d39d50/case
Date   : Dec 05 2023
Time   : 16:16:02
Host   : nla-gpu2.ianm.kit.edu
PID    : 3922431
I/O    : uncollated
Case   : /tmp/lidDrivenCavity3D/workspace/456156c044b1dc010a06eda6b9d39d50/case
nProcs : 16
Hosts  :
(
    (nla-gpu2.ianm.kit.edu 16)
)
Pstream initialized with:
    floatTransfer      : false
    nProcsSimpleSum    : 0
    nonBlockingExchange: 0 (tuning: 0)
    exchange algorithm : -1
    commsType          : nonBlocking
    polling iterations : 0
trapFpe: Floating point exception trapping enabled (FOAM_SIGFPE).
fileModificationChecking : Monitoring run-time modified files using timeStampMaster (fileModificationSkew 5, maxFileModificationPolls 20)
allowSystemOperations : Allowing user-supplied system call operations

// * * * * * * * * * * * * * * * * * * * * * * * * * * * * * * * * * * * * * //
Create time

--> FOAM Warning : 
    From void* Foam::dlLibraryTable::openLibrary(const Foam::fileName&, bool)
    in file db/dynamicLibrary/dlLibraryTable/dlLibraryTable.C at line 188
    Could not load "libpetscFoam.so"
libpetscFoam.so: cannot open shared object file: No such file or directory
Create mesh for time = 0


PISO: Operating solver in PISO mode

Reading transportProperties

Reading field p

Reading field U

Reading/calculating face flux field phi


Starting time loop

Time = 0.0005

Courant Number mean: 8.62851e-18 max: 8.67362e-15
momentum setup 8.359 [ms]
DILUPBiCGStab:  Solving for Ux, Initial residual = 1, Final residual = 0.00283431, No Iterations 5
DILUPBiCGStab:  Solving for Uy:  solution singularity
DILUPBiCGStab:  Solving for Uz:  solution singularity
piso setup 7.48 [ms]
 correctNonOrthogonal 
 setRef 
 startSolve 
DICPCG:  Solving for p, Initial residual = 1, Final residual = 9.20942e-05, No Iterations 302
piso step 397.61 [ms]
 contErrors 
time step continuity errors : sum local = 1.97882e-08, global = 7.88458e-22, cumulative = 7.88458e-22
piso setup 7.359 [ms]
 correctNonOrthogonal 
 setRef 
 startSolve 
DICPCG:  Solving for p, Initial residual = 0.731155, Final residual = 9.47304e-05, No Iterations 299
piso step 403.834 [ms]
 contErrors 
time step continuity errors : sum local = 2.6877e-08, global = -2.67903e-21, cumulative = -1.89057e-21
ExecutionTime = 1.15 s  ClockTime = 1 s

Time = 0.001

Courant Number mean: 0.0215183 max: 0.377124
momentum setup 3.813 [ms]
DILUPBiCGStab:  Solving for Ux, Initial residual = 0.150306, Final residual = 0.00127596, No Iterations 5
DILUPBiCGStab:  Solving for Uy, Initial residual = 0.368273, Final residual = 0.00250953, No Iterations 5
DILUPBiCGStab:  Solving for Uz, Initial residual = 0.986415, Final residual = 0.00613248, No Iterations 5
piso setup 6.062 [ms]
 correctNonOrthogonal 
 setRef 
 startSolve 
DICPCG:  Solving for p, Initial residual = 0.691555, Final residual = 9.09256e-05, No Iterations 297
piso step 396.686 [ms]
 contErrors 
time step continuity errors : sum local = 2.89407e-08, global = -1.68724e-21, cumulative = -3.57781e-21
piso setup 7.558 [ms]
 correctNonOrthogonal 
 setRef 
 startSolve 
DICPCG:  Solving for p, Initial residual = 0.620743, Final residual = 9.31318e-05, No Iterations 296
piso step 376.501 [ms]
 contErrors 
time step continuity errors : sum local = 3.02333e-08, global = 1.69608e-21, cumulative = -1.88173e-21
ExecutionTime = 2.01 s  ClockTime = 2 s

Time = 0.0015

Courant Number mean: 0.0324765 max: 0.441239
momentum setup 5.43 [ms]
DILUPBiCGStab:  Solving for Ux, Initial residual = 0.0531255, Final residual = 0.000379594, No Iterations 5
DILUPBiCGStab:  Solving for Uy, Initial residual = 0.124762, Final residual = 0.000649524, No Iterations 5
DILUPBiCGStab:  Solving for Uz, Initial residual = 0.580523, Final residual = 0.00343025, No Iterations 5
piso setup 7.95 [ms]
 correctNonOrthogonal 
 setRef 
 startSolve 
DICPCG:  Solving for p, Initial residual = 0.633197, Final residual = 9.6834e-05, No Iterations 142
piso step 196.576 [ms]
 contErrors 
time step continuity errors : sum local = 2.89985e-08, global = -9.42159e-22, cumulative = -2.82389e-21
piso setup 7.467 [ms]
 correctNonOrthogonal 
 setRef 
 startSolve 
DICPCG:  Solving for p, Initial residual = 0.580603, Final residual = 8.86682e-05, No Iterations 140
piso step 183.372 [ms]
 contErrors 
time step continuity errors : sum local = 2.18575e-08, global = -7.79494e-21, cumulative = -1.06188e-20
ExecutionTime = 2.47 s  ClockTime = 3 s

Time = 0.002

Courant Number mean: 0.0388748 max: 0.452916
momentum setup 4.167 [ms]
DILUPBiCGStab:  Solving for Ux, Initial residual = 0.0318855, Final residual = 0.000197402, No Iterations 5
DILUPBiCGStab:  Solving for Uy, Initial residual = 0.081516, Final residual = 0.000429446, No Iterations 5
DILUPBiCGStab:  Solving for Uz, Initial residual = 0.283698, Final residual = 0.00136015, No Iterations 5
piso setup 6.203 [ms]
 correctNonOrthogonal 
 setRef 
 startSolve 
DICPCG:  Solving for p, Initial residual = 0.413475, Final residual = 9.5878e-05, No Iterations 140
piso step 183.15 [ms]
 contErrors 
time step continuity errors : sum local = 2.0509e-08, global = 1.7011e-21, cumulative = -8.91773e-21
piso setup 6.976 [ms]
 correctNonOrthogonal 
 setRef 
 startSolve 
DICPCG:  Solving for p, Initial residual = 0.351552, Final residual = 9.41393e-05, No Iterations 139
piso step 194.319 [ms]
 contErrors 
time step continuity errors : sum local = 1.88539e-08, global = -4.53192e-21, cumulative = -1.34496e-20
ExecutionTime = 2.92 s  ClockTime = 3 s

Time = 0.0025

Courant Number mean: 0.0439265 max: 0.459604
momentum setup 4.019 [ms]
DILUPBiCGStab:  Solving for Ux, Initial residual = 0.0235353, Final residual = 0.000127101, No Iterations 5
DILUPBiCGStab:  Solving for Uy, Initial residual = 0.0515479, Final residual = 0.000259213, No Iterations 5
DILUPBiCGStab:  Solving for Uz, Initial residual = 0.105815, Final residual = 0.000572903, No Iterations 5
piso setup 6.231 [ms]
 correctNonOrthogonal 
 setRef 
 startSolve 
DICPCG:  Solving for p, Initial residual = 0.31561, Final residual = 9.32098e-05, No Iterations 281
piso step 367.962 [ms]
 contErrors 
time step continuity errors : sum local = 1.50703e-08, global = -6.11005e-21, cumulative = -1.95597e-20
piso setup 7.071 [ms]
 correctNonOrthogonal 
 setRef 
 startSolve 
DICPCG:  Solving for p, Initial residual = 0.269999, Final residual = 9.57167e-05, No Iterations 280
piso step 363.418 [ms]
 contErrors 
time step continuity errors : sum local = 1.53626e-08, global = 1.90272e-21, cumulative = -1.7657e-20
ExecutionTime = 3.72 s  ClockTime = 4 s

Time = 0.003

Courant Number mean: 0.0479664 max: 0.463845
momentum setup 5.446 [ms]
DILUPBiCGStab:  Solving for Ux, Initial residual = 0.0179025, Final residual = 9.39216e-05, No Iterations 5
DILUPBiCGStab:  Solving for Uy, Initial residual = 0.0401636, Final residual = 0.000138775, No Iterations 5
DILUPBiCGStab:  Solving for Uz, Initial residual = 0.0884281, Final residual = 0.000420591, No Iterations 5
piso setup 10.043 [ms]
 correctNonOrthogonal 
 setRef 
 startSolve 
DICPCG:  Solving for p, Initial residual = 0.197354, Final residual = 9.54659e-05, No Iterations 130
piso step 180.442 [ms]
 contErrors 
time step continuity errors : sum local = 1.49333e-08, global = -3.68194e-21, cumulative = -2.13389e-20
piso setup 7.144 [ms]
 correctNonOrthogonal 
 setRef 
 startSolve 
DICPCG:  Solving for p, Initial residual = 0.164123, Final residual = 9.47705e-05, No Iterations 129
piso step 173.531 [ms]
 contErrors 
time step continuity errors : sum local = 1.49584e-08, global = 8.12963e-22, cumulative = -2.05259e-20
ExecutionTime = 4.18 s  ClockTime = 4 s

Time = 0.0035

Courant Number mean: 0.0513755 max: 0.466724
momentum setup 4.112 [ms]
DILUPBiCGStab:  Solving for Ux, Initial residual = 0.014641, Final residual = 6.72213e-05, No Iterations 5
DILUPBiCGStab:  Solving for Uy, Initial residual = 0.031795, Final residual = 0.000119644, No Iterations 5
DILUPBiCGStab:  Solving for Uz, Initial residual = 0.0585178, Final residual = 0.000260383, No Iterations 5
piso setup 6.148 [ms]
 correctNonOrthogonal 
 setRef 
 startSolve 
DICPCG:  Solving for p, Initial residual = 0.139612, Final residual = 9.80576e-05, No Iterations 123
piso step 165.619 [ms]
 contErrors 
time step continuity errors : sum local = 1.63904e-08, global = -4.06063e-21, cumulative = -2.45866e-20
piso setup 5.834 [ms]
 correctNonOrthogonal 
 setRef 
 startSolve 
DICPCG:  Solving for p, Initial residual = 0.116734, Final residual = 9.95931e-05, No Iterations 120
piso step 158.637 [ms]
 contErrors 
time step continuity errors : sum local = 1.5209e-08, global = 1.22164e-21, cumulative = -2.33649e-20
ExecutionTime = 4.58 s  ClockTime = 5 s

Time = 0.004

Courant Number mean: 0.0543148 max: 0.468932
momentum setup 4.132 [ms]
DILUPBiCGStab:  Solving for Ux, Initial residual = 0.0122804, Final residual = 5.12938e-05, No Iterations 5
DILUPBiCGStab:  Solving for Uy, Initial residual = 0.0265585, Final residual = 7.80792e-05, No Iterations 5
DILUPBiCGStab:  Solving for Uz, Initial residual = 0.0517694, Final residual = 0.000177546, No Iterations 5
piso setup 6.384 [ms]
 correctNonOrthogonal 
 setRef 
 startSolve 
DICPCG:  Solving for p, Initial residual = 0.0909138, Final residual = 9.73158e-05, No Iterations 121
piso step 162.766 [ms]
 contErrors 
time step continuity errors : sum local = 1.50618e-08, global = -3.27491e-21, cumulative = -2.66398e-20
piso setup 5.709 [ms]
 correctNonOrthogonal 
 setRef 
 startSolve 
DICPCG:  Solving for p, Initial residual = 0.0751931, Final residual = 9.73619e-05, No Iterations 119
piso step 153.859 [ms]
 contErrors 
time step continuity errors : sum local = 1.4436e-08, global = -9.54378e-21, cumulative = -3.61836e-20
ExecutionTime = 4.96 s  ClockTime = 5 s

Time = 0.0045

Courant Number mean: 0.0568923 max: 0.470635
momentum setup 5.541 [ms]
DILUPBiCGStab:  Solving for Ux, Initial residual = 0.0105382, Final residual = 3.98049e-05, No Iterations 5
DILUPBiCGStab:  Solving for Uy, Initial residual = 0.0226894, Final residual = 6.82078e-05, No Iterations 5
DILUPBiCGStab:  Solving for Uz, Initial residual = 0.0439541, Final residual = 0.00013414, No Iterations 5
piso setup 8.914 [ms]
 correctNonOrthogonal 
 setRef 
 startSolve 
DICPCG:  Solving for p, Initial residual = 0.0667636, Final residual = 9.25997e-05, No Iterations 124
piso step 167.839 [ms]
 contErrors 
time step continuity errors : sum local = 1.59154e-08, global = -4.39915e-21, cumulative = -4.05828e-20
piso setup 7.159 [ms]
 correctNonOrthogonal 
 setRef 
 startSolve 
DICPCG:  Solving for p, Initial residual = 0.0556874, Final residual = 9.03271e-05, No Iterations 122
piso step 158.621 [ms]
 contErrors 
time step continuity errors : sum local = 1.3718e-08, global = 3.11599e-21, cumulative = -3.74668e-20
ExecutionTime = 5.37 s  ClockTime = 6 s

Time = 0.005

Courant Number mean: 0.059188 max: 0.47203
momentum setup 4.217 [ms]
DILUPBiCGStab:  Solving for Ux, Initial residual = 0.00921479, Final residual = 3.32329e-05, No Iterations 5
DILUPBiCGStab:  Solving for Uy, Initial residual = 0.0197735, Final residual = 5.14957e-05, No Iterations 5
DILUPBiCGStab:  Solving for Uz, Initial residual = 0.0393139, Final residual = 0.000116281, No Iterations 5
piso setup 6.088 [ms]
 correctNonOrthogonal 
 setRef 
 startSolve 
DICPCG:  Solving for p, Initial residual = 0.0448218, Final residual = 8.76083e-05, No Iterations 123
piso step 159.365 [ms]
 contErrors 
time step continuity errors : sum local = 1.46751e-08, global = -3.02769e-21, cumulative = -4.04945e-20
piso setup 5.855 [ms]
 correctNonOrthogonal 
 setRef 
 startSolve 
DICPCG:  Solving for p, Initial residual = 0.0378524, Final residual = 8.9962e-05, No Iterations 121
piso step 156.479 [ms]
 contErrors 
time step continuity errors : sum local = 1.3353e-08, global = 4.28131e-21, cumulative = -3.62132e-20
ExecutionTime = 5.76 s  ClockTime = 6 s

Time = 0.0055

Courant Number mean: 0.061248 max: 0.473178
momentum setup 4.193 [ms]
DILUPBiCGStab:  Solving for Ux, Initial residual = 0.00815349, Final residual = 2.76311e-05, No Iterations 5
DILUPBiCGStab:  Solving for Uy, Initial residual = 0.0174603, Final residual = 4.60541e-05, No Iterations 5
DILUPBiCGStab:  Solving for Uz, Initial residual = 0.0355644, Final residual = 0.000105517, No Iterations 5
piso setup 8.167 [ms]
 correctNonOrthogonal 
 setRef 
 startSolve 
DICPCG:  Solving for p, Initial residual = 0.0352872, Final residual = 9.78803e-05, No Iterations 268
piso step 354.853 [ms]
 contErrors 
time step continuity errors : sum local = 1.37812e-08, global = 1.08244e-20, cumulative = -2.53888e-20
piso setup 5.674 [ms]
 correctNonOrthogonal 
 setRef 
 startSolve 
DICPCG:  Solving for p, Initial residual = 0.0300083, Final residual = 9.2385e-05, No Iterations 268
piso step 349.989 [ms]
 contErrors 
time step continuity errors : sum local = 1.30139e-08, global = 1.28115e-21, cumulative = -2.41076e-20
ExecutionTime = 6.54 s  ClockTime = 7 s

Time = 0.006

Courant Number mean: 0.0631201 max: 0.474157
momentum setup 4.12 [ms]
DILUPBiCGStab:  Solving for Ux, Initial residual = 0.00729271, Final residual = 2.4131e-05, No Iterations 5
DILUPBiCGStab:  Solving for Uy, Initial residual = 0.0155904, Final residual = 3.9377e-05, No Iterations 5
DILUPBiCGStab:  Solving for Uz, Initial residual = 0.0311995, Final residual = 7.58287e-05, No Iterations 5
piso setup 7.542 [ms]
 correctNonOrthogonal 
 setRef 
 startSolve 
DICPCG:  Solving for p, Initial residual = 0.0254062, Final residual = 9.93512e-05, No Iterations 113
piso step 164.126 [ms]
 contErrors 
time step continuity errors : sum local = 1.47838e-08, global = 9.14303e-21, cumulative = -1.49646e-20
piso setup 7.529 [ms]
 correctNonOrthogonal 
 setRef 
 startSolve 
DICPCG:  Solving for p, Initial residual = 0.0221835, Final residual = 9.08603e-05, No Iterations 113
piso step 147.234 [ms]
 contErrors 
time step continuity errors : sum local = 1.3111e-08, global = -7.22155e-22, cumulative = -1.56868e-20
ExecutionTime = 6.92 s  ClockTime = 7 s

Time = 0.0065

Courant Number mean: 0.0648242 max: 0.474994
momentum setup 4.323 [ms]
DILUPBiCGStab:  Solving for Ux, Initial residual = 0.00656205, Final residual = 2.09278e-05, No Iterations 5
DILUPBiCGStab:  Solving for Uy, Initial residual = 0.0140637, Final residual = 3.53449e-05, No Iterations 5
DILUPBiCGStab:  Solving for Uz, Initial residual = 0.0283151, Final residual = 6.63571e-05, No Iterations 5
piso setup 6.079 [ms]
 correctNonOrthogonal 
 setRef 
 startSolve 
DICPCG:  Solving for p, Initial residual = 0.0208855, Final residual = 9.58087e-05, No Iterations 113
piso step 149.418 [ms]
 contErrors 
time step continuity errors : sum local = 1.49163e-08, global = 3.44428e-21, cumulative = -1.22425e-20
piso setup 5.888 [ms]
 correctNonOrthogonal 
 setRef 
 startSolve 
DICPCG:  Solving for p, Initial residual = 0.0183982, Final residual = 9.31647e-05, No Iterations 111
piso step 143.535 [ms]
 contErrors 
time step continuity errors : sum local = 1.34001e-08, global = -2.50967e-21, cumulative = -1.47521e-20
ExecutionTime = 7.3 s  ClockTime = 8 s

Time = 0.007

Courant Number mean: 0.0663921 max: 0.475725
momentum setup 4.177 [ms]
DILUPBiCGStab:  Solving for Ux, Initial residual = 0.00595876, Final residual = 1.87018e-05, No Iterations 5
DILUPBiCGStab:  Solving for Uy, Initial residual = 0.0127807, Final residual = 3.17889e-05, No Iterations 5
DILUPBiCGStab:  Solving for Uz, Initial residual = 0.0259122, Final residual = 6.52869e-05, No Iterations 5
piso setup 6.221 [ms]
 correctNonOrthogonal 
 setRef 
 startSolve 
DICPCG:  Solving for p, Initial residual = 0.0163407, Final residual = 9.68917e-05, No Iterations 117
piso step 152.482 [ms]
 contErrors 
time step continuity errors : sum local = 1.5246e-08, global = -1.59088e-21, cumulative = -1.6343e-20
piso setup 5.84 [ms]
 correctNonOrthogonal 
 setRef 
 startSolve 
DICPCG:  Solving for p, Initial residual = 0.0147763, Final residual = 9.99167e-05, No Iterations 114
piso step 152.873 [ms]
 contErrors 
time step continuity errors : sum local = 1.4555e-08, global = 2.66911e-21, cumulative = -1.36739e-20
ExecutionTime = 7.68 s  ClockTime = 8 s

Time = 0.0075

Courant Number mean: 0.0678393 max: 0.476365
momentum setup 4.285 [ms]
DILUPBiCGStab:  Solving for Ux, Initial residual = 0.00544456, Final residual = 1.66736e-05, No Iterations 5
DILUPBiCGStab:  Solving for Uy, Initial residual = 0.0116727, Final residual = 2.90408e-05, No Iterations 5
DILUPBiCGStab:  Solving for Uz, Initial residual = 0.0242327, Final residual = 6.3575e-05, No Iterations 5
piso setup 6.128 [ms]
 correctNonOrthogonal 
 setRef 
 startSolve 
DICPCG:  Solving for p, Initial residual = 0.0143942, Final residual = 9.44692e-05, No Iterations 120
piso step 158.82 [ms]
 contErrors 
time step continuity errors : sum local = 1.58336e-08, global = -4.83073e-22, cumulative = -1.4157e-20
piso setup 5.795 [ms]
 correctNonOrthogonal 
 setRef 
 startSolve 
DICPCG:  Solving for p, Initial residual = 0.0131118, Final residual = 9.53176e-05, No Iterations 116
piso step 151.477 [ms]
 contErrors 
time step continuity errors : sum local = 1.4049e-08, global = -1.53339e-22, cumulative = -1.43103e-20
ExecutionTime = 8.06 s  ClockTime = 8 s

Time = 0.008

Courant Number mean: 0.0691767 max: 0.476935
momentum setup 4.192 [ms]
DILUPBiCGStab:  Solving for Ux, Initial residual = 0.00499081, Final residual = 1.5144e-05, No Iterations 5
DILUPBiCGStab:  Solving for Uy, Initial residual = 0.01075, Final residual = 2.67254e-05, No Iterations 5
DILUPBiCGStab:  Solving for Uz, Initial residual = 0.0224685, Final residual = 6.75005e-05, No Iterations 5
piso setup 6.173 [ms]
 correctNonOrthogonal 
 setRef 
 startSolve 
DICPCG:  Solving for p, Initial residual = 0.0122555, Final residual = 9.8613e-05, No Iterations 121
piso step 166.673 [ms]
 contErrors 
time step continuity errors : sum local = 1.69039e-08, global = 6.60462e-21, cumulative = -7.7057e-21
piso setup 5.936 [ms]
 correctNonOrthogonal 
 setRef 
 startSolve 
DICPCG:  Solving for p, Initial residual = 0.0113791, Final residual = 9.41313e-05, No Iterations 116
piso step 152.646 [ms]
 contErrors 
time step continuity errors : sum local = 1.41264e-08, global = -6.54145e-22, cumulative = -8.35985e-21
ExecutionTime = 8.45 s  ClockTime = 9 s

Time = 0.0085

Courant Number mean: 0.0704223 max: 0.477443
momentum setup 4.222 [ms]
DILUPBiCGStab:  Solving for Ux, Initial residual = 0.00461485, Final residual = 1.3742e-05, No Iterations 5
DILUPBiCGStab:  Solving for Uy, Initial residual = 0.00989772, Final residual = 2.48841e-05, No Iterations 5
DILUPBiCGStab:  Solving for Uz, Initial residual = 0.0213179, Final residual = 7.04146e-05, No Iterations 5
piso setup 6.022 [ms]
 correctNonOrthogonal 
 setRef 
 startSolve 
DICPCG:  Solving for p, Initial residual = 0.011231, Final residual = 9.25375e-05, No Iterations 261
piso step 350.772 [ms]
 contErrors 
time step continuity errors : sum local = 1.29383e-08, global = -5.71768e-21, cumulative = -1.40775e-20
piso setup 7.291 [ms]
 correctNonOrthogonal 
 setRef 
 startSolve 
DICPCG:  Solving for p, Initial residual = 0.0104907, Final residual = 9.84136e-05, No Iterations 259
piso step 334.71 [ms]
 contErrors 
time step continuity errors : sum local = 1.37651e-08, global = 1.73785e-22, cumulative = -1.39037e-20
ExecutionTime = 9.21 s  ClockTime = 9 s

Time = 0.009

Courant Number mean: 0.0715858 max: 0.477902
momentum setup 4.191 [ms]
DILUPBiCGStab:  Solving for Ux, Initial residual = 0.00426387, Final residual = 1.25979e-05, No Iterations 5
DILUPBiCGStab:  Solving for Uy, Initial residual = 0.00917287, Final residual = 2.28762e-05, No Iterations 5
DILUPBiCGStab:  Solving for Uz, Initial residual = 0.0192406, Final residual = 4.90341e-05, No Iterations 5
piso setup 6.055 [ms]
 correctNonOrthogonal 
 setRef 
 startSolve 
DICPCG:  Solving for p, Initial residual = 0.0100932, Final residual = 9.91091e-05, No Iterations 109
piso step 141.968 [ms]
 contErrors 
time step continuity errors : sum local = 1.52339e-08, global = -2.96534e-21, cumulative = -1.68691e-20
piso setup 5.994 [ms]
 correctNonOrthogonal 
 setRef 
 startSolve 
DICPCG:  Solving for p, Initial residual = 0.00949524, Final residual = 9.37985e-05, No Iterations 108
piso step 142.695 [ms]
 contErrors 
time step continuity errors : sum local = 1.36548e-08, global = 1.88783e-21, cumulative = -1.49812e-20
ExecutionTime = 9.56 s  ClockTime = 10 s

Time = 0.0095

Courant Number mean: 0.0726727 max: 0.478315
momentum setup 4.251 [ms]
DILUPBiCGStab:  Solving for Ux, Initial residual = 0.00395536, Final residual = 1.14554e-05, No Iterations 5
DILUPBiCGStab:  Solving for Uy, Initial residual = 0.00852695, Final residual = 2.0946e-05, No Iterations 5
DILUPBiCGStab:  Solving for Uz, Initial residual = 0.0178144, Final residual = 4.49759e-05, No Iterations 5
piso setup 6.859 [ms]
 correctNonOrthogonal 
 setRef 
 startSolve 
DICPCG:  Solving for p, Initial residual = 0.00924365, Final residual = 9.86857e-05, No Iterations 112
piso step 149.862 [ms]
 contErrors 
time step continuity errors : sum local = 1.55525e-08, global = 1.99774e-21, cumulative = -1.29835e-20
piso setup 5.858 [ms]
 correctNonOrthogonal 
 setRef 
 startSolve 
DICPCG:  Solving for p, Initial residual = 0.00870696, Final residual = 9.72919e-05, No Iterations 109
piso step 141.871 [ms]
 contErrors 
time step continuity errors : sum local = 1.40081e-08, global = 5.28103e-22, cumulative = -1.24554e-20
ExecutionTime = 9.93 s  ClockTime = 10 s

Time = 0.01

Courant Number mean: 0.0736903 max: 0.478692
momentum setup 4.199 [ms]
DILUPBiCGStab:  Solving for Ux, Initial residual = 0.00367833, Final residual = 1.05974e-05, No Iterations 5
DILUPBiCGStab:  Solving for Uy, Initial residual = 0.00797198, Final residual = 1.96235e-05, No Iterations 5
DILUPBiCGStab:  Solving for Uz, Initial residual = 0.0167669, Final residual = 4.76638e-05, No Iterations 5
piso setup 6.092 [ms]
 correctNonOrthogonal 
 setRef 
 startSolve 
DICPCG:  Solving for p, Initial residual = 0.00844651, Final residual = 9.97476e-05, No Iterations 116
piso step 158.904 [ms]
 contErrors 
time step continuity errors : sum local = 1.63834e-08, global = -9.72971e-21, cumulative = -2.21851e-20
piso setup 5.904 [ms]
 correctNonOrthogonal 
 setRef 
 startSolve 
DICPCG:  Solving for p, Initial residual = 0.00799312, Final residual = 9.87554e-05, No Iterations 112
piso step 146.301 [ms]
 contErrors 
time step continuity errors : sum local = 1.46492e-08, global = 7.69309e-21, cumulative = -1.4492e-20
ExecutionTime = 10.3 s  ClockTime = 11 s

End

Finalising parallel run
