/*---------------------------------------------------------------------------*\
| =========                 |                                                 |
| \\      /  F ield         | OpenFOAM: The Open Source CFD Toolbox           |
|  \\    /   O peration     | Version:  2312                                  |
|   \\  /    A nd           | Website:  www.openfoam.com                      |
|    \\/     M anipulation  |                                                 |
\*---------------------------------------------------------------------------*/
Build  : a46b310f-20240104 OPENFOAM=2312 version=v2312
Arch   : "LSB;label=32;scalar=64"
Exec   : decomposePar -force
Date   : Feb 16 2024
Time   : 21:22:17
Host   : i20r02c05s06
PID    : 12609
--> FOAM Warning : 
    From Foam::fileName Foam::cwd_L()
    in file POSIX.C at line 552
    PWD is not the cwd() - reverting to physical description
I/O    : uncollated
--> FOAM Warning : 
    From Foam::fileName Foam::cwd_L()
    in file POSIX.C at line 552
    PWD is not the cwd() - reverting to physical description
Case   : /hppfs/scratch/0B/di35yan/lidDriven3D/workspace/6bd796d032737dfdcdd5537b633c68f1/case
nProcs : 1
trapFpe: Floating point exception trapping enabled (FOAM_SIGFPE).
fileModificationChecking : Monitoring run-time modified files using timeStampMaster (fileModificationSkew 5, maxFileModificationPolls 20)
allowSystemOperations : Allowing user-supplied system call operations

// * * * * * * * * * * * * * * * * * * * * * * * * * * * * * * * * * * * * * //
Create time

--> FOAM Warning : 
    From void* Foam::dlLibraryTable::openLibrary(const Foam::fileName&, bool)
    in file db/dynamicLibrary/dlLibraryTable/dlLibraryTable.C at line 188
    Could not load "libpetscFoam.so"
libpetscFoam.so: cannot open shared object file: No such file or directory


Decomposing mesh

Create mesh

Calculating distribution of cells
Decomposition method simple [72] (region region0)

Finished decomposition in 85.88 s

Calculating original mesh data

Distributing cells to processors

Distributing faces to processors

Distributing points to processors

Constructing processor meshes

Processor 0
    Number of cells = 1733969
    Number of points = 1786554
    Number of faces shared with processor 1 = 13840
    Number of faces shared with processor 4 = 7000
    Number of faces shared with processor 8 = 31437
    Number of faces shared with processor 9 = 1
    Number of processor patches = 4
    Number of processor faces = 52278
    Number of boundary faces = 52028

Processor 1
    Number of cells = 1726156
    Number of points = 1778678
    Number of faces shared with processor 0 = 13840
    Number of faces shared with processor 2 = 13778
    Number of faces shared with processor 5 = 7000
    Number of faces shared with processor 9 = 31437
    Number of processor patches = 4
    Number of processor faces = 66055
    Number of boundary faces = 38125

Processor 2
    Number of cells = 1719520
    Number of points = 1771909
    Number of faces shared with processor 1 = 13778
    Number of faces shared with processor 3 = 13750
    Number of faces shared with processor 6 = 6929
    Number of faces shared with processor 10 = 31332
    Number of processor patches = 4
    Number of processor faces = 65789
    Number of boundary faces = 38125

Processor 3
    Number of cells = 1718750
    Number of points = 1771056
    Number of faces shared with processor 2 = 13750
    Number of faces shared with processor 7 = 6875
    Number of faces shared with processor 11 = 31250
    Number of processor patches = 3
    Number of processor faces = 51875
    Number of boundary faces = 51875

Processor 4
    Number of cells = 1750000
    Number of points = 1802682
    Number of faces shared with processor 0 = 7000
    Number of faces shared with processor 5 = 14000
    Number of faces shared with processor 12 = 31250
    Number of processor patches = 3
    Number of processor faces = 52250
    Number of boundary faces = 52250

Processor 5
    Number of cells = 1750000
    Number of points = 1802682
    Number of faces shared with processor 1 = 7000
    Number of faces shared with processor 4 = 14000
    Number of faces shared with processor 6 = 14000
    Number of faces shared with processor 13 = 31250
    Number of processor patches = 4
    Number of processor faces = 66250
    Number of boundary faces = 38250

Processor 6
    Number of cells = 1748775
    Number of points = 1801457
    Number of faces shared with processor 2 = 6929
    Number of faces shared with processor 5 = 14000
    Number of faces shared with processor 7 = 13965
    Number of faces shared with processor 10 = 2
    Number of faces shared with processor 14 = 31354
    Number of processor patches = 5
    Number of processor faces = 66250
    Number of boundary faces = 38250

Processor 7
    Number of cells = 1741719
    Number of points = 1794366
    Number of faces shared with processor 3 = 6875
    Number of faces shared with processor 6 = 13965
    Number of faces shared with processor 15 = 31437
    Number of processor patches = 3
    Number of processor faces = 52277
    Number of boundary faces = 52153

Processor 8
    Number of cells = 1734781
    Number of points = 1787372
    Number of faces shared with processor 0 = 31437
    Number of faces shared with processor 9 = 13909
    Number of faces shared with processor 12 = 6875
    Number of faces shared with processor 16 = 31250
    Number of processor patches = 4
    Number of processor faces = 83471
    Number of boundary faces = 20847

Processor 9
    Number of cells = 1742594
    Number of points = 1795248
    Number of faces shared with processor 0 = 1
    Number of faces shared with processor 1 = 31437
    Number of faces shared with processor 8 = 13909
    Number of faces shared with processor 10 = 13972
    Number of faces shared with processor 13 = 6875
    Number of faces shared with processor 17 = 31250
    Number of processor patches = 6
    Number of processor faces = 97444
    Number of boundary faces = 7000

Processor 10
    Number of cells = 1749181
    Number of points = 1801863
    Number of faces shared with processor 2 = 31332
    Number of faces shared with processor 6 = 2
    Number of faces shared with processor 9 = 13972
    Number of faces shared with processor 11 = 13993
    Number of faces shared with processor 14 = 6944
    Number of faces shared with processor 18 = 31270
    Number of processor patches = 6
    Number of processor faces = 97513
    Number of boundary faces = 6987

Processor 11
    Number of cells = 1745219
    Number of points = 1797894
    Number of faces shared with processor 3 = 31250
    Number of faces shared with processor 10 = 13993
    Number of faces shared with processor 15 = 7000
    Number of faces shared with processor 19 = 31437
    Number of processor patches = 4
    Number of processor faces = 83680
    Number of boundary faces = 20806

Processor 12
    Number of cells = 1737434
    Number of points = 1790047
    Number of faces shared with processor 4 = 31250
    Number of faces shared with processor 8 = 6875
    Number of faces shared with processor 13 = 13868
    Number of faces shared with processor 20 = 31438
    Number of processor patches = 4
    Number of processor faces = 83431
    Number of boundary faces = 20931

Processor 13
    Number of cells = 1729594
    Number of points = 1782144
    Number of faces shared with processor 5 = 31250
    Number of faces shared with processor 9 = 6875
    Number of faces shared with processor 12 = 13868
    Number of faces shared with processor 14 = 13805
    Number of faces shared with processor 21 = 31437
    Number of faces shared with processor 22 = 1
    Number of processor patches = 6
    Number of processor faces = 97236
    Number of boundary faces = 7000

Processor 14
    Number of cells = 1723055
    Number of points = 1775632
    Number of faces shared with processor 6 = 31354
    Number of faces shared with processor 10 = 6944
    Number of faces shared with processor 13 = 13805
    Number of faces shared with processor 15 = 13785
    Number of faces shared with processor 22 = 31415
    Number of processor patches = 5
    Number of processor faces = 97303
    Number of boundary faces = 6985

Processor 15
    Number of cells = 1727031
    Number of points = 1779560
    Number of faces shared with processor 7 = 31437
    Number of faces shared with processor 11 = 7000
    Number of faces shared with processor 14 = 13785
    Number of faces shared with processor 23 = 31250
    Number of processor patches = 4
    Number of processor faces = 83472
    Number of boundary faces = 20722

Processor 16
    Number of cells = 1740906
    Number of points = 1793546
    Number of faces shared with processor 8 = 31250
    Number of faces shared with processor 17 = 13896
    Number of faces shared with processor 20 = 7000
    Number of faces shared with processor 24 = 31437
    Number of processor patches = 4
    Number of processor faces = 83583
    Number of boundary faces = 20833

Processor 17
    Number of cells = 1733094
    Number of points = 1785672
    Number of faces shared with processor 9 = 31250
    Number of faces shared with processor 16 = 13896
    Number of faces shared with processor 18 = 13833
    Number of faces shared with processor 21 = 7000
    Number of faces shared with processor 25 = 31437
    Number of faces shared with processor 26 = 1
    Number of processor patches = 6
    Number of processor faces = 97417
    Number of boundary faces = 6875

Processor 18
    Number of cells = 1725310
    Number of points = 1777846
    Number of faces shared with processor 10 = 31270
    Number of faces shared with processor 17 = 13833
    Number of faces shared with processor 19 = 13777
    Number of faces shared with processor 22 = 7000
    Number of faces shared with processor 26 = 31437
    Number of faces shared with processor 27 = 1
    Number of processor patches = 6
    Number of processor faces = 97318
    Number of boundary faces = 6888

Processor 19
    Number of cells = 1723951
    Number of points = 1776513
    Number of faces shared with processor 11 = 31437
    Number of faces shared with processor 18 = 13777
    Number of faces shared with processor 23 = 6915
    Number of faces shared with processor 27 = 31310
    Number of processor patches = 4
    Number of processor faces = 83439
    Number of boundary faces = 20819

Processor 20
    Number of cells = 1731316
    Number of points = 1783880
    Number of faces shared with processor 12 = 31438
    Number of faces shared with processor 16 = 7000
    Number of faces shared with processor 21 = 13882
    Number of faces shared with processor 28 = 31250
    Number of processor patches = 4
    Number of processor faces = 83570
    Number of boundary faces = 20694

Processor 21
    Number of cells = 1739156
    Number of points = 1791782
    Number of faces shared with processor 13 = 31437
    Number of faces shared with processor 17 = 7000
    Number of faces shared with processor 20 = 13882
    Number of faces shared with processor 22 = 13944
    Number of faces shared with processor 29 = 31250
    Number of processor patches = 5
    Number of processor faces = 97513
    Number of boundary faces = 6875

Processor 22
    Number of cells = 1746920
    Number of points = 1799602
    Number of faces shared with processor 13 = 1
    Number of faces shared with processor 14 = 31415
    Number of faces shared with processor 18 = 7000
    Number of faces shared with processor 21 = 13944
    Number of faces shared with processor 23 = 14000
    Number of faces shared with processor 30 = 31250
    Number of processor patches = 6
    Number of processor faces = 97610
    Number of boundary faces = 6890

Processor 23
    Number of cells = 1748236
    Number of points = 1800918
    Number of faces shared with processor 15 = 31250
    Number of faces shared with processor 19 = 6915
    Number of faces shared with processor 22 = 14000
    Number of faces shared with processor 27 = 2
    Number of faces shared with processor 31 = 31375
    Number of processor patches = 5
    Number of processor faces = 83542
    Number of boundary faces = 20958

Processor 24
    Number of cells = 1727844
    Number of points = 1780380
    Number of faces shared with processor 16 = 31437
    Number of faces shared with processor 25 = 13854
    Number of faces shared with processor 28 = 6875
    Number of faces shared with processor 32 = 31250
    Number of processor patches = 4
    Number of processor faces = 83416
    Number of boundary faces = 20792

Processor 25
    Number of cells = 1735656
    Number of points = 1788254
    Number of faces shared with processor 17 = 31437
    Number of faces shared with processor 24 = 13854
    Number of faces shared with processor 26 = 13916
    Number of faces shared with processor 29 = 6875
    Number of faces shared with processor 33 = 31250
    Number of processor patches = 5
    Number of processor faces = 97332
    Number of boundary faces = 7000

Processor 26
    Number of cells = 1743489
    Number of points = 1796150
    Number of faces shared with processor 17 = 1
    Number of faces shared with processor 18 = 31437
    Number of faces shared with processor 25 = 13916
    Number of faces shared with processor 27 = 13979
    Number of faces shared with processor 30 = 6875
    Number of faces shared with processor 34 = 31250
    Number of processor patches = 6
    Number of processor faces = 97458
    Number of boundary faces = 7000

Processor 27
    Number of cells = 1749384
    Number of points = 1802066
    Number of faces shared with processor 18 = 1
    Number of faces shared with processor 19 = 31310
    Number of faces shared with processor 23 = 2
    Number of faces shared with processor 26 = 13979
    Number of faces shared with processor 31 = 6958
    Number of faces shared with processor 35 = 31291
    Number of processor patches = 6
    Number of processor faces = 83541
    Number of boundary faces = 20959

Processor 28
    Number of cells = 1744400
    Number of points = 1797068
    Number of faces shared with processor 20 = 31250
    Number of faces shared with processor 24 = 6875
    Number of faces shared with processor 29 = 13923
    Number of faces shared with processor 36 = 31437
    Number of faces shared with processor 37 = 1
    Number of processor patches = 5
    Number of processor faces = 83486
    Number of boundary faces = 20986

Processor 29
    Number of cells = 1736531
    Number of points = 1789136
    Number of faces shared with processor 21 = 31250
    Number of faces shared with processor 25 = 6875
    Number of faces shared with processor 28 = 13923
    Number of faces shared with processor 30 = 13861
    Number of faces shared with processor 37 = 31437
    Number of processor patches = 5
    Number of processor faces = 97346
    Number of boundary faces = 7000

Processor 30
    Number of cells = 1728719
    Number of points = 1781262
    Number of faces shared with processor 22 = 31250
    Number of faces shared with processor 26 = 6875
    Number of faces shared with processor 29 = 13861
    Number of faces shared with processor 31 = 13798
    Number of faces shared with processor 38 = 31437
    Number of faces shared with processor 39 = 1
    Number of processor patches = 6
    Number of processor faces = 97222
    Number of boundary faces = 7000

Processor 31
    Number of cells = 1722866
    Number of points = 1775443
    Number of faces shared with processor 23 = 31375
    Number of faces shared with processor 27 = 6958
    Number of faces shared with processor 30 = 13798
    Number of faces shared with processor 39 = 31394
    Number of processor patches = 4
    Number of processor faces = 83525
    Number of boundary faces = 20763

Processor 32
    Number of cells = 1747648
    Number of points = 1800330
    Number of faces shared with processor 24 = 31250
    Number of faces shared with processor 33 = 13951
    Number of faces shared with processor 36 = 7000
    Number of faces shared with processor 40 = 31394
    Number of faces shared with processor 41 = 1
    Number of processor patches = 5
    Number of processor faces = 83596
    Number of boundary faces = 20904

Processor 33
    Number of cells = 1740031
    Number of points = 1792664
    Number of faces shared with processor 25 = 31250
    Number of faces shared with processor 32 = 13951
    Number of faces shared with processor 34 = 13889
    Number of faces shared with processor 37 = 7000
    Number of faces shared with processor 41 = 31437
    Number of processor patches = 5
    Number of processor faces = 97527
    Number of boundary faces = 6875

Processor 34
    Number of cells = 1732219
    Number of points = 1784790
    Number of faces shared with processor 26 = 31250
    Number of faces shared with processor 33 = 13889
    Number of faces shared with processor 35 = 13826
    Number of faces shared with processor 38 = 7000
    Number of faces shared with processor 42 = 31437
    Number of faces shared with processor 43 = 1
    Number of processor patches = 6
    Number of processor faces = 97403
    Number of boundary faces = 6875

Processor 35
    Number of cells = 1724547
    Number of points = 1777097
    Number of faces shared with processor 27 = 31291
    Number of faces shared with processor 34 = 13826
    Number of faces shared with processor 39 = 7000
    Number of faces shared with processor 43 = 31437
    Number of processor patches = 4
    Number of processor faces = 83554
    Number of boundary faces = 20680

Processor 36
    Number of cells = 1724546
    Number of points = 1777096
    Number of faces shared with processor 28 = 31437
    Number of faces shared with processor 32 = 7000
    Number of faces shared with processor 37 = 13826
    Number of faces shared with processor 44 = 31291
    Number of processor patches = 4
    Number of processor faces = 83554
    Number of boundary faces = 20680

Processor 37
    Number of cells = 1732219
    Number of points = 1784790
    Number of faces shared with processor 28 = 1
    Number of faces shared with processor 29 = 31437
    Number of faces shared with processor 33 = 7000
    Number of faces shared with processor 36 = 13826
    Number of faces shared with processor 38 = 13889
    Number of faces shared with processor 45 = 31250
    Number of processor patches = 6
    Number of processor faces = 97403
    Number of boundary faces = 6875

Processor 38
    Number of cells = 1740031
    Number of points = 1792664
    Number of faces shared with processor 30 = 31437
    Number of faces shared with processor 34 = 7000
    Number of faces shared with processor 37 = 13889
    Number of faces shared with processor 39 = 13951
    Number of faces shared with processor 46 = 31250
    Number of processor patches = 5
    Number of processor faces = 97527
    Number of boundary faces = 6875

Processor 39
    Number of cells = 1747648
    Number of points = 1800330
    Number of faces shared with processor 30 = 1
    Number of faces shared with processor 31 = 31394
    Number of faces shared with processor 35 = 7000
    Number of faces shared with processor 38 = 13951
    Number of faces shared with processor 47 = 31250
    Number of processor patches = 5
    Number of processor faces = 83596
    Number of boundary faces = 20904

Processor 40
    Number of cells = 1722866
    Number of points = 1775443
    Number of faces shared with processor 32 = 31394
    Number of faces shared with processor 41 = 13798
    Number of faces shared with processor 44 = 6958
    Number of faces shared with processor 48 = 31375
    Number of processor patches = 4
    Number of processor faces = 83525
    Number of boundary faces = 20763

Processor 41
    Number of cells = 1728719
    Number of points = 1781262
    Number of faces shared with processor 32 = 1
    Number of faces shared with processor 33 = 31437
    Number of faces shared with processor 40 = 13798
    Number of faces shared with processor 42 = 13861
    Number of faces shared with processor 45 = 6875
    Number of faces shared with processor 49 = 31250
    Number of processor patches = 6
    Number of processor faces = 97222
    Number of boundary faces = 7000

Processor 42
    Number of cells = 1736531
    Number of points = 1789136
    Number of faces shared with processor 34 = 31437
    Number of faces shared with processor 41 = 13861
    Number of faces shared with processor 43 = 13923
    Number of faces shared with processor 46 = 6875
    Number of faces shared with processor 50 = 31250
    Number of processor patches = 5
    Number of processor faces = 97346
    Number of boundary faces = 7000

Processor 43
    Number of cells = 1744399
    Number of points = 1797067
    Number of faces shared with processor 34 = 1
    Number of faces shared with processor 35 = 31437
    Number of faces shared with processor 42 = 13923
    Number of faces shared with processor 47 = 6875
    Number of faces shared with processor 51 = 31250
    Number of processor patches = 5
    Number of processor faces = 83486
    Number of boundary faces = 20986

Processor 44
    Number of cells = 1749384
    Number of points = 1802066
    Number of faces shared with processor 36 = 31291
    Number of faces shared with processor 40 = 6958
    Number of faces shared with processor 45 = 13979
    Number of faces shared with processor 48 = 2
    Number of faces shared with processor 52 = 31310
    Number of faces shared with processor 53 = 1
    Number of processor patches = 6
    Number of processor faces = 83541
    Number of boundary faces = 20959

Processor 45
    Number of cells = 1743490
    Number of points = 1796151
    Number of faces shared with processor 37 = 31250
    Number of faces shared with processor 41 = 6875
    Number of faces shared with processor 44 = 13979
    Number of faces shared with processor 46 = 13916
    Number of faces shared with processor 53 = 31437
    Number of faces shared with processor 54 = 1
    Number of processor patches = 6
    Number of processor faces = 97458
    Number of boundary faces = 7000

Processor 46
    Number of cells = 1735656
    Number of points = 1788254
    Number of faces shared with processor 38 = 31250
    Number of faces shared with processor 42 = 6875
    Number of faces shared with processor 45 = 13916
    Number of faces shared with processor 47 = 13854
    Number of faces shared with processor 54 = 31437
    Number of processor patches = 5
    Number of processor faces = 97332
    Number of boundary faces = 7000

Processor 47
    Number of cells = 1727844
    Number of points = 1780380
    Number of faces shared with processor 39 = 31250
    Number of faces shared with processor 43 = 6875
    Number of faces shared with processor 46 = 13854
    Number of faces shared with processor 55 = 31437
    Number of processor patches = 4
    Number of processor faces = 83416
    Number of boundary faces = 20792

Processor 48
    Number of cells = 1748236
    Number of points = 1800918
    Number of faces shared with processor 40 = 31375
    Number of faces shared with processor 44 = 2
    Number of faces shared with processor 49 = 14000
    Number of faces shared with processor 52 = 6915
    Number of faces shared with processor 56 = 31250
    Number of processor patches = 5
    Number of processor faces = 83542
    Number of boundary faces = 20958

Processor 49
    Number of cells = 1746920
    Number of points = 1799602
    Number of faces shared with processor 41 = 31250
    Number of faces shared with processor 48 = 14000
    Number of faces shared with processor 50 = 13944
    Number of faces shared with processor 53 = 7000
    Number of faces shared with processor 57 = 31415
    Number of faces shared with processor 58 = 1
    Number of processor patches = 6
    Number of processor faces = 97610
    Number of boundary faces = 6890

Processor 50
    Number of cells = 1739156
    Number of points = 1791782
    Number of faces shared with processor 42 = 31250
    Number of faces shared with processor 49 = 13944
    Number of faces shared with processor 51 = 13882
    Number of faces shared with processor 54 = 7000
    Number of faces shared with processor 58 = 31437
    Number of processor patches = 5
    Number of processor faces = 97513
    Number of boundary faces = 6875

Processor 51
    Number of cells = 1731317
    Number of points = 1783881
    Number of faces shared with processor 43 = 31250
    Number of faces shared with processor 50 = 13882
    Number of faces shared with processor 55 = 7000
    Number of faces shared with processor 59 = 31438
    Number of processor patches = 4
    Number of processor faces = 83570
    Number of boundary faces = 20694

Processor 52
    Number of cells = 1723951
    Number of points = 1776513
    Number of faces shared with processor 44 = 31310
    Number of faces shared with processor 48 = 6915
    Number of faces shared with processor 53 = 13777
    Number of faces shared with processor 60 = 31437
    Number of processor patches = 4
    Number of processor faces = 83439
    Number of boundary faces = 20819

Processor 53
    Number of cells = 1725309
    Number of points = 1777845
    Number of faces shared with processor 44 = 1
    Number of faces shared with processor 45 = 31437
    Number of faces shared with processor 49 = 7000
    Number of faces shared with processor 52 = 13777
    Number of faces shared with processor 54 = 13833
    Number of faces shared with processor 61 = 31270
    Number of processor patches = 6
    Number of processor faces = 97318
    Number of boundary faces = 6888

Processor 54
    Number of cells = 1733094
    Number of points = 1785672
    Number of faces shared with processor 45 = 1
    Number of faces shared with processor 46 = 31437
    Number of faces shared with processor 50 = 7000
    Number of faces shared with processor 53 = 13833
    Number of faces shared with processor 55 = 13896
    Number of faces shared with processor 62 = 31250
    Number of processor patches = 6
    Number of processor faces = 97417
    Number of boundary faces = 6875

Processor 55
    Number of cells = 1740906
    Number of points = 1793546
    Number of faces shared with processor 47 = 31437
    Number of faces shared with processor 51 = 7000
    Number of faces shared with processor 54 = 13896
    Number of faces shared with processor 63 = 31250
    Number of processor patches = 4
    Number of processor faces = 83583
    Number of boundary faces = 20833

Processor 56
    Number of cells = 1727031
    Number of points = 1779560
    Number of faces shared with processor 48 = 31250
    Number of faces shared with processor 57 = 13785
    Number of faces shared with processor 60 = 7000
    Number of faces shared with processor 64 = 31437
    Number of processor patches = 4
    Number of processor faces = 83472
    Number of boundary faces = 20722

Processor 57
    Number of cells = 1723055
    Number of points = 1775632
    Number of faces shared with processor 49 = 31415
    Number of faces shared with processor 56 = 13785
    Number of faces shared with processor 58 = 13805
    Number of faces shared with processor 61 = 6944
    Number of faces shared with processor 65 = 31354
    Number of processor patches = 5
    Number of processor faces = 97303
    Number of boundary faces = 6985

Processor 58
    Number of cells = 1729594
    Number of points = 1782144
    Number of faces shared with processor 49 = 1
    Number of faces shared with processor 50 = 31437
    Number of faces shared with processor 57 = 13805
    Number of faces shared with processor 59 = 13868
    Number of faces shared with processor 62 = 6875
    Number of faces shared with processor 66 = 31250
    Number of processor patches = 6
    Number of processor faces = 97236
    Number of boundary faces = 7000

Processor 59
    Number of cells = 1737433
    Number of points = 1790046
    Number of faces shared with processor 51 = 31438
    Number of faces shared with processor 58 = 13868
    Number of faces shared with processor 63 = 6875
    Number of faces shared with processor 67 = 31250
    Number of processor patches = 4
    Number of processor faces = 83431
    Number of boundary faces = 20931

Processor 60
    Number of cells = 1745219
    Number of points = 1797894
    Number of faces shared with processor 52 = 31437
    Number of faces shared with processor 56 = 7000
    Number of faces shared with processor 61 = 13993
    Number of faces shared with processor 68 = 31250
    Number of processor patches = 4
    Number of processor faces = 83680
    Number of boundary faces = 20806

Processor 61
    Number of cells = 1749182
    Number of points = 1801864
    Number of faces shared with processor 53 = 31270
    Number of faces shared with processor 57 = 6944
    Number of faces shared with processor 60 = 13993
    Number of faces shared with processor 62 = 13972
    Number of faces shared with processor 65 = 2
    Number of faces shared with processor 69 = 31332
    Number of processor patches = 6
    Number of processor faces = 97513
    Number of boundary faces = 6987

Processor 62
    Number of cells = 1742594
    Number of points = 1795248
    Number of faces shared with processor 54 = 31250
    Number of faces shared with processor 58 = 6875
    Number of faces shared with processor 61 = 13972
    Number of faces shared with processor 63 = 13909
    Number of faces shared with processor 70 = 31437
    Number of faces shared with processor 71 = 1
    Number of processor patches = 6
    Number of processor faces = 97444
    Number of boundary faces = 7000

Processor 63
    Number of cells = 1734781
    Number of points = 1787372
    Number of faces shared with processor 55 = 31250
    Number of faces shared with processor 59 = 6875
    Number of faces shared with processor 62 = 13909
    Number of faces shared with processor 71 = 31437
    Number of processor patches = 4
    Number of processor faces = 83471
    Number of boundary faces = 20847

Processor 64
    Number of cells = 1741719
    Number of points = 1794366
    Number of faces shared with processor 56 = 31437
    Number of faces shared with processor 65 = 13965
    Number of faces shared with processor 68 = 6875
    Number of processor patches = 3
    Number of processor faces = 52277
    Number of boundary faces = 52153

Processor 65
    Number of cells = 1748775
    Number of points = 1801457
    Number of faces shared with processor 57 = 31354
    Number of faces shared with processor 61 = 2
    Number of faces shared with processor 64 = 13965
    Number of faces shared with processor 66 = 14000
    Number of faces shared with processor 69 = 6929
    Number of processor patches = 5
    Number of processor faces = 66250
    Number of boundary faces = 38250

Processor 66
    Number of cells = 1750000
    Number of points = 1802682
    Number of faces shared with processor 58 = 31250
    Number of faces shared with processor 65 = 14000
    Number of faces shared with processor 67 = 14000
    Number of faces shared with processor 70 = 7000
    Number of processor patches = 4
    Number of processor faces = 66250
    Number of boundary faces = 38250

Processor 67
    Number of cells = 1750000
    Number of points = 1802682
    Number of faces shared with processor 59 = 31250
    Number of faces shared with processor 66 = 14000
    Number of faces shared with processor 71 = 7000
    Number of processor patches = 3
    Number of processor faces = 52250
    Number of boundary faces = 52250

Processor 68
    Number of cells = 1718750
    Number of points = 1771056
    Number of faces shared with processor 60 = 31250
    Number of faces shared with processor 64 = 6875
    Number of faces shared with processor 69 = 13750
    Number of processor patches = 3
    Number of processor faces = 51875
    Number of boundary faces = 51875

Processor 69
    Number of cells = 1719519
    Number of points = 1771908
    Number of faces shared with processor 61 = 31332
    Number of faces shared with processor 65 = 6929
    Number of faces shared with processor 68 = 13750
    Number of faces shared with processor 70 = 13778
    Number of processor patches = 4
    Number of processor faces = 65789
    Number of boundary faces = 38125

Processor 70
    Number of cells = 1726156
    Number of points = 1778678
    Number of faces shared with processor 62 = 31437
    Number of faces shared with processor 66 = 7000
    Number of faces shared with processor 69 = 13778
    Number of faces shared with processor 71 = 13840
    Number of processor patches = 4
    Number of processor faces = 66055
    Number of boundary faces = 38125

Processor 71
    Number of cells = 1733969
    Number of points = 1786554
    Number of faces shared with processor 62 = 1
    Number of faces shared with processor 63 = 31437
    Number of faces shared with processor 67 = 7000
    Number of faces shared with processor 70 = 13840
    Number of processor patches = 4
    Number of processor faces = 52278
    Number of boundary faces = 52028

Number of processor faces = 3005972
Max number of cells = 1750000 (0.8% above average 1.73611e+06)
Max number of processor patches = 6 (27.0588% above average 4.72222)
Max number of faces between processors = 97610 (16.8993% above average 83499.2)

Time = 0

Processor 0: field transfer
--> FOAM Warning : 
    From void* Foam::dlLibraryTable::openLibrary(const Foam::fileName&, bool)
    in file db/dynamicLibrary/dlLibraryTable/dlLibraryTable.C at line 188
    Could not load "libpetscFoam.so"
libpetscFoam.so: cannot open shared object file: No such file or directory
Processor 1: field transfer
--> FOAM Warning : 
    From void* Foam::dlLibraryTable::openLibrary(const Foam::fileName&, bool)
    in file db/dynamicLibrary/dlLibraryTable/dlLibraryTable.C at line 188
    Could not load "libpetscFoam.so"
libpetscFoam.so: cannot open shared object file: No such file or directory
Processor 2: field transfer
--> FOAM Warning : 
    From void* Foam::dlLibraryTable::openLibrary(const Foam::fileName&, bool)
    in file db/dynamicLibrary/dlLibraryTable/dlLibraryTable.C at line 188
    Could not load "libpetscFoam.so"
libpetscFoam.so: cannot open shared object file: No such file or directory
Processor 3: field transfer
--> FOAM Warning : 
    From void* Foam::dlLibraryTable::openLibrary(const Foam::fileName&, bool)
    in file db/dynamicLibrary/dlLibraryTable/dlLibraryTable.C at line 188
    Could not load "libpetscFoam.so"
libpetscFoam.so: cannot open shared object file: No such file or directory
Processor 4: field transfer
--> FOAM Warning : 
    From void* Foam::dlLibraryTable::openLibrary(const Foam::fileName&, bool)
    in file db/dynamicLibrary/dlLibraryTable/dlLibraryTable.C at line 188
    Could not load "libpetscFoam.so"
libpetscFoam.so: cannot open shared object file: No such file or directory
Processor 5: field transfer
--> FOAM Warning : 
    From void* Foam::dlLibraryTable::openLibrary(const Foam::fileName&, bool)
    in file db/dynamicLibrary/dlLibraryTable/dlLibraryTable.C at line 188
    Could not load "libpetscFoam.so"
libpetscFoam.so: cannot open shared object file: No such file or directory
Processor 6: field transfer
--> FOAM Warning : 
    From void* Foam::dlLibraryTable::openLibrary(const Foam::fileName&, bool)
    in file db/dynamicLibrary/dlLibraryTable/dlLibraryTable.C at line 188
    Could not load "libpetscFoam.so"
libpetscFoam.so: cannot open shared object file: No such file or directory
Processor 7: field transfer
--> FOAM Warning : 
    From void* Foam::dlLibraryTable::openLibrary(const Foam::fileName&, bool)
    in file db/dynamicLibrary/dlLibraryTable/dlLibraryTable.C at line 188
    Could not load "libpetscFoam.so"
libpetscFoam.so: cannot open shared object file: No such file or directory
Processor 8: field transfer
--> FOAM Warning : 
    From void* Foam::dlLibraryTable::openLibrary(const Foam::fileName&, bool)
    in file db/dynamicLibrary/dlLibraryTable/dlLibraryTable.C at line 188
    Could not load "libpetscFoam.so"
libpetscFoam.so: cannot open shared object file: No such file or directory
Processor 9: field transfer
--> FOAM Warning : 
    From void* Foam::dlLibraryTable::openLibrary(const Foam::fileName&, bool)
    in file db/dynamicLibrary/dlLibraryTable/dlLibraryTable.C at line 188
    Could not load "libpetscFoam.so"
libpetscFoam.so: cannot open shared object file: No such file or directory
Processor 10: field transfer
--> FOAM Warning : 
    From void* Foam::dlLibraryTable::openLibrary(const Foam::fileName&, bool)
    in file db/dynamicLibrary/dlLibraryTable/dlLibraryTable.C at line 188
    Could not load "libpetscFoam.so"
libpetscFoam.so: cannot open shared object file: No such file or directory
Processor 11: field transfer
--> FOAM Warning : 
    From void* Foam::dlLibraryTable::openLibrary(const Foam::fileName&, bool)
    in file db/dynamicLibrary/dlLibraryTable/dlLibraryTable.C at line 188
    Could not load "libpetscFoam.so"
libpetscFoam.so: cannot open shared object file: No such file or directory
Processor 12: field transfer
--> FOAM Warning : 
    From void* Foam::dlLibraryTable::openLibrary(const Foam::fileName&, bool)
    in file db/dynamicLibrary/dlLibraryTable/dlLibraryTable.C at line 188
    Could not load "libpetscFoam.so"
libpetscFoam.so: cannot open shared object file: No such file or directory
Processor 13: field transfer
--> FOAM Warning : 
    From void* Foam::dlLibraryTable::openLibrary(const Foam::fileName&, bool)
    in file db/dynamicLibrary/dlLibraryTable/dlLibraryTable.C at line 188
    Could not load "libpetscFoam.so"
libpetscFoam.so: cannot open shared object file: No such file or directory
Processor 14: field transfer
--> FOAM Warning : 
    From void* Foam::dlLibraryTable::openLibrary(const Foam::fileName&, bool)
    in file db/dynamicLibrary/dlLibraryTable/dlLibraryTable.C at line 188
    Could not load "libpetscFoam.so"
libpetscFoam.so: cannot open shared object file: No such file or directory
Processor 15: field transfer
--> FOAM Warning : 
    From void* Foam::dlLibraryTable::openLibrary(const Foam::fileName&, bool)
    in file db/dynamicLibrary/dlLibraryTable/dlLibraryTable.C at line 188
    Could not load "libpetscFoam.so"
libpetscFoam.so: cannot open shared object file: No such file or directory
Processor 16: field transfer
--> FOAM Warning : 
    From void* Foam::dlLibraryTable::openLibrary(const Foam::fileName&, bool)
    in file db/dynamicLibrary/dlLibraryTable/dlLibraryTable.C at line 188
    Could not load "libpetscFoam.so"
libpetscFoam.so: cannot open shared object file: No such file or directory
Processor 17: field transfer
--> FOAM Warning : 
    From void* Foam::dlLibraryTable::openLibrary(const Foam::fileName&, bool)
    in file db/dynamicLibrary/dlLibraryTable/dlLibraryTable.C at line 188
    Could not load "libpetscFoam.so"
libpetscFoam.so: cannot open shared object file: No such file or directory
Processor 18: field transfer
--> FOAM Warning : 
    From void* Foam::dlLibraryTable::openLibrary(const Foam::fileName&, bool)
    in file db/dynamicLibrary/dlLibraryTable/dlLibraryTable.C at line 188
    Could not load "libpetscFoam.so"
libpetscFoam.so: cannot open shared object file: No such file or directory
Processor 19: field transfer
--> FOAM Warning : 
    From void* Foam::dlLibraryTable::openLibrary(const Foam::fileName&, bool)
    in file db/dynamicLibrary/dlLibraryTable/dlLibraryTable.C at line 188
    Could not load "libpetscFoam.so"
libpetscFoam.so: cannot open shared object file: No such file or directory
Processor 20: field transfer
--> FOAM Warning : 
    From void* Foam::dlLibraryTable::openLibrary(const Foam::fileName&, bool)
    in file db/dynamicLibrary/dlLibraryTable/dlLibraryTable.C at line 188
    Could not load "libpetscFoam.so"
libpetscFoam.so: cannot open shared object file: No such file or directory
Processor 21: field transfer
--> FOAM Warning : 
    From void* Foam::dlLibraryTable::openLibrary(const Foam::fileName&, bool)
    in file db/dynamicLibrary/dlLibraryTable/dlLibraryTable.C at line 188
    Could not load "libpetscFoam.so"
libpetscFoam.so: cannot open shared object file: No such file or directory
Processor 22: field transfer
--> FOAM Warning : 
    From void* Foam::dlLibraryTable::openLibrary(const Foam::fileName&, bool)
    in file db/dynamicLibrary/dlLibraryTable/dlLibraryTable.C at line 188
    Could not load "libpetscFoam.so"
libpetscFoam.so: cannot open shared object file: No such file or directory
Processor 23: field transfer
--> FOAM Warning : 
    From void* Foam::dlLibraryTable::openLibrary(const Foam::fileName&, bool)
    in file db/dynamicLibrary/dlLibraryTable/dlLibraryTable.C at line 188
    Could not load "libpetscFoam.so"
libpetscFoam.so: cannot open shared object file: No such file or directory
Processor 24: field transfer
--> FOAM Warning : 
    From void* Foam::dlLibraryTable::openLibrary(const Foam::fileName&, bool)
    in file db/dynamicLibrary/dlLibraryTable/dlLibraryTable.C at line 188
    Could not load "libpetscFoam.so"
libpetscFoam.so: cannot open shared object file: No such file or directory
Processor 25: field transfer
--> FOAM Warning : 
    From void* Foam::dlLibraryTable::openLibrary(const Foam::fileName&, bool)
    in file db/dynamicLibrary/dlLibraryTable/dlLibraryTable.C at line 188
    Could not load "libpetscFoam.so"
libpetscFoam.so: cannot open shared object file: No such file or directory
Processor 26: field transfer
--> FOAM Warning : 
    From void* Foam::dlLibraryTable::openLibrary(const Foam::fileName&, bool)
    in file db/dynamicLibrary/dlLibraryTable/dlLibraryTable.C at line 188
    Could not load "libpetscFoam.so"
libpetscFoam.so: cannot open shared object file: No such file or directory
Processor 27: field transfer
--> FOAM Warning : 
    From void* Foam::dlLibraryTable::openLibrary(const Foam::fileName&, bool)
    in file db/dynamicLibrary/dlLibraryTable/dlLibraryTable.C at line 188
    Could not load "libpetscFoam.so"
libpetscFoam.so: cannot open shared object file: No such file or directory
Processor 28: field transfer
--> FOAM Warning : 
    From void* Foam::dlLibraryTable::openLibrary(const Foam::fileName&, bool)
    in file db/dynamicLibrary/dlLibraryTable/dlLibraryTable.C at line 188
    Could not load "libpetscFoam.so"
libpetscFoam.so: cannot open shared object file: No such file or directory
Processor 29: field transfer
--> FOAM Warning : 
    From void* Foam::dlLibraryTable::openLibrary(const Foam::fileName&, bool)
    in file db/dynamicLibrary/dlLibraryTable/dlLibraryTable.C at line 188
    Could not load "libpetscFoam.so"
libpetscFoam.so: cannot open shared object file: No such file or directory
Processor 30: field transfer
--> FOAM Warning : 
    From void* Foam::dlLibraryTable::openLibrary(const Foam::fileName&, bool)
    in file db/dynamicLibrary/dlLibraryTable/dlLibraryTable.C at line 188
    Could not load "libpetscFoam.so"
libpetscFoam.so: cannot open shared object file: No such file or directory
Processor 31: field transfer
--> FOAM Warning : 
    From void* Foam::dlLibraryTable::openLibrary(const Foam::fileName&, bool)
    in file db/dynamicLibrary/dlLibraryTable/dlLibraryTable.C at line 188
    Could not load "libpetscFoam.so"
libpetscFoam.so: cannot open shared object file: No such file or directory
Processor 32: field transfer
--> FOAM Warning : 
    From void* Foam::dlLibraryTable::openLibrary(const Foam::fileName&, bool)
    in file db/dynamicLibrary/dlLibraryTable/dlLibraryTable.C at line 188
    Could not load "libpetscFoam.so"
libpetscFoam.so: cannot open shared object file: No such file or directory
Processor 33: field transfer
--> FOAM Warning : 
    From void* Foam::dlLibraryTable::openLibrary(const Foam::fileName&, bool)
    in file db/dynamicLibrary/dlLibraryTable/dlLibraryTable.C at line 188
    Could not load "libpetscFoam.so"
libpetscFoam.so: cannot open shared object file: No such file or directory
Processor 34: field transfer
--> FOAM Warning : 
    From void* Foam::dlLibraryTable::openLibrary(const Foam::fileName&, bool)
    in file db/dynamicLibrary/dlLibraryTable/dlLibraryTable.C at line 188
    Could not load "libpetscFoam.so"
libpetscFoam.so: cannot open shared object file: No such file or directory
Processor 35: field transfer
--> FOAM Warning : 
    From void* Foam::dlLibraryTable::openLibrary(const Foam::fileName&, bool)
    in file db/dynamicLibrary/dlLibraryTable/dlLibraryTable.C at line 188
    Could not load "libpetscFoam.so"
libpetscFoam.so: cannot open shared object file: No such file or directory
Processor 36: field transfer
--> FOAM Warning : 
    From void* Foam::dlLibraryTable::openLibrary(const Foam::fileName&, bool)
    in file db/dynamicLibrary/dlLibraryTable/dlLibraryTable.C at line 188
    Could not load "libpetscFoam.so"
libpetscFoam.so: cannot open shared object file: No such file or directory
Processor 37: field transfer
--> FOAM Warning : 
    From void* Foam::dlLibraryTable::openLibrary(const Foam::fileName&, bool)
    in file db/dynamicLibrary/dlLibraryTable/dlLibraryTable.C at line 188
    Could not load "libpetscFoam.so"
libpetscFoam.so: cannot open shared object file: No such file or directory
Processor 38: field transfer
--> FOAM Warning : 
    From void* Foam::dlLibraryTable::openLibrary(const Foam::fileName&, bool)
    in file db/dynamicLibrary/dlLibraryTable/dlLibraryTable.C at line 188
    Could not load "libpetscFoam.so"
libpetscFoam.so: cannot open shared object file: No such file or directory
Processor 39: field transfer
--> FOAM Warning : 
    From void* Foam::dlLibraryTable::openLibrary(const Foam::fileName&, bool)
    in file db/dynamicLibrary/dlLibraryTable/dlLibraryTable.C at line 188
    Could not load "libpetscFoam.so"
libpetscFoam.so: cannot open shared object file: No such file or directory
Processor 40: field transfer
--> FOAM Warning : 
    From void* Foam::dlLibraryTable::openLibrary(const Foam::fileName&, bool)
    in file db/dynamicLibrary/dlLibraryTable/dlLibraryTable.C at line 188
    Could not load "libpetscFoam.so"
libpetscFoam.so: cannot open shared object file: No such file or directory
Processor 41: field transfer
--> FOAM Warning : 
    From void* Foam::dlLibraryTable::openLibrary(const Foam::fileName&, bool)
    in file db/dynamicLibrary/dlLibraryTable/dlLibraryTable.C at line 188
    Could not load "libpetscFoam.so"
libpetscFoam.so: cannot open shared object file: No such file or directory
Processor 42: field transfer
--> FOAM Warning : 
    From void* Foam::dlLibraryTable::openLibrary(const Foam::fileName&, bool)
    in file db/dynamicLibrary/dlLibraryTable/dlLibraryTable.C at line 188
    Could not load "libpetscFoam.so"
libpetscFoam.so: cannot open shared object file: No such file or directory
Processor 43: field transfer
--> FOAM Warning : 
    From void* Foam::dlLibraryTable::openLibrary(const Foam::fileName&, bool)
    in file db/dynamicLibrary/dlLibraryTable/dlLibraryTable.C at line 188
    Could not load "libpetscFoam.so"
libpetscFoam.so: cannot open shared object file: No such file or directory
Processor 44: field transfer
--> FOAM Warning : 
    From void* Foam::dlLibraryTable::openLibrary(const Foam::fileName&, bool)
    in file db/dynamicLibrary/dlLibraryTable/dlLibraryTable.C at line 188
    Could not load "libpetscFoam.so"
libpetscFoam.so: cannot open shared object file: No such file or directory
Processor 45: field transfer
--> FOAM Warning : 
    From void* Foam::dlLibraryTable::openLibrary(const Foam::fileName&, bool)
    in file db/dynamicLibrary/dlLibraryTable/dlLibraryTable.C at line 188
    Could not load "libpetscFoam.so"
libpetscFoam.so: cannot open shared object file: No such file or directory
Processor 46: field transfer
--> FOAM Warning : 
    From void* Foam::dlLibraryTable::openLibrary(const Foam::fileName&, bool)
    in file db/dynamicLibrary/dlLibraryTable/dlLibraryTable.C at line 188
    Could not load "libpetscFoam.so"
libpetscFoam.so: cannot open shared object file: No such file or directory
Processor 47: field transfer
--> FOAM Warning : 
    From void* Foam::dlLibraryTable::openLibrary(const Foam::fileName&, bool)
    in file db/dynamicLibrary/dlLibraryTable/dlLibraryTable.C at line 188
    Could not load "libpetscFoam.so"
libpetscFoam.so: cannot open shared object file: No such file or directory
Processor 48: field transfer
--> FOAM Warning : 
    From void* Foam::dlLibraryTable::openLibrary(const Foam::fileName&, bool)
    in file db/dynamicLibrary/dlLibraryTable/dlLibraryTable.C at line 188
    Could not load "libpetscFoam.so"
libpetscFoam.so: cannot open shared object file: No such file or directory
Processor 49: field transfer
--> FOAM Warning : 
    From void* Foam::dlLibraryTable::openLibrary(const Foam::fileName&, bool)
    in file db/dynamicLibrary/dlLibraryTable/dlLibraryTable.C at line 188
    Could not load "libpetscFoam.so"
libpetscFoam.so: cannot open shared object file: No such file or directory
Processor 50: field transfer
--> FOAM Warning : 
    From void* Foam::dlLibraryTable::openLibrary(const Foam::fileName&, bool)
    in file db/dynamicLibrary/dlLibraryTable/dlLibraryTable.C at line 188
    Could not load "libpetscFoam.so"
libpetscFoam.so: cannot open shared object file: No such file or directory
Processor 51: field transfer
--> FOAM Warning : 
    From void* Foam::dlLibraryTable::openLibrary(const Foam::fileName&, bool)
    in file db/dynamicLibrary/dlLibraryTable/dlLibraryTable.C at line 188
    Could not load "libpetscFoam.so"
libpetscFoam.so: cannot open shared object file: No such file or directory
Processor 52: field transfer
--> FOAM Warning : 
    From void* Foam::dlLibraryTable::openLibrary(const Foam::fileName&, bool)
    in file db/dynamicLibrary/dlLibraryTable/dlLibraryTable.C at line 188
    Could not load "libpetscFoam.so"
libpetscFoam.so: cannot open shared object file: No such file or directory
Processor 53: field transfer
--> FOAM Warning : 
    From void* Foam::dlLibraryTable::openLibrary(const Foam::fileName&, bool)
    in file db/dynamicLibrary/dlLibraryTable/dlLibraryTable.C at line 188
    Could not load "libpetscFoam.so"
libpetscFoam.so: cannot open shared object file: No such file or directory
Processor 54: field transfer
--> FOAM Warning : 
    From void* Foam::dlLibraryTable::openLibrary(const Foam::fileName&, bool)
    in file db/dynamicLibrary/dlLibraryTable/dlLibraryTable.C at line 188
    Could not load "libpetscFoam.so"
libpetscFoam.so: cannot open shared object file: No such file or directory
Processor 55: field transfer
--> FOAM Warning : 
    From void* Foam::dlLibraryTable::openLibrary(const Foam::fileName&, bool)
    in file db/dynamicLibrary/dlLibraryTable/dlLibraryTable.C at line 188
    Could not load "libpetscFoam.so"
libpetscFoam.so: cannot open shared object file: No such file or directory
Processor 56: field transfer
--> FOAM Warning : 
    From void* Foam::dlLibraryTable::openLibrary(const Foam::fileName&, bool)
    in file db/dynamicLibrary/dlLibraryTable/dlLibraryTable.C at line 188
    Could not load "libpetscFoam.so"
libpetscFoam.so: cannot open shared object file: No such file or directory
Processor 57: field transfer
--> FOAM Warning : 
    From void* Foam::dlLibraryTable::openLibrary(const Foam::fileName&, bool)
    in file db/dynamicLibrary/dlLibraryTable/dlLibraryTable.C at line 188
    Could not load "libpetscFoam.so"
libpetscFoam.so: cannot open shared object file: No such file or directory
Processor 58: field transfer
--> FOAM Warning : 
    From void* Foam::dlLibraryTable::openLibrary(const Foam::fileName&, bool)
    in file db/dynamicLibrary/dlLibraryTable/dlLibraryTable.C at line 188
    Could not load "libpetscFoam.so"
libpetscFoam.so: cannot open shared object file: No such file or directory
Processor 59: field transfer
--> FOAM Warning : 
    From void* Foam::dlLibraryTable::openLibrary(const Foam::fileName&, bool)
    in file db/dynamicLibrary/dlLibraryTable/dlLibraryTable.C at line 188
    Could not load "libpetscFoam.so"
libpetscFoam.so: cannot open shared object file: No such file or directory
Processor 60: field transfer
--> FOAM Warning : 
    From void* Foam::dlLibraryTable::openLibrary(const Foam::fileName&, bool)
    in file db/dynamicLibrary/dlLibraryTable/dlLibraryTable.C at line 188
    Could not load "libpetscFoam.so"
libpetscFoam.so: cannot open shared object file: No such file or directory
Processor 61: field transfer
--> FOAM Warning : 
    From void* Foam::dlLibraryTable::openLibrary(const Foam::fileName&, bool)
    in file db/dynamicLibrary/dlLibraryTable/dlLibraryTable.C at line 188
    Could not load "libpetscFoam.so"
libpetscFoam.so: cannot open shared object file: No such file or directory
Processor 62: field transfer
--> FOAM Warning : 
    From void* Foam::dlLibraryTable::openLibrary(const Foam::fileName&, bool)
    in file db/dynamicLibrary/dlLibraryTable/dlLibraryTable.C at line 188
    Could not load "libpetscFoam.so"
libpetscFoam.so: cannot open shared object file: No such file or directory
Processor 63: field transfer
--> FOAM Warning : 
    From void* Foam::dlLibraryTable::openLibrary(const Foam::fileName&, bool)
    in file db/dynamicLibrary/dlLibraryTable/dlLibraryTable.C at line 188
    Could not load "libpetscFoam.so"
libpetscFoam.so: cannot open shared object file: No such file or directory
Processor 64: field transfer
--> FOAM Warning : 
    From void* Foam::dlLibraryTable::openLibrary(const Foam::fileName&, bool)
    in file db/dynamicLibrary/dlLibraryTable/dlLibraryTable.C at line 188
    Could not load "libpetscFoam.so"
libpetscFoam.so: cannot open shared object file: No such file or directory
Processor 65: field transfer
--> FOAM Warning : 
    From void* Foam::dlLibraryTable::openLibrary(const Foam::fileName&, bool)
    in file db/dynamicLibrary/dlLibraryTable/dlLibraryTable.C at line 188
    Could not load "libpetscFoam.so"
libpetscFoam.so: cannot open shared object file: No such file or directory
Processor 66: field transfer
--> FOAM Warning : 
    From void* Foam::dlLibraryTable::openLibrary(const Foam::fileName&, bool)
    in file db/dynamicLibrary/dlLibraryTable/dlLibraryTable.C at line 188
    Could not load "libpetscFoam.so"
libpetscFoam.so: cannot open shared object file: No such file or directory
Processor 67: field transfer
--> FOAM Warning : 
    From void* Foam::dlLibraryTable::openLibrary(const Foam::fileName&, bool)
    in file db/dynamicLibrary/dlLibraryTable/dlLibraryTable.C at line 188
    Could not load "libpetscFoam.so"
libpetscFoam.so: cannot open shared object file: No such file or directory
Processor 68: field transfer
--> FOAM Warning : 
    From void* Foam::dlLibraryTable::openLibrary(const Foam::fileName&, bool)
    in file db/dynamicLibrary/dlLibraryTable/dlLibraryTable.C at line 188
    Could not load "libpetscFoam.so"
libpetscFoam.so: cannot open shared object file: No such file or directory
Processor 69: field transfer
--> FOAM Warning : 
    From void* Foam::dlLibraryTable::openLibrary(const Foam::fileName&, bool)
    in file db/dynamicLibrary/dlLibraryTable/dlLibraryTable.C at line 188
    Could not load "libpetscFoam.so"
libpetscFoam.so: cannot open shared object file: No such file or directory
Processor 70: field transfer
--> FOAM Warning : 
    From void* Foam::dlLibraryTable::openLibrary(const Foam::fileName&, bool)
    in file db/dynamicLibrary/dlLibraryTable/dlLibraryTable.C at line 188
    Could not load "libpetscFoam.so"
libpetscFoam.so: cannot open shared object file: No such file or directory
Processor 71: field transfer
--> FOAM Warning : 
    From void* Foam::dlLibraryTable::openLibrary(const Foam::fileName&, bool)
    in file db/dynamicLibrary/dlLibraryTable/dlLibraryTable.C at line 188
    Could not load "libpetscFoam.so"
libpetscFoam.so: cannot open shared object file: No such file or directory

End

