/*---------------------------------------------------------------------------*\
| =========                 |                                                 |
| \\      /  F ield         | OpenFOAM: The Open Source CFD Toolbox           |
|  \\    /   O peration     | Version:  2306                                  |
|   \\  /    A nd           | Website:  www.openfoam.com                      |
|    \\/     M anipulation  |                                                 |
\*---------------------------------------------------------------------------*/
Build  : a6e826bd55-20230630 OPENFOAM=2306 version=v2306
Arch   : "LSB;label=32;scalar=64"
Exec   : simpleFoam -parallel -case /home/greole/data/code/exasim_project/micro_benchmarks/WindsorBody/workspace/c590f61042684c4e9b806075eecaf717/case
Date   : Aug 27 2023
Time   : 08:37:23
Host   : nla-gpu2.ianm.kit.edu
PID    : 3051021
I/O    : uncollated
Case   : /home/greole/data/code/exasim_project/micro_benchmarks/WindsorBody/workspace/c590f61042684c4e9b806075eecaf717/case
nProcs : 8
Hosts  :
(
    (nla-gpu2.ianm.kit.edu 8)
)
Pstream initialized with:
    floatTransfer      : false
    nProcsSimpleSum    : 0
    nonBlockingExchange: 0 (tuning: 0)
    exchange algorithm : -1
    commsType          : nonBlocking
    polling iterations : 0
trapFpe: Floating point exception trapping enabled (FOAM_SIGFPE).
fileModificationChecking : Monitoring run-time modified files using timeStampMaster (fileModificationSkew 5, maxFileModificationPolls 20)
allowSystemOperations : Allowing user-supplied system call operations

// * * * * * * * * * * * * * * * * * * * * * * * * * * * * * * * * * * * * * //
Create time

--> FOAM Warning : 
    From void* Foam::dlLibraryTable::openLibrary(const Foam::fileName&, bool)
    in file db/dynamicLibrary/dlLibraryTable/dlLibraryTable.C at line 188
    Could not load "libpetscFoam.so"
libpetscFoam.so: cannot open shared object file: No such file or directory
Create mesh for time = 0


SIMPLE: convergence criteria
    field p	 tolerance 1e-08
    field U	 tolerance 1e-08
    field k	 tolerance 1e-08
    field omega	 tolerance 1e-08
    field nuTilda	 tolerance 1e-08

Reading field p

Reading field U

Reading/calculating face flux field phi

Selecting incompressible transport model Newtonian
Selecting turbulence model type RAS
Selecting RAS turbulence model SpalartAllmaras
Selecting patchDistMethod meshWave
ft2 term: inactive
RAS
{
    RASModel        SpalartAllmaras;
    turbulence      on;
    printCoeffs     on;
    sigmaNut        0.66666;
    kappa           0.41;
    Cb1             0.1355;
    Cb2             0.622;
    Cw2             0.3;
    Cw3             2;
    Cv1             7.1;
    Cs              0.3;
    ck              0.07000000000000001;
    ft2             false;
    Ct3             1.2;
    Ct4             0.5;
}

No MRF models present

Creating finite volume options from "system/fvOptions"

Selecting finite volume options type velocityDampingConstraint
    Source: velocityDamping
    - selecting all cells
    - selected 25228544 cell(s) with volume 111.3033220638994

Starting time loop

--> FOAM Warning : 
    From bool Foam::functionObjectList::read()
    in file db/functionObjects/functionObjectList/functionObjectList.C at line 1035
    Reading "system/controlDict" at line 2 to 41
    Entry 'lref' is not a dictionary
--> FOAM Warning : 
    From bool Foam::functionObjectList::read()
    in file db/functionObjects/functionObjectList/functionObjectList.C at line 1035
    Reading "system/controlDict" at line 2 to 41
    Entry 'Aref' is not a dictionary
--> FOAM Warning : 
    From bool Foam::functionObjectList::read()
    in file db/functionObjects/functionObjectList/functionObjectList.C at line 1035
    Reading "system/controlDict" at line 2 to 41
    Entry 'yawAngle' is not a dictionary
--> FOAM Warning : 
    From bool Foam::functionObjectList::read()
    in file db/functionObjects/functionObjectList/functionObjectList.C at line 1035
    Reading "system/controlDict" at line 2 to 41
    Entry 'lDomain' is not a dictionary
--> FOAM Warning : 
    From bool Foam::functionObjectList::read()
    in file db/functionObjects/functionObjectList/functionObjectList.C at line 1035
    Reading "system/controlDict" at line 2 to 41
    Entry 'bDomain' is not a dictionary
--> FOAM Warning : 
    From bool Foam::functionObjectList::read()
    in file db/functionObjects/functionObjectList/functionObjectList.C at line 1035
    Reading "system/controlDict" at line 2 to 41
    Entry 'hDomain' is not a dictionary
--> FOAM Warning : 
    From bool Foam::functionObjectList::read()
    in file db/functionObjects/functionObjectList/functionObjectList.C at line 1035
    Reading "system/controlDict" at line 2 to 41
    Entry 'xCenter' is not a dictionary
--> FOAM Warning : 
    From bool Foam::functionObjectList::read()
    in file db/functionObjects/functionObjectList/functionObjectList.C at line 1035
    Reading "system/controlDict" at line 2 to 41
    Entry 'yCenter' is not a dictionary
--> FOAM Warning : 
    From bool Foam::functionObjectList::read()
    in file db/functionObjects/functionObjectList/functionObjectList.C at line 1035
    Reading "system/controlDict" at line 2 to 41
    Entry 'zCenter' is not a dictionary
--> FOAM Warning : 
    From bool Foam::functionObjectList::read()
    in file db/functionObjects/functionObjectList/functionObjectList.C at line 1035
    Reading "system/controlDict" at line 2 to 41
    Entry 'inletPatch' is not a dictionary
--> FOAM Warning : 
    From bool Foam::functionObjectList::read()
    in file db/functionObjects/functionObjectList/functionObjectList.C at line 1035
    Reading "system/controlDict" at line 2 to 41
    Entry 'outletPatch' is not a dictionary
--> FOAM Warning : 
    From bool Foam::functionObjectList::read()
    in file db/functionObjects/functionObjectList/functionObjectList.C at line 1035
    Reading "system/controlDict" at line 2 to 41
    Entry 'wallPatches' is not a dictionary
--> FOAM Warning : 
    From bool Foam::functionObjectList::read()
    in file db/functionObjects/functionObjectList/functionObjectList.C at line 1035
    Reading "system/controlDict" at line 2 to 41
    Entry 'forcesWallPatches' is not a dictionary
--> FOAM Warning : 
    From bool Foam::functionObjectList::read()
    in file db/functionObjects/functionObjectList/functionObjectList.C at line 1035
    Reading "system/controlDict" at line 2 to 41
    Entry 'symmPatches' is not a dictionary
--> FOAM Warning : 
    From bool Foam::functionObjectList::read()
    in file db/functionObjects/functionObjectList/functionObjectList.C at line 1035
    Reading "system/controlDict" at line 2 to 41
    Entry 'Uinf' is not a dictionary
--> FOAM Warning : 
    From bool Foam::functionObjectList::read()
    in file db/functionObjects/functionObjectList/functionObjectList.C at line 1035
    Reading "system/controlDict" at line 2 to 41
    Entry 'UinfMag' is not a dictionary
--> FOAM Warning : 
    From bool Foam::functionObjectList::read()
    in file db/functionObjects/functionObjectList/functionObjectList.C at line 1035
    Reading "system/controlDict" at line 2 to 41
    Entry 'nu' is not a dictionary
--> FOAM Warning : 
    From bool Foam::functionObjectList::read()
    in file db/functionObjects/functionObjectList/functionObjectList.C at line 1035
    Reading "system/controlDict" at line 2 to 41
    Entry 'pref' is not a dictionary
--> FOAM Warning : 
    From bool Foam::functionObjectList::read()
    in file db/functionObjects/functionObjectList/functionObjectList.C at line 1035
    Reading "system/controlDict" at line 2 to 41
    Entry 'viscRatio' is not a dictionary
--> FOAM Warning : 
    From bool Foam::functionObjectList::read()
    in file db/functionObjects/functionObjectList/functionObjectList.C at line 1035
    Reading "system/controlDict" at line 2 to 41
    Entry 'Tu' is not a dictionary
--> FOAM Warning : 
    From bool Foam::functionObjectList::read()
    in file db/functionObjects/functionObjectList/functionObjectList.C at line 1035
    Reading "system/controlDict" at line 2 to 41
    Entry 'LESturbModel' is not a dictionary
--> FOAM Warning : 
    From bool Foam::functionObjectList::read()
    in file db/functionObjects/functionObjectList/functionObjectList.C at line 1035
    Reading "system/controlDict" at line 2 to 41
    Entry 'RASturbModel' is not a dictionary
--> FOAM Warning : 
    From bool Foam::functionObjectList::read()
    in file db/functionObjects/functionObjectList/functionObjectList.C at line 1035
    Reading "system/controlDict" at line 2 to 41
    Entry 'deltaTurb' is not a dictionary
--> FOAM Warning : 
    From bool Foam::functionObjectList::read()
    in file db/functionObjects/functionObjectList/functionObjectList.C at line 1035
    Reading "system/controlDict" at line 2 to 41
    Entry 'dt' is not a dictionary
--> FOAM Warning : 
    From bool Foam::functionObjectList::read()
    in file db/functionObjects/functionObjectList/functionObjectList.C at line 1035
    Reading "system/controlDict" at line 2 to 41
    Entry 'tAvg' is not a dictionary
--> FOAM Warning : 
    From bool Foam::functionObjectList::read()
    in file db/functionObjects/functionObjectList/functionObjectList.C at line 1035
    Reading "system/controlDict" at line 2 to 41
    Entry 'tEnd' is not a dictionary
--> FOAM Warning : 
    From bool Foam::functionObjectList::read()
    in file db/functionObjects/functionObjectList/functionObjectList.C at line 1035
    Reading "system/controlDict" at line 2 to 41
    Entry 'writeInterval_' is not a dictionary
--> FOAM Warning : 
    From bool Foam::functionObjectList::read()
    in file db/functionObjects/functionObjectList/functionObjectList.C at line 1035
    Reading "system/controlDict" at line 2 to 41
    Entry 'nCores' is not a dictionary
--> FOAM Warning : 
    From bool Foam::functionObjectList::read()
    in file db/functionObjects/functionObjectList/functionObjectList.C at line 1035
    Reading "system/controlDict" at line 2 to 41
    Entry 'interpScheme' is not a dictionary
--> FOAM Warning : 
    From bool Foam::functionObjectList::read()
    in file db/functionObjects/functionObjectList/functionObjectList.C at line 1035
    Reading "system/controlDict" at line 2 to 41
    Entry 'probeField' is not a dictionary
wallShearStress wallShearStress:
    processing wall patches: 
        Windsor_Body
        CFDWT_Floor
        Windsor_Pins
        Windsor_Base
        Windsor_Body_2
        CFDWT_Floor_2
        Windsor_Pins_2
        Windsor_Base_2
        Windsor_Body_3
        CFDWT_Floor_3
        Windsor_Pins_3
        Windsor_Base_3
        Windsor_Body_4
        CFDWT_Floor_4
        Windsor_Pins_4
        Windsor_Base_4

pressure calc_cp:
    Operating mode: staticCoeff
    Not including hydrostatic effects

forceCoeffs forceCoeffsAll:
    rho: rhoInf
    Freestream density (rhoInf) set to 1
    Not including porosity effects
    magUInf: 40
    lRef   : 0.6375
    Aref   : 0.1124
    rhoInf : 1
    Selecting all coefficients
    - Drag force: Cd
    - Drag force front: Cd(f)
    - Drag force rear: Cd(r)
    - Lift force: Cl
    - Lift force front: Cl(f)
    - Lift force rear: Cl(r)
    - Pitch moment: CmPitch
    - Roll moment: CmRoll
    - Yaw moment: CmYaw
    - Side force: Cs
    - Side force front: Cs(f)
    - Side force rear: Cs(r)


forceCoeffs dragCoeffBase:
    rho: rhoInf
    Freestream density (rhoInf) set to 1
    Not including porosity effects
    magUInf: 40
    lRef   : 0.6375
    Aref   : 0.1124
    rhoInf : 1
    Selecting coefficients:
    - Drag force: Cd


Time = 1

velocityDampingConstraint velocityDamping damped 0 (0%) of cells, with max limit 300
[INFO] MatrixAssemblyU: 3378.708 [ms]
smoothSolver:  Solving for Ux, Initial residual = 0.9999999999996109, Final residual = 0.08731557002068803, No Iterations 15
smoothSolver:  Solving for Uy, Initial residual = 1, Final residual = 0.08968697005203881, No Iterations 31
smoothSolver:  Solving for Uz, Initial residual = 1, Final residual = 0.03285812342545615, No Iterations 2
[INFO] MomentumPredictor: 3233.83 [ms]
[INFO] MatrixAssemblyPI: 454.519 [ms]
[INFO] MatrixAssemblyPII: 228.169 [ms]
[OGL LOG][lduLduBase.H:119] Initialising OGL
	OGL commit:  4647ee1+
	Branch: PersistentDeviceIdGuard 
	Build type: Release
	Ginkgo version: 1.5.0 ( develop)
	Ginkgo commit: 4292ffdee
	MPI is GPU aware: 1
	Forces host buffer based communication: 0
	CPU ranks per GPU: 1
	Matrix format: Coo
	End OGL_INFO
[OGL LOG][Proc: 0]: global_index_init: 3.827 [ms]
[OGL LOG][Proc: 0]p_local_cols: call_init: 0.346 [ms]
[OGL LOG][Proc: 0]p_local_rows: call_init: 0.003 [ms]
[OGL LOG][Proc: 0]p_local_ldu_map: call_init: 0.208 [ms]
[OGL LOG][Proc: 0]p_local_coeffs: call_init: 0.03 [ms]
[OGL LOG][Proc: 0]p_non_local_cols: call_init: 0.133 [ms]
[OGL LOG][Proc: 0]p_non_local_rows: call_init: 0.118 [ms]
[OGL LOG][Proc: 0]p_non_local_ldu_map: call_init: 0.094 [ms]
[OGL LOG][Proc: 0]p_non_local_coeffs: call_init: 0.112 [ms]
[OGL LOG][Proc: 0]p: init_local_sparsity_pattern: 569.817 [ms]
[OGL LOG][Proc: 0]p: init_non_local_sparsity_pattern: 1.022 [ms]
[OGL LOG][Proc: 0]p: update_local_matrix_data: 57.184 [ms]
[OGL LOG][Proc: 0]p: update_non_local_matrix_data: 0.118 [ms]
[OGL LOG][Proc: 0]device_partition: call_init: 71.032 [ms]
[OGL LOG][Proc: 0]p_matrix: call_init: 172.73 [ms]
[OGL LOG][Proc: 0]p_rhs: call_init: 12.07 [ms]
[OGL LOG][Proc: 0]p_solution: call_init: 2.386 [ms]
[OGL LOG][Preconditioner.H:121] Generate preconditioner BJ MaxBlockSize 1
[OGL LOG][Proc: 0]p: init_precond: 4.671 [ms]
[OGL LOG][StoppingCriterion.H:373] Creating stopping criterion with minIter 0 frequency 1
[OGL LOG][Proc: 0]p: generate_solver: 0.016 [ms]
[OGL LOG][Proc: 0]p: solve: 3435.46 [ms]
[OGL LOG][Proc: 0]p: copy_x_back: 9.072000000000001 [ms]
[OGL LOG][lduLduBase.H:336] 
Statistics:
	Time per iteration: 2941 [mu s]
	Time per residual norm calculation: 1148.000000 [mu s]
	Time per iteration and DOF: 0.116574 [ns]
	Retrieve results bandwidth 2.784000 [GByte/s]
[OGL LOG][Proc: 0]p: solve_multi_gpu: 3708.726 [ms]
BJhipGKOCG:  Solving for p, Initial residual = 1.000000000001017, Final residual = 0.00990426403634167, No Iterations 1168
[INFO] SolveP: 4589.757 [ms]
time step continuity errors : sum local = 0.003633926394911859, global = 5.680667183256391e-05, cumulative = 5.680667183256391e-05
[INFO] postSolveP: 126.271 [ms]
smoothSolver:  Solving for nuTilda, Initial residual = 0.9999999962169371, Final residual = 0.06430024948912029, No Iterations 3
[INFO] TimeStep: 13970.333 [ms]
ExecutionTime = 57.7 s  ClockTime = 58 s

--> FOAM Warning : 
    From virtual bool Foam::functionObjects::fieldSelection::checkSelection()
    in file functionObjects/fieldSelections/fieldSelection/fieldSelection.C at line 166
    Field k not found
--> FOAM Warning : 
    From virtual bool Foam::functionObjects::fieldSelection::checkSelection()
    in file functionObjects/fieldSelections/fieldSelection/fieldSelection.C at line 166
    Field gammaInt not found
--> FOAM Warning : 
    From virtual bool Foam::functionObjects::fieldSelection::checkSelection()
    in file functionObjects/fieldSelections/fieldSelection/fieldSelection.C at line 166
    Field omega not found
--> FOAM Warning : 
    From virtual bool Foam::functionObjects::fieldSelection::checkSelection()
    in file functionObjects/fieldSelections/fieldSelection/fieldSelection.C at line 166
    Field ReThetat not found
--> FOAM Warning : 
    From virtual bool Foam::functionObjects::fieldSelection::checkSelection()
    in file functionObjects/fieldSelections/fieldSelection/fieldSelection.C at line 166
    Field epsilon not found
--> FOAM Warning : 
    From virtual bool Foam::functionObjects::solverFieldSelection::updateSelection()
    in file functionObjects/fieldSelections/solverFieldSelection/solverFieldSelection.C at line 85
    Valid solver fields are: 3(U nuTilda p)Time = 2

velocityDampingConstraint velocityDamping damped 0 (0%) of cells, with max limit 300
[INFO] MatrixAssemblyU: 3274.548 [ms]
smoothSolver:  Solving for Ux, Initial residual = 0.2130733014897324, Final residual = 0.01838397861085453, No Iterations 13
smoothSolver:  Solving for Uy, Initial residual = 0.3543966369334117, Final residual = 0.03302752155049329, No Iterations 13
smoothSolver:  Solving for Uz, Initial residual = 0.3287213462159635, Final residual = 0.02811795446005277, No Iterations 13
[INFO] MomentumPredictor: 2693.683 [ms]
[INFO] MatrixAssemblyPI: 455.919 [ms]
[INFO] MatrixAssemblyPII: 227.853 [ms]
[OGL LOG][Proc: 0]: global_index_init: 0.077 [ms]
[OGL LOG][Proc: 0]p_local_coeffs: call_update: 0.006 [ms]
[OGL LOG][Proc: 0]p_non_local_coeffs: call_update: 0 [ms]
[OGL LOG][Proc: 0]p: update_local_matrix_data: 57.959 [ms]
[OGL LOG][Proc: 0]p: update_non_local_matrix_data: 0.08600000000000001 [ms]
[OGL LOG][Proc: 0]p_matrix: call_update: 22.745 [ms]
[OGL LOG][Proc: 0]p_rhs: call_update: 5.416 [ms]
[OGL LOG][Preconditioner.H:121] Generate preconditioner BJ MaxBlockSize 1
[OGL LOG][Proc: 0]p: init_precond: 1.142 [ms]
[OGL LOG][StoppingCriterion.H:373] Creating stopping criterion with minIter 700 frequency 15
[OGL LOG][Proc: 0]p: generate_solver: 0.002 [ms]
[OGL LOG][Proc: 0]p: solve: 1571.317 [ms]
[OGL LOG][Proc: 0]p: copy_x_back: 8.901 [ms]
[OGL LOG][lduLduBase.H:336] 
Statistics:
	Time per iteration: 1635 [mu s]
	Time per residual norm calculation: 279.000000 [mu s]
	Time per iteration and DOF: 0.064808 [ns]
	Retrieve results bandwidth 2.837000 [GByte/s]
[OGL LOG][Proc: 0]p: solve_multi_gpu: 1610.895 [ms]
BJhipGKOCG:  Solving for p, Initial residual = 0.2098519753228374, Final residual = 0.001742708777035218, No Iterations 961
[INFO] SolveP: 1680.797 [ms]
time step continuity errors : sum local = 0.0357197498744549, global = 0.001681656747802939, cumulative = 0.001738463419635503
[INFO] postSolveP: 126.698 [ms]
smoothSolver:  Solving for nuTilda, Initial residual = 0.4060592886651786, Final residual = 0.02532350214254259, No Iterations 1
[INFO] TimeStep: 10363.849 [ms]
ExecutionTime = 70.90000000000001 s  ClockTime = 71 s

Time = 3

velocityDampingConstraint velocityDamping damped 3321 (0.01%) of cells, with max limit 300
[INFO] MatrixAssemblyU: 3436.232 [ms]
smoothSolver:  Solving for Ux, Initial residual = 0.1250308951682384, Final residual = 0.01169270939345802, No Iterations 9
smoothSolver:  Solving for Uy, Initial residual = 0.2045952396726099, Final residual = 0.01953889039399652, No Iterations 10
smoothSolver:  Solving for Uz, Initial residual = 0.2187244134850001, Final residual = 0.02129848450820501, No Iterations 9
[INFO] MomentumPredictor: 2042.989 [ms]
[INFO] MatrixAssemblyPI: 456.357 [ms]
[INFO] MatrixAssemblyPII: 227.534 [ms]
[OGL LOG][Proc: 0]: global_index_init: 0.068 [ms]
[OGL LOG][Proc: 0]p_local_coeffs: call_update: 0 [ms]
[OGL LOG][Proc: 0]p_non_local_coeffs: call_update: 0 [ms]
[OGL LOG][Proc: 0]p: update_local_matrix_data: 56.992 [ms]
[OGL LOG][Proc: 0]p: update_non_local_matrix_data: 0.095 [ms]
[OGL LOG][Proc: 0]p_matrix: call_update: 24.604 [ms]
[OGL LOG][Proc: 0]p_rhs: call_update: 5.65 [ms]
[OGL LOG][Preconditioner.H:121] Generate preconditioner BJ MaxBlockSize 1
[OGL LOG][Proc: 0]p: init_precond: 1.065 [ms]
[OGL LOG][StoppingCriterion.H:373] Creating stopping criterion with minIter 576 frequency 8
[OGL LOG][Proc: 0]p: generate_solver: 0.003 [ms]
[OGL LOG][Proc: 0]p: solve: 999.432 [ms]
[OGL LOG][Proc: 0]p: copy_x_back: 8.611000000000001 [ms]
[OGL LOG][lduLduBase.H:336] 
Statistics:
	Time per iteration: 1732 [mu s]
	Time per residual norm calculation: 336.000000 [mu s]
	Time per iteration and DOF: 0.068652 [ns]
	Retrieve results bandwidth 2.933000 [GByte/s]
[OGL LOG][Proc: 0]p: solve_multi_gpu: 1040.752 [ms]
BJhipGKOCG:  Solving for p, Initial residual = 0.1170211717753287, Final residual = 0.001103599504093355, No Iterations 577
[INFO] SolveP: 1117.075 [ms]
time step continuity errors : sum local = 0.01245988067643489, global = 2.49422454587426e-05, cumulative = 0.001763405665094245
[INFO] postSolveP: 128.137 [ms]
smoothSolver:  Solving for nuTilda, Initial residual = 0.2092527422855814, Final residual = 0.01312480457115765, No Iterations 2
[INFO] TimeStep: 9364.84 [ms]
ExecutionTime = 83.18000000000001 s  ClockTime = 83 s

Time = 4

velocityDampingConstraint velocityDamping damped 0 (0%) of cells, with max limit 300
[INFO] MatrixAssemblyU: 3436.543 [ms]
smoothSolver:  Solving for Ux, Initial residual = 0.05438574963390163, Final residual = 0.004941515772370798, No Iterations 11
smoothSolver:  Solving for Uy, Initial residual = 0.1220935180635174, Final residual = 0.01093891838052985, No Iterations 11
smoothSolver:  Solving for Uz, Initial residual = 0.1336358432194263, Final residual = 0.01298696735894627, No Iterations 10
[INFO] MomentumPredictor: 2281.945 [ms]
[INFO] MatrixAssemblyPI: 458.447 [ms]
[INFO] MatrixAssemblyPII: 231.654 [ms]
[OGL LOG][Proc: 0]: global_index_init: 0.039 [ms]
[OGL LOG][Proc: 0]p_local_coeffs: call_update: 0 [ms]
[OGL LOG][Proc: 0]p_non_local_coeffs: call_update: 0 [ms]
[OGL LOG][Proc: 0]p: update_local_matrix_data: 56.319 [ms]
[OGL LOG][Proc: 0]p: update_non_local_matrix_data: 0.083 [ms]
[OGL LOG][Proc: 0]p_matrix: call_update: 20.651 [ms]
[OGL LOG][Proc: 0]p_rhs: call_update: 5.783 [ms]
[OGL LOG][Preconditioner.H:121] Generate preconditioner BJ MaxBlockSize 1
[OGL LOG][Proc: 0]p: init_precond: 1.134 [ms]
[OGL LOG][StoppingCriterion.H:373] Creating stopping criterion with minIter 346 frequency 6
[OGL LOG][Proc: 0]p: generate_solver: 0.003 [ms]
[OGL LOG][Proc: 0]p: solve: 660.5840000000001 [ms]
[OGL LOG][Proc: 0]p: copy_x_back: 11.676 [ms]
[OGL LOG][lduLduBase.H:336] 
Statistics:
	Time per iteration: 1860 [mu s]
	Time per residual norm calculation: 288.000000 [mu s]
	Time per iteration and DOF: 0.073726 [ns]
	Retrieve results bandwidth 2.163000 [GByte/s]
[OGL LOG][Proc: 0]p: solve_multi_gpu: 700.968 [ms]
BJhipGKOCG:  Solving for p, Initial residual = 0.1411285859945986, Final residual = 0.001383596121255689, No Iterations 355
[INFO] SolveP: 768.537 [ms]
time step continuity errors : sum local = 0.01320476039209597, global = -0.0003238975748637676, cumulative = 0.001439508090230478
[INFO] postSolveP: 125.461 [ms]
smoothSolver:  Solving for nuTilda, Initial residual = 0.1246675581796523, Final residual = 0.01051581140204338, No Iterations 2
[INFO] TimeStep: 9226.411 [ms]
ExecutionTime = 95.27 s  ClockTime = 95 s

Time = 5

velocityDampingConstraint velocityDamping damped 471 (0%) of cells, with max limit 300
[INFO] MatrixAssemblyU: 3348.583 [ms]
smoothSolver:  Solving for Ux, Initial residual = 0.04404449278676024, Final residual = 0.004187264608530076, No Iterations 10
smoothSolver:  Solving for Uy, Initial residual = 0.09779346004308055, Final residual = 0.009218782206039475, No Iterations 11
smoothSolver:  Solving for Uz, Initial residual = 0.1138819670357018, Final residual = 0.0112665225477483, No Iterations 10
[INFO] MomentumPredictor: 2231.115 [ms]
[INFO] MatrixAssemblyPI: 458.111 [ms]
[INFO] MatrixAssemblyPII: 231.881 [ms]
[OGL LOG][Proc: 0]: global_index_init: 0.038 [ms]
[OGL LOG][Proc: 0]p_local_coeffs: call_update: 0 [ms]
[OGL LOG][Proc: 0]p_non_local_coeffs: call_update: 0 [ms]
[OGL LOG][Proc: 0]p: update_local_matrix_data: 56.119 [ms]
[OGL LOG][Proc: 0]p: update_non_local_matrix_data: 0.08500000000000001 [ms]
[OGL LOG][Proc: 0]p_matrix: call_update: 23.205 [ms]
[OGL LOG][Proc: 0]p_rhs: call_update: 6.36 [ms]
[OGL LOG][Preconditioner.H:121] Generate preconditioner BJ MaxBlockSize 1
[OGL LOG][Proc: 0]p: init_precond: 1.12 [ms]
[OGL LOG][StoppingCriterion.H:373] Creating stopping criterion with minIter 213 frequency 4
[OGL LOG][Proc: 0]p: generate_solver: 0.003 [ms]
[OGL LOG][Proc: 0]p: solve: 644.0260000000001 [ms]
[OGL LOG][Proc: 0]p: copy_x_back: 8.984 [ms]
[OGL LOG][lduLduBase.H:336] 
Statistics:
	Time per iteration: 1911 [mu s]
	Time per residual norm calculation: 310.000000 [mu s]
	Time per iteration and DOF: 0.075748 [ns]
	Retrieve results bandwidth 2.811000 [GByte/s]
[OGL LOG][Proc: 0]p: solve_multi_gpu: 685.294 [ms]
BJhipGKOCG:  Solving for p, Initial residual = 0.1028498585222765, Final residual = 0.001024949675241872, No Iterations 337
[INFO] SolveP: 754.559 [ms]
time step continuity errors : sum local = 0.007646765612280068, global = 0.0003672421375972901, cumulative = 0.001806750227827768
[INFO] postSolveP: 129.504 [ms]
smoothSolver:  Solving for nuTilda, Initial residual = 0.07090423355463751, Final residual = 0.004311693660670911, No Iterations 3
[INFO] TimeStep: 9115.364 [ms]
ExecutionTime = 107.17 s  ClockTime = 107 s

Time = 6

velocityDampingConstraint velocityDamping damped 0 (0%) of cells, with max limit 300
[INFO] MatrixAssemblyU: 3283.215 [ms]
smoothSolver:  Solving for Ux, Initial residual = 0.02988236583396952, Final residual = 0.002658061191344311, No Iterations 12
smoothSolver:  Solving for Uy, Initial residual = 0.07445707497236392, Final residual = 0.00688834038834703, No Iterations 12
smoothSolver:  Solving for Uz, Initial residual = 0.08086661741475072, Final residual = 0.006922416381348277, No Iterations 12
[INFO] MomentumPredictor: 2523.52 [ms]
[INFO] MatrixAssemblyPI: 456.489 [ms]
[INFO] MatrixAssemblyPII: 231.565 [ms]
[OGL LOG][Proc: 0]: global_index_init: 0.055 [ms]
[OGL LOG][Proc: 0]p_local_coeffs: call_update: 0 [ms]
[OGL LOG][Proc: 0]p_non_local_coeffs: call_update: 0 [ms]
[OGL LOG][Proc: 0]p: update_local_matrix_data: 56.537 [ms]
[OGL LOG][Proc: 0]p: update_non_local_matrix_data: 0.08500000000000001 [ms]
[OGL LOG][Proc: 0]p_matrix: call_update: 28.734 [ms]
[OGL LOG][Proc: 0]p_rhs: call_update: 7.209000000000001 [ms]
[OGL LOG][Preconditioner.H:121] Generate preconditioner BJ MaxBlockSize 1
[OGL LOG][Proc: 0]p: init_precond: 1.091 [ms]
[OGL LOG][StoppingCriterion.H:373] Creating stopping criterion with minIter 202 frequency 4
[OGL LOG][Proc: 0]p: generate_solver: 0.003 [ms]
[OGL LOG][Proc: 0]p: solve: 623.855 [ms]
[OGL LOG][Proc: 0]p: copy_x_back: 8.960000000000001 [ms]
[OGL LOG][lduLduBase.H:336] 
Statistics:
	Time per iteration: 1919 [mu s]
	Time per residual norm calculation: 274.000000 [mu s]
	Time per iteration and DOF: 0.076065 [ns]
	Retrieve results bandwidth 2.819000 [GByte/s]
[OGL LOG][Proc: 0]p: solve_multi_gpu: 671.034 [ms]
BJhipGKOCG:  Solving for p, Initial residual = 0.09137546628304294, Final residual = 0.0008916476778258076, No Iterations 325
[INFO] SolveP: 743.386 [ms]
time step continuity errors : sum local = 0.006926117103166061, global = 0.0001266495090206752, cumulative = 0.001933399736848443
[INFO] postSolveP: 128.635 [ms]
smoothSolver:  Solving for nuTilda, Initial residual = 0.06424199522599623, Final residual = 0.003005251349837745, No Iterations 3
[INFO] TimeStep: 9319.037 [ms]
ExecutionTime = 119.2 s  ClockTime = 119 s

Time = 7

velocityDampingConstraint velocityDamping damped 50 (0%) of cells, with max limit 300
[INFO] MatrixAssemblyU: 3260.698 [ms]
smoothSolver:  Solving for Ux, Initial residual = 0.02704456191500781, Final residual = 0.002405229973155594, No Iterations 12
smoothSolver:  Solving for Uy, Initial residual = 0.06746008455145666, Final residual = 0.006370137299386856, No Iterations 12
smoothSolver:  Solving for Uz, Initial residual = 0.0710673843748056, Final residual = 0.006210542972556612, No Iterations 12
[INFO] MomentumPredictor: 2518.188 [ms]
[INFO] MatrixAssemblyPI: 456.109 [ms]
[INFO] MatrixAssemblyPII: 229.358 [ms]
[OGL LOG][Proc: 0]: global_index_init: 0.039 [ms]
[OGL LOG][Proc: 0]p_local_coeffs: call_update: 0 [ms]
[OGL LOG][Proc: 0]p_non_local_coeffs: call_update: 0 [ms]
[OGL LOG][Proc: 0]p: update_local_matrix_data: 56.282 [ms]
[OGL LOG][Proc: 0]p: update_non_local_matrix_data: 0.08400000000000001 [ms]
[OGL LOG][Proc: 0]p_matrix: call_update: 20.913 [ms]
[OGL LOG][Proc: 0]p_rhs: call_update: 13.588 [ms]
[OGL LOG][Preconditioner.H:121] Generate preconditioner BJ MaxBlockSize 1
[OGL LOG][Proc: 0]p: init_precond: 1.07 [ms]
[OGL LOG][StoppingCriterion.H:373] Creating stopping criterion with minIter 195 frequency 4
[OGL LOG][Proc: 0]p: generate_solver: 0.002 [ms]
[OGL LOG][Proc: 0]p: solve: 666.795 [ms]
[OGL LOG][Proc: 0]p: copy_x_back: 8.950000000000001 [ms]
[OGL LOG][lduLduBase.H:336] 
Statistics:
	Time per iteration: 1888 [mu s]
	Time per residual norm calculation: 276.000000 [mu s]
	Time per iteration and DOF: 0.074836 [ns]
	Retrieve results bandwidth 2.822000 [GByte/s]
[OGL LOG][Proc: 0]p: solve_multi_gpu: 712.65 [ms]
BJhipGKOCG:  Solving for p, Initial residual = 0.07955491028619463, Final residual = 0.0007849827762283361, No Iterations 353
[INFO] SolveP: 780.527 [ms]
time step continuity errors : sum local = 0.005975429630767636, global = -0.0004785901714007854, cumulative = 0.001454809565447657
[INFO] postSolveP: 126.591 [ms]
smoothSolver:  Solving for nuTilda, Initial residual = 0.04910663133952946, Final residual = 0.003228807752178752, No Iterations 3
[INFO] TimeStep: 9318.932000000001 [ms]
ExecutionTime = 131.21 s  ClockTime = 131 s

Time = 8

velocityDampingConstraint velocityDamping damped 0 (0%) of cells, with max limit 300
[INFO] MatrixAssemblyU: 3244.095 [ms]
smoothSolver:  Solving for Ux, Initial residual = 0.02306097792759746, Final residual = 0.002134586226376115, No Iterations 12
smoothSolver:  Solving for Uy, Initial residual = 0.06002585020649376, Final residual = 0.005879537025982854, No Iterations 12
smoothSolver:  Solving for Uz, Initial residual = 0.06207068146858097, Final residual = 0.005615406495471285, No Iterations 12
[INFO] MomentumPredictor: 2514.262 [ms]
[INFO] MatrixAssemblyPI: 455.852 [ms]
[INFO] MatrixAssemblyPII: 229.376 [ms]
[OGL LOG][Proc: 0]: global_index_init: 0.038 [ms]
[OGL LOG][Proc: 0]p_local_coeffs: call_update: 0 [ms]
[OGL LOG][Proc: 0]p_non_local_coeffs: call_update: 0 [ms]
[OGL LOG][Proc: 0]p: update_local_matrix_data: 58.033 [ms]
[OGL LOG][Proc: 0]p: update_non_local_matrix_data: 0.092 [ms]
[OGL LOG][Proc: 0]p_matrix: call_update: 25.962 [ms]
[OGL LOG][Proc: 0]p_rhs: call_update: 3.233 [ms]
[OGL LOG][Preconditioner.H:121] Generate preconditioner BJ MaxBlockSize 1
[OGL LOG][Proc: 0]p: init_precond: 1.105 [ms]
[OGL LOG][StoppingCriterion.H:373] Creating stopping criterion with minIter 211 frequency 4
[OGL LOG][Proc: 0]p: generate_solver: 0.002 [ms]
[OGL LOG][Proc: 0]p: solve: 1300.226 [ms]
[OGL LOG][Proc: 0]p: copy_x_back: 8.711 [ms]
[OGL LOG][lduLduBase.H:336] 
Statistics:
	Time per iteration: 1726 [mu s]
	Time per residual norm calculation: 313.000000 [mu s]
	Time per iteration and DOF: 0.068415 [ns]
	Retrieve results bandwidth 2.899000 [GByte/s]
[OGL LOG][Proc: 0]p: solve_multi_gpu: 1340.402 [ms]
BJhipGKOCG:  Solving for p, Initial residual = 0.07196777836254477, Final residual = 0.0007153585872177219, No Iterations 753
[INFO] SolveP: 1409.554 [ms]
time step continuity errors : sum local = 0.005549873227723118, global = -0.0003637189079485059, cumulative = 0.001091090657499152
[INFO] postSolveP: 125.235 [ms]
smoothSolver:  Solving for nuTilda, Initial residual = 0.0653365858488774, Final residual = 0.005862193278842163, No Iterations 2
[INFO] TimeStep: 9869.939 [ms]
ExecutionTime = 143.86 s  ClockTime = 144 s

Time = 9

velocityDampingConstraint velocityDamping damped 0 (0%) of cells, with max limit 300
[INFO] MatrixAssemblyU: 3234.055 [ms]
smoothSolver:  Solving for Ux, Initial residual = 0.0204808573934918, Final residual = 0.001905384604007767, No Iterations 12
smoothSolver:  Solving for Uy, Initial residual = 0.05434462752772062, Final residual = 0.005386698786228534, No Iterations 12
smoothSolver:  Solving for Uz, Initial residual = 0.05539151123015684, Final residual = 0.005115910614934875, No Iterations 12
[INFO] MomentumPredictor: 2512.305 [ms]
[INFO] MatrixAssemblyPI: 458.126 [ms]
[INFO] MatrixAssemblyPII: 227.79 [ms]
[OGL LOG][Proc: 0]: global_index_init: 0.037 [ms]
[OGL LOG][Proc: 0]p_local_coeffs: call_update: 0 [ms]
[OGL LOG][Proc: 0]p_non_local_coeffs: call_update: 0 [ms]
[OGL LOG][Proc: 0]p: update_local_matrix_data: 56.671 [ms]
[OGL LOG][Proc: 0]p: update_non_local_matrix_data: 0.08799999999999999 [ms]
[OGL LOG][Proc: 0]p_matrix: call_update: 19.844 [ms]
[OGL LOG][Proc: 0]p_rhs: call_update: 11.319 [ms]
[OGL LOG][Preconditioner.H:121] Generate preconditioner BJ MaxBlockSize 1
[OGL LOG][Proc: 0]p: init_precond: 1.064 [ms]
[OGL LOG][StoppingCriterion.H:373] Creating stopping criterion with minIter 451 frequency 7
[OGL LOG][Proc: 0]p: generate_solver: 0.002 [ms]
[OGL LOG][Proc: 0]p: solve: 820.058 [ms]
[OGL LOG][Proc: 0]p: copy_x_back: 8.904999999999999 [ms]
[OGL LOG][lduLduBase.H:336] 
Statistics:
	Time per iteration: 1798 [mu s]
	Time per residual norm calculation: 290.000000 [mu s]
	Time per iteration and DOF: 0.071268 [ns]
	Retrieve results bandwidth 2.836000 [GByte/s]
[OGL LOG][Proc: 0]p: solve_multi_gpu: 862.3720000000001 [ms]
BJhipGKOCG:  Solving for p, Initial residual = 0.06868468054290529, Final residual = 0.0003686002597668332, No Iterations 456
[INFO] SolveP: 930.189 [ms]
time step continuity errors : sum local = 0.002769738322616265, global = 0.0005347994721948045, cumulative = 0.001625890129693956
[INFO] postSolveP: 126.333 [ms]
smoothSolver:  Solving for nuTilda, Initial residual = 0.04414538756352063, Final residual = 0.003201842940000795, No Iterations 3
[INFO] TimeStep: 9435.333000000001 [ms]
ExecutionTime = 156.01 s  ClockTime = 156 s

Time = 10

velocityDampingConstraint velocityDamping damped 0 (0%) of cells, with max limit 300
[INFO] MatrixAssemblyU: 3219.813 [ms]
smoothSolver:  Solving for Ux, Initial residual = 0.01843290786605574, Final residual = 0.001726486647238443, No Iterations 12
smoothSolver:  Solving for Uy, Initial residual = 0.0500397205916385, Final residual = 0.00496588775995003, No Iterations 12
smoothSolver:  Solving for Uz, Initial residual = 0.05060558701853039, Final residual = 0.004746601890086145, No Iterations 12
[INFO] MomentumPredictor: 2505.804 [ms]
[INFO] MatrixAssemblyPI: 457.008 [ms]
[INFO] MatrixAssemblyPII: 227.908 [ms]
[OGL LOG][Proc: 0]: global_index_init: 0.038 [ms]
[OGL LOG][Proc: 0]p_local_coeffs: call_update: 0 [ms]
[OGL LOG][Proc: 0]p_non_local_coeffs: call_update: 0 [ms]
[OGL LOG][Proc: 0]p: update_local_matrix_data: 58.244 [ms]
[OGL LOG][Proc: 0]p: update_non_local_matrix_data: 0.095 [ms]
[OGL LOG][Proc: 0]p_matrix: call_update: 24.205 [ms]
[OGL LOG][Proc: 0]p_rhs: call_update: 10.791 [ms]
[OGL LOG][Preconditioner.H:121] Generate preconditioner BJ MaxBlockSize 1
[OGL LOG][Proc: 0]p: init_precond: 1.1 [ms]
[OGL LOG][StoppingCriterion.H:373] Creating stopping criterion with minIter 273 frequency 5
[OGL LOG][Proc: 0]p: generate_solver: 0.002 [ms]
[OGL LOG][Proc: 0]p: solve: 593.881 [ms]
[OGL LOG][Proc: 0]p: copy_x_back: 8.952 [ms]
[OGL LOG][lduLduBase.H:336] 
Statistics:
	Time per iteration: 1940 [mu s]
	Time per residual norm calculation: 311.000000 [mu s]
	Time per iteration and DOF: 0.076897 [ns]
	Retrieve results bandwidth 2.821000 [GByte/s]
[OGL LOG][Proc: 0]p: solve_multi_gpu: 640.29 [ms]
BJhipGKOCG:  Solving for p, Initial residual = 0.06282021330929415, Final residual = 0.0006176110349241686, No Iterations 306
[INFO] SolveP: 710.436 [ms]
time step continuity errors : sum local = 0.0046015590875413, global = 0.001011652978422446, cumulative = 0.002637543108116403
[INFO] postSolveP: 125.403 [ms]
smoothSolver:  Solving for nuTilda, Initial residual = 0.06967743955181908, Final residual = 0.00549226159157658, No Iterations 2
[INFO] TimeStep: 9125.439 [ms]
ExecutionTime = 167.78 s  ClockTime = 168 s

Time = 11

velocityDampingConstraint velocityDamping damped 0 (0%) of cells, with max limit 300
[INFO] MatrixAssemblyU: 3213.497 [ms]
smoothSolver:  Solving for Ux, Initial residual = 0.01673660742835438, Final residual = 0.001602141613829709, No Iterations 12
smoothSolver:  Solving for Uy, Initial residual = 0.04719597717760362, Final residual = 0.004648846363014466, No Iterations 12
smoothSolver:  Solving for Uz, Initial residual = 0.04714063566645994, Final residual = 0.004460275389903438, No Iterations 12
[INFO] MomentumPredictor: 2511.889 [ms]
[INFO] MatrixAssemblyPI: 454.714 [ms]
[INFO] MatrixAssemblyPII: 228.036 [ms]
[OGL LOG][Proc: 0]: global_index_init: 0.038 [ms]
[OGL LOG][Proc: 0]p_local_coeffs: call_update: 0 [ms]
[OGL LOG][Proc: 0]p_non_local_coeffs: call_update: 0 [ms]
[OGL LOG][Proc: 0]p: update_local_matrix_data: 56.228 [ms]
[OGL LOG][Proc: 0]p: update_non_local_matrix_data: 0.082 [ms]
[OGL LOG][Proc: 0]p_matrix: call_update: 27.011 [ms]
[OGL LOG][Proc: 0]p_rhs: call_update: 8.634 [ms]
[OGL LOG][Preconditioner.H:121] Generate preconditioner BJ MaxBlockSize 1
[OGL LOG][Proc: 0]p: init_precond: 1.062 [ms]
[OGL LOG][StoppingCriterion.H:373] Creating stopping criterion with minIter 183 frequency 4
[OGL LOG][Proc: 0]p: generate_solver: 0.002 [ms]
[OGL LOG][Proc: 0]p: solve: 1286.99 [ms]
[OGL LOG][Proc: 0]p: copy_x_back: 8.379 [ms]
[OGL LOG][lduLduBase.H:336] 
Statistics:
	Time per iteration: 1727 [mu s]
	Time per residual norm calculation: 310.000000 [mu s]
	Time per iteration and DOF: 0.068454 [ns]
	Retrieve results bandwidth 3.014000 [GByte/s]
[OGL LOG][Proc: 0]p: solve_multi_gpu: 1333.217 [ms]
BJhipGKOCG:  Solving for p, Initial residual = 0.05836152082965344, Final residual = 0.0005645599323227867, No Iterations 745
[INFO] SolveP: 1403.62 [ms]
time step continuity errors : sum local = 0.004222189173572958, global = -0.0001689479385553721, cumulative = 0.00246859516956103
[INFO] postSolveP: 124.514 [ms]
smoothSolver:  Solving for nuTilda, Initial residual = 0.03913705982127923, Final residual = 0.003025471474738453, No Iterations 3
[INFO] TimeStep: 9879.98 [ms]
ExecutionTime = 180.41 s  ClockTime = 180 s

Time = 12

velocityDampingConstraint velocityDamping damped 0 (0%) of cells, with max limit 300
[INFO] MatrixAssemblyU: 3211.228 [ms]
smoothSolver:  Solving for Ux, Initial residual = 0.01559765510612457, Final residual = 0.00151303529986739, No Iterations 12
smoothSolver:  Solving for Uy, Initial residual = 0.04554147693068095, Final residual = 0.004432779057439146, No Iterations 12
smoothSolver:  Solving for Uz, Initial residual = 0.04517394922882582, Final residual = 0.004268189610121075, No Iterations 12
[INFO] MomentumPredictor: 2524.48 [ms]
[INFO] MatrixAssemblyPI: 458.418 [ms]
[INFO] MatrixAssemblyPII: 228.705 [ms]
[OGL LOG][Proc: 0]: global_index_init: 0.064 [ms]
[OGL LOG][Proc: 0]p_local_coeffs: call_update: 0 [ms]
[OGL LOG][Proc: 0]p_non_local_coeffs: call_update: 0 [ms]
[OGL LOG][Proc: 0]p: update_local_matrix_data: 56.083 [ms]
[OGL LOG][Proc: 0]p: update_non_local_matrix_data: 0.091 [ms]
[OGL LOG][Proc: 0]p_matrix: call_update: 20.241 [ms]
[OGL LOG][Proc: 0]p_rhs: call_update: 12.225 [ms]
[OGL LOG][Preconditioner.H:121] Generate preconditioner BJ MaxBlockSize 1
[OGL LOG][Proc: 0]p: init_precond: 1.041 [ms]
[OGL LOG][StoppingCriterion.H:373] Creating stopping criterion with minIter 447 frequency 7
[OGL LOG][Proc: 0]p: generate_solver: 0.002 [ms]
[OGL LOG][Proc: 0]p: solve: 800.84 [ms]
[OGL LOG][Proc: 0]p: copy_x_back: 8.963000000000001 [ms]
[OGL LOG][lduLduBase.H:336] 
Statistics:
	Time per iteration: 1783 [mu s]
	Time per residual norm calculation: 295.000000 [mu s]
	Time per iteration and DOF: 0.070674 [ns]
	Retrieve results bandwidth 2.818000 [GByte/s]
[OGL LOG][Proc: 0]p: solve_multi_gpu: 844.636 [ms]
BJhipGKOCG:  Solving for p, Initial residual = 0.05100903395420755, Final residual = 0.0003094749880660312, No Iterations 449
[INFO] SolveP: 912.78 [ms]
time step continuity errors : sum local = 0.002477743362105087, global = -0.0004162897533609276, cumulative = 0.002052305416200103
[INFO] postSolveP: 127.805 [ms]
smoothSolver:  Solving for nuTilda, Initial residual = 0.06547114781847434, Final residual = 0.005100931540545835, No Iterations 2
[INFO] TimeStep: 9345.92 [ms]
ExecutionTime = 192.43 s  ClockTime = 192 s

Time = 13

velocityDampingConstraint velocityDamping damped 0 (0%) of cells, with max limit 300
[INFO] MatrixAssemblyU: 3212.984 [ms]
smoothSolver:  Solving for Ux, Initial residual = 0.01448886523849583, Final residual = 0.001438708016155008, No Iterations 12
smoothSolver:  Solving for Uy, Initial residual = 0.04343912713774989, Final residual = 0.004235941174362021, No Iterations 12
smoothSolver:  Solving for Uz, Initial residual = 0.04306363634355959, Final residual = 0.004124583465656959, No Iterations 12
[INFO] MomentumPredictor: 2517.1 [ms]
[INFO] MatrixAssemblyPI: 455.293 [ms]
[INFO] MatrixAssemblyPII: 227.732 [ms]
[OGL LOG][Proc: 0]: global_index_init: 0.25 [ms]
[OGL LOG][Proc: 0]p_local_coeffs: call_update: 0 [ms]
[OGL LOG][Proc: 0]p_non_local_coeffs: call_update: 0 [ms]
[OGL LOG][Proc: 0]p: update_local_matrix_data: 56.746 [ms]
[OGL LOG][Proc: 0]p: update_non_local_matrix_data: 0.08400000000000001 [ms]
[OGL LOG][Proc: 0]p_matrix: call_update: 25.511 [ms]
[OGL LOG][Proc: 0]p_rhs: call_update: 10.252 [ms]
[OGL LOG][Preconditioner.H:121] Generate preconditioner BJ MaxBlockSize 1
[OGL LOG][Proc: 0]p: init_precond: 1.135 [ms]
[OGL LOG][StoppingCriterion.H:373] Creating stopping criterion with minIter 269 frequency 5
[OGL LOG][Proc: 0]p: generate_solver: 0.003 [ms]
[OGL LOG][Proc: 0]p: solve: 591.99 [ms]
[OGL LOG][Proc: 0]p: copy_x_back: 8.673 [ms]
[OGL LOG][lduLduBase.H:336] 
Statistics:
	Time per iteration: 1966 [mu s]
	Time per residual norm calculation: 315.000000 [mu s]
	Time per iteration and DOF: 0.077928 [ns]
	Retrieve results bandwidth 2.912000 [GByte/s]
[OGL LOG][Proc: 0]p: solve_multi_gpu: 638.742 [ms]
BJhipGKOCG:  Solving for p, Initial residual = 0.04853656471674251, Final residual = 0.0004799154589725901, No Iterations 301
[INFO] SolveP: 709.287 [ms]
time step continuity errors : sum local = 0.003811507801254437, global = -0.0008624012463719228, cumulative = 0.00118990416982818
[INFO] postSolveP: 126.433 [ms]
smoothSolver:  Solving for nuTilda, Initial residual = 0.03471855920108025, Final residual = 0.002827553663606148, No Iterations 3
[INFO] TimeStep: 9184.922 [ms]
ExecutionTime = 204.25 s  ClockTime = 204 s

Time = 14

velocityDampingConstraint velocityDamping damped 0 (0%) of cells, with max limit 300
[INFO] MatrixAssemblyU: 3192.429 [ms]
smoothSolver:  Solving for Ux, Initial residual = 0.01364970748862299, Final residual = 0.001167865366392687, No Iterations 13
smoothSolver:  Solving for Uy, Initial residual = 0.0415058968200114, Final residual = 0.0040626489244366, No Iterations 12
smoothSolver:  Solving for Uz, Initial residual = 0.0419424839513829, Final residual = 0.004034556262461094, No Iterations 12
[INFO] MomentumPredictor: 2574.246 [ms]
[INFO] MatrixAssemblyPI: 456.262 [ms]
[INFO] MatrixAssemblyPII: 229.416 [ms]
[OGL LOG][Proc: 0]: global_index_init: 0.034 [ms]
[OGL LOG][Proc: 0]p_local_coeffs: call_update: 0 [ms]
[OGL LOG][Proc: 0]p_non_local_coeffs: call_update: 0 [ms]
[OGL LOG][Proc: 0]p: update_local_matrix_data: 56.442 [ms]
[OGL LOG][Proc: 0]p: update_non_local_matrix_data: 0.08500000000000001 [ms]
[OGL LOG][Proc: 0]p_matrix: call_update: 20.97 [ms]
[OGL LOG][Proc: 0]p_rhs: call_update: 5.611 [ms]
[OGL LOG][Preconditioner.H:121] Generate preconditioner BJ MaxBlockSize 1
[OGL LOG][Proc: 0]p: init_precond: 1.065 [ms]
[OGL LOG][StoppingCriterion.H:373] Creating stopping criterion with minIter 180 frequency 4
[OGL LOG][Proc: 0]p: generate_solver: 0.003 [ms]
[OGL LOG][Proc: 0]p: solve: 1183.035 [ms]
[OGL LOG][Proc: 0]p: copy_x_back: 8.742000000000001 [ms]
[OGL LOG][lduLduBase.H:336] 
Statistics:
	Time per iteration: 1747 [mu s]
	Time per residual norm calculation: 272.000000 [mu s]
	Time per iteration and DOF: 0.069247 [ns]
	Retrieve results bandwidth 2.889000 [GByte/s]
[OGL LOG][Proc: 0]p: solve_multi_gpu: 1220.766 [ms]
BJhipGKOCG:  Solving for p, Initial residual = 0.04647065319083572, Final residual = 0.0004629946209793584, No Iterations 677
[INFO] SolveP: 1289.083 [ms]
time step continuity errors : sum local = 0.003666383647881738, global = -0.0002657526920728694, cumulative = 0.0009241514777553101
[INFO] postSolveP: 125.187 [ms]
smoothSolver:  Solving for nuTilda, Initial residual = 0.05812881492935626, Final residual = 0.004801280676641783, No Iterations 2
[INFO] TimeStep: 9742.705 [ms]
ExecutionTime = 216.72 s  ClockTime = 216 s

Time = 15

velocityDampingConstraint velocityDamping damped 0 (0%) of cells, with max limit 300
[INFO] MatrixAssemblyU: 3206.393 [ms]
smoothSolver:  Solving for Ux, Initial residual = 0.01295957794460994, Final residual = 0.001113169219458357, No Iterations 13
smoothSolver:  Solving for Uy, Initial residual = 0.04047866763715123, Final residual = 0.003960891799431083, No Iterations 12
smoothSolver:  Solving for Uz, Initial residual = 0.04202834526777282, Final residual = 0.004045745845225076, No Iterations 12
[INFO] MomentumPredictor: 2588.641 [ms]
[INFO] MatrixAssemblyPI: 455.652 [ms]
[INFO] MatrixAssemblyPII: 228.688 [ms]
[OGL LOG][Proc: 0]: global_index_init: 0.033 [ms]
[OGL LOG][Proc: 0]p_local_coeffs: call_update: 0 [ms]
[OGL LOG][Proc: 0]p_non_local_coeffs: call_update: 0 [ms]
[OGL LOG][Proc: 0]p: update_local_matrix_data: 56.269 [ms]
[OGL LOG][Proc: 0]p: update_non_local_matrix_data: 0.083 [ms]
[OGL LOG][Proc: 0]p_matrix: call_update: 24.917 [ms]
[OGL LOG][Proc: 0]p_rhs: call_update: 6.018 [ms]
[OGL LOG][Preconditioner.H:121] Generate preconditioner BJ MaxBlockSize 1
[OGL LOG][Proc: 0]p: init_precond: 1.032 [ms]
[OGL LOG][StoppingCriterion.H:373] Creating stopping criterion with minIter 406 frequency 6
[OGL LOG][Proc: 0]p: generate_solver: 0.002 [ms]
[OGL LOG][Proc: 0]p: solve: 748.237 [ms]
[OGL LOG][Proc: 0]p: copy_x_back: 8.954000000000001 [ms]
[OGL LOG][lduLduBase.H:336] 
Statistics:
	Time per iteration: 1829 [mu s]
	Time per residual norm calculation: 325.000000 [mu s]
	Time per iteration and DOF: 0.072497 [ns]
	Retrieve results bandwidth 2.821000 [GByte/s]
[OGL LOG][Proc: 0]p: solve_multi_gpu: 790.273 [ms]
BJhipGKOCG:  Solving for p, Initial residual = 0.04700946543895079, Final residual = 0.0004125312481789155, No Iterations 409
[INFO] SolveP: 861.53 [ms]
time step continuity errors : sum local = 0.003136671035155315, global = 0.0005761110784162128, cumulative = 0.001500262556171523
[INFO] postSolveP: 131.574 [ms]
smoothSolver:  Solving for nuTilda, Initial residual = 0.03139662105234516, Final residual = 0.002662240841384396, No Iterations 3
[INFO] TimeStep: 9409.99 [ms]
ExecutionTime = 228.78 s  ClockTime = 228 s

Time = 16

velocityDampingConstraint velocityDamping damped 0 (0%) of cells, with max limit 300
[INFO] MatrixAssemblyU: 3206.823 [ms]
smoothSolver:  Solving for Ux, Initial residual = 0.01226414081074213, Final residual = 0.001056196333441668, No Iterations 13
smoothSolver:  Solving for Uy, Initial residual = 0.03926514146040709, Final residual = 0.003883301701151005, No Iterations 12
smoothSolver:  Solving for Uz, Initial residual = 0.04167326942851591, Final residual = 0.004038332980886079, No Iterations 12
[INFO] MomentumPredictor: 2574.193 [ms]
[INFO] MatrixAssemblyPI: 457.071 [ms]
[INFO] MatrixAssemblyPII: 227.756 [ms]
[OGL LOG][Proc: 0]: global_index_init: 0.078 [ms]
[OGL LOG][Proc: 0]p_local_coeffs: call_update: 0 [ms]
[OGL LOG][Proc: 0]p_non_local_coeffs: call_update: 0 [ms]
[OGL LOG][Proc: 0]p: update_local_matrix_data: 56.582 [ms]
[OGL LOG][Proc: 0]p: update_non_local_matrix_data: 0.08799999999999999 [ms]
[OGL LOG][Proc: 0]p_matrix: call_update: 21.556 [ms]
[OGL LOG][Proc: 0]p_rhs: call_update: 9.450000000000001 [ms]
[OGL LOG][Preconditioner.H:121] Generate preconditioner BJ MaxBlockSize 1
[OGL LOG][Proc: 0]p: init_precond: 1.072 [ms]
[OGL LOG][StoppingCriterion.H:373] Creating stopping criterion with minIter 245 frequency 5
[OGL LOG][Proc: 0]p: generate_solver: 0.003 [ms]
[OGL LOG][Proc: 0]p: solve: 1115.684 [ms]
[OGL LOG][Proc: 0]p: copy_x_back: 8.697000000000001 [ms]
[OGL LOG][lduLduBase.H:336] 
Statistics:
	Time per iteration: 1740 [mu s]
	Time per residual norm calculation: 311.000000 [mu s]
	Time per iteration and DOF: 0.068969 [ns]
	Retrieve results bandwidth 2.904000 [GByte/s]
[OGL LOG][Proc: 0]p: solve_multi_gpu: 1158.286 [ms]
BJhipGKOCG:  Solving for p, Initial residual = 0.04543142329374171, Final residual = 0.0004465598842988441, No Iterations 641
[INFO] SolveP: 1226.264 [ms]
time step continuity errors : sum local = 0.003423736410365489, global = -9.487641231570812e-05, cumulative = 0.001405386143855815
[INFO] postSolveP: 128.422 [ms]
smoothSolver:  Solving for nuTilda, Initial residual = 0.05169256246462802, Final residual = 0.004552537365648102, No Iterations 2
[INFO] TimeStep: 9702.700000000001 [ms]
ExecutionTime = 241.18 s  ClockTime = 241 s

Time = 17

velocityDampingConstraint velocityDamping damped 0 (0%) of cells, with max limit 300
[INFO] MatrixAssemblyU: 3206.819 [ms]
smoothSolver:  Solving for Ux, Initial residual = 0.01154691674328997, Final residual = 0.001002521427387873, No Iterations 13
smoothSolver:  Solving for Uy, Initial residual = 0.03900755807437716, Final residual = 0.003867891126222592, No Iterations 12
smoothSolver:  Solving for Uz, Initial residual = 0.04178067053357802, Final residual = 0.00405727786374599, No Iterations 12
[INFO] MomentumPredictor: 2572.554 [ms]
[INFO] MatrixAssemblyPI: 460.93 [ms]
[INFO] MatrixAssemblyPII: 227.834 [ms]
[OGL LOG][Proc: 0]: global_index_init: 0.038 [ms]
[OGL LOG][Proc: 0]p_local_coeffs: call_update: 0 [ms]
[OGL LOG][Proc: 0]p_non_local_coeffs: call_update: 0 [ms]
[OGL LOG][Proc: 0]p: update_local_matrix_data: 56.5 [ms]
[OGL LOG][Proc: 0]p: update_non_local_matrix_data: 0.091 [ms]
[OGL LOG][Proc: 0]p_matrix: call_update: 21.204 [ms]
[OGL LOG][Proc: 0]p_rhs: call_update: 5.709000000000001 [ms]
[OGL LOG][Preconditioner.H:121] Generate preconditioner BJ MaxBlockSize 1
[OGL LOG][Proc: 0]p: init_precond: 1.1 [ms]
[OGL LOG][StoppingCriterion.H:373] Creating stopping criterion with minIter 384 frequency 7
[OGL LOG][Proc: 0]p: generate_solver: 0.003 [ms]
[OGL LOG][Proc: 0]p: solve: 702.952 [ms]
[OGL LOG][Proc: 0]p: copy_x_back: 8.885 [ms]
[OGL LOG][lduLduBase.H:336] 
Statistics:
	Time per iteration: 1821 [mu s]
	Time per residual norm calculation: 331.000000 [mu s]
	Time per iteration and DOF: 0.072180 [ns]
	Retrieve results bandwidth 2.843000 [GByte/s]
[OGL LOG][Proc: 0]p: solve_multi_gpu: 741.063 [ms]
BJhipGKOCG:  Solving for p, Initial residual = 0.04313342773881577, Final residual = 0.0001505304859938401, No Iterations 386
[INFO] SolveP: 810.595 [ms]
time step continuity errors : sum local = 0.001210288699120078, global = -0.0002607431001401013, cumulative = 0.001144643043715714
[INFO] postSolveP: 125.719 [ms]
smoothSolver:  Solving for nuTilda, Initial residual = 0.02893727536267953, Final residual = 0.002512226093109819, No Iterations 3
[INFO] TimeStep: 9336.448 [ms]
ExecutionTime = 253.17 s  ClockTime = 253 s

Time = 18

velocityDampingConstraint velocityDamping damped 0 (0%) of cells, with max limit 300
[INFO] MatrixAssemblyU: 3192.047 [ms]
smoothSolver:  Solving for Ux, Initial residual = 0.01118965801333597, Final residual = 0.0009641821498137862, No Iterations 13
smoothSolver:  Solving for Uy, Initial residual = 0.03862552728569119, Final residual = 0.003289696641157965, No Iterations 13
smoothSolver:  Solving for Uz, Initial residual = 0.0417489828793043, Final residual = 0.004047817499644343, No Iterations 12
[INFO] MomentumPredictor: 2643.754 [ms]
[INFO] MatrixAssemblyPI: 462.629 [ms]
[INFO] MatrixAssemblyPII: 227.835 [ms]
[OGL LOG][Proc: 0]: global_index_init: 0.034 [ms]
[OGL LOG][Proc: 0]p_local_coeffs: call_update: 0 [ms]
[OGL LOG][Proc: 0]p_non_local_coeffs: call_update: 0 [ms]
[OGL LOG][Proc: 0]p: update_local_matrix_data: 56.712 [ms]
[OGL LOG][Proc: 0]p: update_non_local_matrix_data: 0.089 [ms]
[OGL LOG][Proc: 0]p_matrix: call_update: 28.131 [ms]
[OGL LOG][Proc: 0]p_rhs: call_update: 4.004 [ms]
[OGL LOG][Preconditioner.H:121] Generate preconditioner BJ MaxBlockSize 1
[OGL LOG][Proc: 0]p: init_precond: 1.144 [ms]
[OGL LOG][StoppingCriterion.H:373] Creating stopping criterion with minIter 231 frequency 5
[OGL LOG][Proc: 0]p: generate_solver: 0.002 [ms]
[OGL LOG][Proc: 0]p: solve: 521.444 [ms]
[OGL LOG][Proc: 0]p: copy_x_back: 8.795 [ms]
[OGL LOG][lduLduBase.H:336] 
Statistics:
	Time per iteration: 2036 [mu s]
	Time per residual norm calculation: 308.000000 [mu s]
	Time per iteration and DOF: 0.080702 [ns]
	Retrieve results bandwidth 2.872000 [GByte/s]
[OGL LOG][Proc: 0]p: solve_multi_gpu: 564.772 [ms]
BJhipGKOCG:  Solving for p, Initial residual = 0.04320516603222814, Final residual = 0.0004238702806108468, No Iterations 256
[INFO] SolveP: 634.6900000000001 [ms]
time step continuity errors : sum local = 0.003413874339801568, global = -0.000441744721675989, cumulative = 0.0007028983220397247
[INFO] postSolveP: 125.241 [ms]
smoothSolver:  Solving for nuTilda, Initial residual = 0.04635487238267153, Final residual = 0.004301188729987211, No Iterations 2
[INFO] TimeStep: 9158.929 [ms]
ExecutionTime = 264.94 s  ClockTime = 264 s

Time = 19

velocityDampingConstraint velocityDamping damped 0 (0%) of cells, with max limit 300
[INFO] MatrixAssemblyU: 3192.201 [ms]
smoothSolver:  Solving for Ux, Initial residual = 0.01084781988706289, Final residual = 0.0009339096982058655, No Iterations 13
smoothSolver:  Solving for Uy, Initial residual = 0.03892924511173122, Final residual = 0.003892132489845327, No Iterations 12
smoothSolver:  Solving for Uz, Initial residual = 0.0425583759377771, Final residual = 0.004101660624440281, No Iterations 12
[INFO] MomentumPredictor: 2574.029 [ms]
[INFO] MatrixAssemblyPI: 460.297 [ms]
[INFO] MatrixAssemblyPII: 230.348 [ms]
[OGL LOG][Proc: 0]: global_index_init: 0.092 [ms]
[OGL LOG][Proc: 0]p_local_coeffs: call_update: 0 [ms]
[OGL LOG][Proc: 0]p_non_local_coeffs: call_update: 0 [ms]
[OGL LOG][Proc: 0]p: update_local_matrix_data: 57.545 [ms]
[OGL LOG][Proc: 0]p: update_non_local_matrix_data: 0.08700000000000001 [ms]
[OGL LOG][Proc: 0]p_matrix: call_update: 22.403 [ms]
[OGL LOG][Proc: 0]p_rhs: call_update: 7.644 [ms]
[OGL LOG][Preconditioner.H:121] Generate preconditioner BJ MaxBlockSize 1
[OGL LOG][Proc: 0]p: init_precond: 1.076 [ms]
[OGL LOG][StoppingCriterion.H:373] Creating stopping criterion with minIter 153 frequency 4
[OGL LOG][Proc: 0]p: generate_solver: 0.003 [ms]
[OGL LOG][Proc: 0]p: solve: 672.905 [ms]
[OGL LOG][Proc: 0]p: copy_x_back: 8.676 [ms]
[OGL LOG][lduLduBase.H:336] 
Statistics:
	Time per iteration: 1906 [mu s]
	Time per residual norm calculation: 278.000000 [mu s]
	Time per iteration and DOF: 0.075549 [ns]
	Retrieve results bandwidth 2.911000 [GByte/s]
[OGL LOG][Proc: 0]p: solve_multi_gpu: 713.8770000000001 [ms]
BJhipGKOCG:  Solving for p, Initial residual = 0.0435643405603903, Final residual = 0.0004335634841454479, No Iterations 353
[INFO] SolveP: 783.169 [ms]
time step continuity errors : sum local = 0.003502553819164174, global = -0.0004889312227886138, cumulative = 0.0002139670992511109
[INFO] postSolveP: 134.324 [ms]
smoothSolver:  Solving for nuTilda, Initial residual = 0.02700818584480711, Final residual = 0.002362837298448255, No Iterations 3
[INFO] TimeStep: 9309.473 [ms]
ExecutionTime = 276.88 s  ClockTime = 276 s

Time = 20

velocityDampingConstraint velocityDamping damped 0 (0%) of cells, with max limit 300
[INFO] MatrixAssemblyU: 3196.126 [ms]
smoothSolver:  Solving for Ux, Initial residual = 0.01069607844221121, Final residual = 0.0009152322549539212, No Iterations 13
smoothSolver:  Solving for Uy, Initial residual = 0.03944022560272279, Final residual = 0.003933613987300801, No Iterations 12
smoothSolver:  Solving for Uz, Initial residual = 0.04314013865214526, Final residual = 0.004124819565783713, No Iterations 12
[INFO] MomentumPredictor: 2576.352 [ms]
[INFO] MatrixAssemblyPI: 457.77 [ms]
[INFO] MatrixAssemblyPII: 228.862 [ms]
[OGL LOG][Proc: 0]: global_index_init: 0.038 [ms]
[OGL LOG][Proc: 0]p_local_coeffs: call_update: 0 [ms]
[OGL LOG][Proc: 0]p_non_local_coeffs: call_update: 0 [ms]
[OGL LOG][Proc: 0]p: update_local_matrix_data: 57.793 [ms]
[OGL LOG][Proc: 0]p: update_non_local_matrix_data: 0.08799999999999999 [ms]
[OGL LOG][Proc: 0]p_matrix: call_update: 20.537 [ms]
[OGL LOG][Proc: 0]p_rhs: call_update: 3.52 [ms]
[OGL LOG][Preconditioner.H:121] Generate preconditioner BJ MaxBlockSize 1
[OGL LOG][Proc: 0]p: init_precond: 1.098 [ms]
[OGL LOG][StoppingCriterion.H:373] Creating stopping criterion with minIter 211 frequency 4
[OGL LOG][Proc: 0]p: generate_solver: 0.003 [ms]
[OGL LOG][Proc: 0]p: solve: 1248.007 [ms]
[OGL LOG][Proc: 0]p: copy_x_back: 8.411 [ms]
[OGL LOG][lduLduBase.H:336] 
Statistics:
	Time per iteration: 1730 [mu s]
	Time per residual norm calculation: 310.000000 [mu s]
	Time per iteration and DOF: 0.068573 [ns]
	Retrieve results bandwidth 3.003000 [GByte/s]
[OGL LOG][Proc: 0]p: solve_multi_gpu: 1283.158 [ms]
BJhipGKOCG:  Solving for p, Initial residual = 0.04355266734265989, Final residual = 0.000430382456932912, No Iterations 721
[INFO] SolveP: 1352.446 [ms]
time step continuity errors : sum local = 0.003503627217216975, global = -0.0002819648305953216, cumulative = -6.79977313442107e-05
[INFO] postSolveP: 128.796 [ms]
smoothSolver:  Solving for nuTilda, Initial residual = 0.04182217206475521, Final residual = 0.004048097393859575, No Iterations 2
[INFO] TimeStep: 9811.904 [ms]
ExecutionTime = 289.41 s  ClockTime = 289 s

Time = 21

velocityDampingConstraint velocityDamping damped 0 (0%) of cells, with max limit 300
[INFO] MatrixAssemblyU: 3189.376 [ms]
smoothSolver:  Solving for Ux, Initial residual = 0.01059613218422284, Final residual = 0.0009050280202603297, No Iterations 13
smoothSolver:  Solving for Uy, Initial residual = 0.04015828318304134, Final residual = 0.003974859135581466, No Iterations 12
smoothSolver:  Solving for Uz, Initial residual = 0.04364314222526502, Final residual = 0.004128841596252154, No Iterations 12
[INFO] MomentumPredictor: 2575.801 [ms]
[INFO] MatrixAssemblyPI: 457.143 [ms]
[INFO] MatrixAssemblyPII: 228.181 [ms]
[OGL LOG][Proc: 0]: global_index_init: 0.034 [ms]
[OGL LOG][Proc: 0]p_local_coeffs: call_update: 0 [ms]
[OGL LOG][Proc: 0]p_non_local_coeffs: call_update: 0 [ms]
[OGL LOG][Proc: 0]p: update_local_matrix_data: 57.186 [ms]
[OGL LOG][Proc: 0]p: update_non_local_matrix_data: 0.109 [ms]
[OGL LOG][Proc: 0]p_matrix: call_update: 22.152 [ms]
[OGL LOG][Proc: 0]p_rhs: call_update: 9.354000000000001 [ms]
[OGL LOG][Preconditioner.H:121] Generate preconditioner BJ MaxBlockSize 1
[OGL LOG][Proc: 0]p: init_precond: 1.064 [ms]
[OGL LOG][StoppingCriterion.H:373] Creating stopping criterion with minIter 432 frequency 7
[OGL LOG][Proc: 0]p: generate_solver: 0.002 [ms]
[OGL LOG][Proc: 0]p: solve: 780.163 [ms]
[OGL LOG][Proc: 0]p: copy_x_back: 9.202 [ms]
[OGL LOG][lduLduBase.H:336] 
Statistics:
	Time per iteration: 1793 [mu s]
	Time per residual norm calculation: 296.000000 [mu s]
	Time per iteration and DOF: 0.071070 [ns]
	Retrieve results bandwidth 2.745000 [GByte/s]
[OGL LOG][Proc: 0]p: solve_multi_gpu: 823.153 [ms]
BJhipGKOCG:  Solving for p, Initial residual = 0.04450354012542965, Final residual = 0.0002428273346217707, No Iterations 435
[INFO] SolveP: 892.268 [ms]
time step continuity errors : sum local = 0.001962868614559669, global = 0.0004145974771625712, cumulative = 0.0003465997458183605
[INFO] postSolveP: 128.039 [ms]
smoothSolver:  Solving for nuTilda, Initial residual = 0.02522792452768802, Final residual = 0.002218686328531571, No Iterations 3
[INFO] TimeStep: 9400.085999999999 [ms]
ExecutionTime = 301.46 s  ClockTime = 301 s

Time = 22

velocityDampingConstraint velocityDamping damped 0 (0%) of cells, with max limit 300
[INFO] MatrixAssemblyU: 3182.057 [ms]
smoothSolver:  Solving for Ux, Initial residual = 0.01053583334140735, Final residual = 0.001046160722459094, No Iterations 12
smoothSolver:  Solving for Uy, Initial residual = 0.04064689102808097, Final residual = 0.003988126456222743, No Iterations 12
smoothSolver:  Solving for Uz, Initial residual = 0.04341698864837058, Final residual = 0.004083947017644383, No Iterations 12
[INFO] MomentumPredictor: 2532.242 [ms]
[INFO] MatrixAssemblyPI: 456.156 [ms]
[INFO] MatrixAssemblyPII: 228.109 [ms]
[OGL LOG][Proc: 0]: global_index_init: 0.039 [ms]
[OGL LOG][Proc: 0]p_local_coeffs: call_update: 0 [ms]
[OGL LOG][Proc: 0]p_non_local_coeffs: call_update: 0 [ms]
[OGL LOG][Proc: 0]p: update_local_matrix_data: 56.463 [ms]
[OGL LOG][Proc: 0]p: update_non_local_matrix_data: 0.08400000000000001 [ms]
[OGL LOG][Proc: 0]p_matrix: call_update: 21.667 [ms]
[OGL LOG][Proc: 0]p_rhs: call_update: 5.608000000000001 [ms]
[OGL LOG][Preconditioner.H:121] Generate preconditioner BJ MaxBlockSize 1
[OGL LOG][Proc: 0]p: init_precond: 1.122 [ms]
[OGL LOG][StoppingCriterion.H:373] Creating stopping criterion with minIter 261 frequency 5
[OGL LOG][Proc: 0]p: generate_solver: 0.003 [ms]
[OGL LOG][Proc: 0]p: solve: 1286.658 [ms]
[OGL LOG][Proc: 0]p: copy_x_back: 8.936999999999999 [ms]
[OGL LOG][lduLduBase.H:336] 
Statistics:
	Time per iteration: 1701 [mu s]
	Time per residual norm calculation: 319.000000 [mu s]
	Time per iteration and DOF: 0.067424 [ns]
	Retrieve results bandwidth 2.826000 [GByte/s]
[OGL LOG][Proc: 0]p: solve_multi_gpu: 1325.168 [ms]
BJhipGKOCG:  Solving for p, Initial residual = 0.04440518952688165, Final residual = 0.0004434820127931524, No Iterations 756
[INFO] SolveP: 1392.734 [ms]
time step continuity errors : sum local = 0.003622161929999155, global = -7.501947027158646e-05, cumulative = 0.0002715802755467741
[INFO] postSolveP: 127.605 [ms]
smoothSolver:  Solving for nuTilda, Initial residual = 0.03796270711557511, Final residual = 0.002018803806290466, No Iterations 3
[INFO] TimeStep: 9851.495000000001 [ms]
ExecutionTime = 314.04 s  ClockTime = 313 s

Time = 23

velocityDampingConstraint velocityDamping damped 0 (0%) of cells, with max limit 300
[INFO] MatrixAssemblyU: 3185.828 [ms]
smoothSolver:  Solving for Ux, Initial residual = 0.01037859300442936, Final residual = 0.001036408271117787, No Iterations 12
smoothSolver:  Solving for Uy, Initial residual = 0.04131234207357887, Final residual = 0.003981725770487466, No Iterations 12
smoothSolver:  Solving for Uz, Initial residual = 0.04313660146137115, Final residual = 0.004001503321042288, No Iterations 12
[INFO] MomentumPredictor: 2529.938 [ms]
[INFO] MatrixAssemblyPI: 461.753 [ms]
[INFO] MatrixAssemblyPII: 229.528 [ms]
[OGL LOG][Proc: 0]: global_index_init: 0.142 [ms]
[OGL LOG][Proc: 0]p_local_coeffs: call_update: 0 [ms]
[OGL LOG][Proc: 0]p_non_local_coeffs: call_update: 0 [ms]
[OGL LOG][Proc: 0]p: update_local_matrix_data: 56.411 [ms]
[OGL LOG][Proc: 0]p: update_non_local_matrix_data: 0.08700000000000001 [ms]
[OGL LOG][Proc: 0]p_matrix: call_update: 24.216 [ms]
[OGL LOG][Proc: 0]p_rhs: call_update: 3.682 [ms]
[OGL LOG][Preconditioner.H:121] Generate preconditioner BJ MaxBlockSize 1
[OGL LOG][Proc: 0]p: init_precond: 1.101 [ms]
[OGL LOG][StoppingCriterion.H:373] Creating stopping criterion with minIter 453 frequency 7
[OGL LOG][Proc: 0]p: generate_solver: 0.003 [ms]
[OGL LOG][Proc: 0]p: solve: 816.644 [ms]
[OGL LOG][Proc: 0]p: copy_x_back: 8.925000000000001 [ms]
[OGL LOG][lduLduBase.H:336] 
Statistics:
	Time per iteration: 1790 [mu s]
	Time per residual norm calculation: 326.000000 [mu s]
	Time per iteration and DOF: 0.070951 [ns]
	Retrieve results bandwidth 2.830000 [GByte/s]
[OGL LOG][Proc: 0]p: solve_multi_gpu: 855.768 [ms]
BJhipGKOCG:  Solving for p, Initial residual = 0.0429176838828477, Final residual = 9.965262614572682e-05, No Iterations 456
[INFO] SolveP: 924.659 [ms]
time step continuity errors : sum local = 0.0008501569693667645, global = 5.366774688434015e-05, cumulative = 0.0003252480224311142
[INFO] postSolveP: 127.898 [ms]
smoothSolver:  Solving for nuTilda, Initial residual = 0.02340222168209383, Final residual = 0.002087357599093848, No Iterations 3
[INFO] TimeStep: 9390.450000000001 [ms]
ExecutionTime = 326.09 s  ClockTime = 325 s

Time = 24

velocityDampingConstraint velocityDamping damped 0 (0%) of cells, with max limit 300
[INFO] MatrixAssemblyU: 3176.7 [ms]
smoothSolver:  Solving for Ux, Initial residual = 0.01038327034262677, Final residual = 0.001031338564635428, No Iterations 12
smoothSolver:  Solving for Uy, Initial residual = 0.0418098124085355, Final residual = 0.00401342950055098, No Iterations 12
smoothSolver:  Solving for Uz, Initial residual = 0.04249831740624742, Final residual = 0.003918668874277711, No Iterations 12
[INFO] MomentumPredictor: 2517.4 [ms]
[INFO] MatrixAssemblyPI: 457.925 [ms]
[INFO] MatrixAssemblyPII: 228.454 [ms]
[OGL LOG][Proc: 0]: global_index_init: 0.032 [ms]
[OGL LOG][Proc: 0]p_local_coeffs: call_update: 0 [ms]
[OGL LOG][Proc: 0]p_non_local_coeffs: call_update: 0 [ms]
[OGL LOG][Proc: 0]p: update_local_matrix_data: 56.482 [ms]
[OGL LOG][Proc: 0]p: update_non_local_matrix_data: 0.08400000000000001 [ms]
[OGL LOG][Proc: 0]p_matrix: call_update: 18.961 [ms]
[OGL LOG][Proc: 0]p_rhs: call_update: 7.705 [ms]
[OGL LOG][Preconditioner.H:121] Generate preconditioner BJ MaxBlockSize 1
[OGL LOG][Proc: 0]p: init_precond: 1.065 [ms]
[OGL LOG][StoppingCriterion.H:373] Creating stopping criterion with minIter 273 frequency 6
[OGL LOG][Proc: 0]p: generate_solver: 0.004 [ms]
[OGL LOG][Proc: 0]p: solve: 608.018 [ms]
[OGL LOG][Proc: 0]p: copy_x_back: 8.915000000000001 [ms]
[OGL LOG][lduLduBase.H:336] 
Statistics:
	Time per iteration: 1906 [mu s]
	Time per residual norm calculation: 320.000000 [mu s]
	Time per iteration and DOF: 0.075549 [ns]
	Retrieve results bandwidth 2.833000 [GByte/s]
[OGL LOG][Proc: 0]p: solve_multi_gpu: 645.86 [ms]
BJhipGKOCG:  Solving for p, Initial residual = 0.04273018335125769, Final residual = 0.0004177127253224363, No Iterations 319
[INFO] SolveP: 717.785 [ms]
time step continuity errors : sum local = 0.003598292821879996, global = 6.005988435756124e-05, cumulative = 0.0003853079067886755
[INFO] postSolveP: 125.655 [ms]
smoothSolver:  Solving for nuTilda, Initial residual = 0.03445451012354109, Final residual = 0.001909396541809086, No Iterations 3
[INFO] TimeStep: 9154.743 [ms]
ExecutionTime = 337.86 s  ClockTime = 337 s

Time = 25

velocityDampingConstraint velocityDamping damped 0 (0%) of cells, with max limit 300
[INFO] MatrixAssemblyU: 3184.617 [ms]
smoothSolver:  Solving for Ux, Initial residual = 0.01034327477116568, Final residual = 0.0008825655555243746, No Iterations 13
smoothSolver:  Solving for Uy, Initial residual = 0.04265465941622518, Final residual = 0.00411191713092422, No Iterations 12
smoothSolver:  Solving for Uz, Initial residual = 0.04237242456946488, Final residual = 0.003893709302067761, No Iterations 12
[INFO] MomentumPredictor: 2570.441 [ms]
[INFO] MatrixAssemblyPI: 457.511 [ms]
[INFO] MatrixAssemblyPII: 228.553 [ms]
[OGL LOG][Proc: 0]: global_index_init: 0.037 [ms]
[OGL LOG][Proc: 0]p_local_coeffs: call_update: 0 [ms]
[OGL LOG][Proc: 0]p_non_local_coeffs: call_update: 0 [ms]
[OGL LOG][Proc: 0]p: update_local_matrix_data: 57.062 [ms]
[OGL LOG][Proc: 0]p: update_non_local_matrix_data: 0.094 [ms]
[OGL LOG][Proc: 0]p_matrix: call_update: 20.092 [ms]
[OGL LOG][Proc: 0]p_rhs: call_update: 6.172 [ms]
[OGL LOG][Preconditioner.H:121] Generate preconditioner BJ MaxBlockSize 1
[OGL LOG][Proc: 0]p: init_precond: 1.055 [ms]
[OGL LOG][StoppingCriterion.H:373] Creating stopping criterion with minIter 191 frequency 5
[OGL LOG][Proc: 0]p: generate_solver: 0.003 [ms]
[OGL LOG][Proc: 0]p: solve: 663.557 [ms]
[OGL LOG][Proc: 0]p: copy_x_back: 8.73 [ms]
[OGL LOG][lduLduBase.H:336] 
Statistics:
	Time per iteration: 1917 [mu s]
	Time per residual norm calculation: 284.000000 [mu s]
	Time per iteration and DOF: 0.075985 [ns]
	Retrieve results bandwidth 2.893000 [GByte/s]
[OGL LOG][Proc: 0]p: solve_multi_gpu: 701.001 [ms]
BJhipGKOCG:  Solving for p, Initial residual = 0.04233482780640627, Final residual = 0.0004123015072108101, No Iterations 346
[INFO] SolveP: 769.475 [ms]
time step continuity errors : sum local = 0.003591324794027844, global = 0.0001483125960892642, cumulative = 0.0005336205028779398
[INFO] postSolveP: 127.244 [ms]
smoothSolver:  Solving for nuTilda, Initial residual = 0.02153676919351218, Final residual = 0.001955959921646934, No Iterations 3
[INFO] TimeStep: 9267.923000000001 [ms]
ExecutionTime = 349.76 s  ClockTime = 349 s

Time = 26

velocityDampingConstraint velocityDamping damped 0 (0%) of cells, with max limit 300
[INFO] MatrixAssemblyU: 3185.426 [ms]
smoothSolver:  Solving for Ux, Initial residual = 0.01041064997245023, Final residual = 0.001034529068700565, No Iterations 12
smoothSolver:  Solving for Uy, Initial residual = 0.04363863627064511, Final residual = 0.004261153880237633, No Iterations 12
smoothSolver:  Solving for Uz, Initial residual = 0.04235211248107711, Final residual = 0.003929768821683712, No Iterations 12
[INFO] MomentumPredictor: 2521.19 [ms]
[INFO] MatrixAssemblyPI: 459.614 [ms]
[INFO] MatrixAssemblyPII: 228.18 [ms]
[OGL LOG][Proc: 0]: global_index_init: 0.049 [ms]
[OGL LOG][Proc: 0]p_local_coeffs: call_update: 0 [ms]
[OGL LOG][Proc: 0]p_non_local_coeffs: call_update: 0 [ms]
[OGL LOG][Proc: 0]p: update_local_matrix_data: 56.503 [ms]
[OGL LOG][Proc: 0]p: update_non_local_matrix_data: 0.091 [ms]
[OGL LOG][Proc: 0]p_matrix: call_update: 24.763 [ms]
[OGL LOG][Proc: 0]p_rhs: call_update: 11.927 [ms]
[OGL LOG][Preconditioner.H:121] Generate preconditioner BJ MaxBlockSize 1
[OGL LOG][Proc: 0]p: init_precond: 1.169 [ms]
[OGL LOG][StoppingCriterion.H:373] Creating stopping criterion with minIter 207 frequency 4
[OGL LOG][Proc: 0]p: generate_solver: 0.003 [ms]
[OGL LOG][Proc: 0]p: solve: 636.241 [ms]
[OGL LOG][Proc: 0]p: copy_x_back: 8.960000000000001 [ms]
[OGL LOG][lduLduBase.H:336] 
Statistics:
	Time per iteration: 1910 [mu s]
	Time per residual norm calculation: 313.000000 [mu s]
	Time per iteration and DOF: 0.075708 [ns]
	Retrieve results bandwidth 2.819000 [GByte/s]
[OGL LOG][Proc: 0]p: solve_multi_gpu: 684.5020000000001 [ms]
BJhipGKOCG:  Solving for p, Initial residual = 0.04187235827988955, Final residual = 0.0004088523440001569, No Iterations 333
[INFO] SolveP: 754.577 [ms]
time step continuity errors : sum local = 0.003612819577057234, global = 0.000192026565089834, cumulative = 0.0007256470679677738
[INFO] postSolveP: 124.936 [ms]
smoothSolver:  Solving for nuTilda, Initial residual = 0.03148176063702201, Final residual = 0.00180345759970263, No Iterations 3
[INFO] TimeStep: 9207.945 [ms]
ExecutionTime = 361.59 s  ClockTime = 360 s

Time = 27

velocityDampingConstraint velocityDamping damped 0 (0%) of cells, with max limit 300
[INFO] MatrixAssemblyU: 3186.766 [ms]
smoothSolver:  Solving for Ux, Initial residual = 0.01041415649138581, Final residual = 0.001035608223239451, No Iterations 12
smoothSolver:  Solving for Uy, Initial residual = 0.04466964126376799, Final residual = 0.004428292828519155, No Iterations 12
smoothSolver:  Solving for Uz, Initial residual = 0.04260593843230112, Final residual = 0.00400465564735362, No Iterations 12
[INFO] MomentumPredictor: 2531.935 [ms]
[INFO] MatrixAssemblyPI: 462.326 [ms]
[INFO] MatrixAssemblyPII: 228.483 [ms]
[OGL LOG][Proc: 0]: global_index_init: 0.102 [ms]
[OGL LOG][Proc: 0]p_local_coeffs: call_update: 0 [ms]
[OGL LOG][Proc: 0]p_non_local_coeffs: call_update: 0 [ms]
[OGL LOG][Proc: 0]p: update_local_matrix_data: 56.231 [ms]
[OGL LOG][Proc: 0]p: update_non_local_matrix_data: 0.08700000000000001 [ms]
[OGL LOG][Proc: 0]p_matrix: call_update: 19.768 [ms]
[OGL LOG][Proc: 0]p_rhs: call_update: 8.958 [ms]
[OGL LOG][Preconditioner.H:121] Generate preconditioner BJ MaxBlockSize 1
[OGL LOG][Proc: 0]p: init_precond: 1.082 [ms]
[OGL LOG][StoppingCriterion.H:373] Creating stopping criterion with minIter 199 frequency 4
[OGL LOG][Proc: 0]p: generate_solver: 0.002 [ms]
[OGL LOG][Proc: 0]p: solve: 644.136 [ms]
[OGL LOG][Proc: 0]p: copy_x_back: 8.554 [ms]
[OGL LOG][lduLduBase.H:336] 
Statistics:
	Time per iteration: 1911 [mu s]
	Time per residual norm calculation: 312.000000 [mu s]
	Time per iteration and DOF: 0.075748 [ns]
	Retrieve results bandwidth 2.953000 [GByte/s]
[OGL LOG][Proc: 0]p: solve_multi_gpu: 684.013 [ms]
BJhipGKOCG:  Solving for p, Initial residual = 0.04219008418845949, Final residual = 0.0004095240203115741, No Iterations 337
[INFO] SolveP: 756.686 [ms]
time step continuity errors : sum local = 0.003660670928886672, global = 0.0003119302111403967, cumulative = 0.001037577279108171
[INFO] postSolveP: 125.11 [ms]
smoothSolver:  Solving for nuTilda, Initial residual = 0.01984008360450428, Final residual = 0.001830666616898332, No Iterations 3
[INFO] TimeStep: 9230.191000000001 [ms]
ExecutionTime = 373.45 s  ClockTime = 372 s

Time = 28

velocityDampingConstraint velocityDamping damped 0 (0%) of cells, with max limit 300
[INFO] MatrixAssemblyU: 3184.177 [ms]
smoothSolver:  Solving for Ux, Initial residual = 0.01055546693825164, Final residual = 0.001038879858218491, No Iterations 12
smoothSolver:  Solving for Uy, Initial residual = 0.04602063621322692, Final residual = 0.003928431394921655, No Iterations 13
smoothSolver:  Solving for Uz, Initial residual = 0.04357934086707964, Final residual = 0.004116369019198876, No Iterations 12
[INFO] MomentumPredictor: 2574.152 [ms]
[INFO] MatrixAssemblyPI: 456.583 [ms]
[INFO] MatrixAssemblyPII: 229.271 [ms]
[OGL LOG][Proc: 0]: global_index_init: 0.035 [ms]
[OGL LOG][Proc: 0]p_local_coeffs: call_update: 0 [ms]
[OGL LOG][Proc: 0]p_non_local_coeffs: call_update: 0 [ms]
[OGL LOG][Proc: 0]p: update_local_matrix_data: 57.64 [ms]
[OGL LOG][Proc: 0]p: update_non_local_matrix_data: 0.08799999999999999 [ms]
[OGL LOG][Proc: 0]p_matrix: call_update: 22.221 [ms]
[OGL LOG][Proc: 0]p_rhs: call_update: 8.586 [ms]
[OGL LOG][Preconditioner.H:121] Generate preconditioner BJ MaxBlockSize 1
[OGL LOG][Proc: 0]p: init_precond: 1.142 [ms]
[OGL LOG][StoppingCriterion.H:373] Creating stopping criterion with minIter 202 frequency 4
[OGL LOG][Proc: 0]p: generate_solver: 0.003 [ms]
[OGL LOG][Proc: 0]p: solve: 640.931 [ms]
[OGL LOG][Proc: 0]p: copy_x_back: 8.979000000000001 [ms]
[OGL LOG][lduLduBase.H:336] 
Statistics:
	Time per iteration: 1924 [mu s]
	Time per residual norm calculation: 311.000000 [mu s]
	Time per iteration and DOF: 0.076263 [ns]
	Retrieve results bandwidth 2.813000 [GByte/s]
[OGL LOG][Proc: 0]p: solve_multi_gpu: 682.9830000000001 [ms]
BJhipGKOCG:  Solving for p, Initial residual = 0.04311184747940787, Final residual = 0.0004200420823271517, No Iterations 333
[INFO] SolveP: 752.356 [ms]
time step continuity errors : sum local = 0.003803323682910793, global = 0.0004280113661176807, cumulative = 0.001465588645225851
[INFO] postSolveP: 125.429 [ms]
smoothSolver:  Solving for nuTilda, Initial residual = 0.02894976284978558, Final residual = 0.001696650580979515, No Iterations 3
[INFO] TimeStep: 9254.962 [ms]
ExecutionTime = 385.33 s  ClockTime = 384 s

Time = 29

velocityDampingConstraint velocityDamping damped 0 (0%) of cells, with max limit 300
[INFO] MatrixAssemblyU: 3182.637 [ms]
smoothSolver:  Solving for Ux, Initial residual = 0.01059106303146417, Final residual = 0.001040136624079812, No Iterations 12
smoothSolver:  Solving for Uy, Initial residual = 0.04757381000271983, Final residual = 0.004064893116989888, No Iterations 13
smoothSolver:  Solving for Uz, Initial residual = 0.04498608607058854, Final residual = 0.004256974097060485, No Iterations 12
[INFO] MomentumPredictor: 2579.419 [ms]
[INFO] MatrixAssemblyPI: 455.492 [ms]
[INFO] MatrixAssemblyPII: 229.591 [ms]
[OGL LOG][Proc: 0]: global_index_init: 0.035 [ms]
[OGL LOG][Proc: 0]p_local_coeffs: call_update: 0 [ms]
[OGL LOG][Proc: 0]p_non_local_coeffs: call_update: 0 [ms]
[OGL LOG][Proc: 0]p: update_local_matrix_data: 58.156 [ms]
[OGL LOG][Proc: 0]p: update_non_local_matrix_data: 0.091 [ms]
[OGL LOG][Proc: 0]p_matrix: call_update: 29.152 [ms]
[OGL LOG][Proc: 0]p_rhs: call_update: 2.576 [ms]
[OGL LOG][Preconditioner.H:121] Generate preconditioner BJ MaxBlockSize 1
[OGL LOG][Proc: 0]p: init_precond: 1.103 [ms]
[OGL LOG][StoppingCriterion.H:373] Creating stopping criterion with minIter 199 frequency 4
[OGL LOG][Proc: 0]p: generate_solver: 0.003 [ms]
[OGL LOG][Proc: 0]p: solve: 646.735 [ms]
[OGL LOG][Proc: 0]p: copy_x_back: 8.755000000000001 [ms]
[OGL LOG][lduLduBase.H:336] 
Statistics:
	Time per iteration: 1942 [mu s]
	Time per residual norm calculation: 278.000000 [mu s]
	Time per iteration and DOF: 0.076976 [ns]
	Retrieve results bandwidth 2.885000 [GByte/s]
[OGL LOG][Proc: 0]p: solve_multi_gpu: 689.461 [ms]
BJhipGKOCG:  Solving for p, Initial residual = 0.04401285131922198, Final residual = 0.0004393615883307646, No Iterations 333
[INFO] SolveP: 759.022 [ms]
time step continuity errors : sum local = 0.004028321549557319, global = 0.0005497481068632686, cumulative = 0.00201533675208912
[INFO] postSolveP: 127.671 [ms]
smoothSolver:  Solving for nuTilda, Initial residual = 0.01835135816392683, Final residual = 0.001707364410815787, No Iterations 3
[INFO] TimeStep: 9263.835999999999 [ms]
ExecutionTime = 397.22 s  ClockTime = 396 s

Time = 30

velocityDampingConstraint velocityDamping damped 0 (0%) of cells, with max limit 300
[INFO] MatrixAssemblyU: 3179.37 [ms]
smoothSolver:  Solving for Ux, Initial residual = 0.01078333351944785, Final residual = 0.001045156924107015, No Iterations 12
smoothSolver:  Solving for Uy, Initial residual = 0.04963491288392002, Final residual = 0.004947548689517303, No Iterations 12
smoothSolver:  Solving for Uz, Initial residual = 0.04657927295338283, Final residual = 0.004388490262636904, No Iterations 12
[INFO] MomentumPredictor: 2537.161 [ms]
[INFO] MatrixAssemblyPI: 454.993 [ms]
[INFO] MatrixAssemblyPII: 228.884 [ms]
[OGL LOG][Proc: 0]: global_index_init: 0.057 [ms]
[OGL LOG][Proc: 0]p_local_coeffs: call_update: 0 [ms]
[OGL LOG][Proc: 0]p_non_local_coeffs: call_update: 0 [ms]
[OGL LOG][Proc: 0]p: update_local_matrix_data: 56.462 [ms]
[OGL LOG][Proc: 0]p: update_non_local_matrix_data: 0.08500000000000001 [ms]
[OGL LOG][Proc: 0]p_matrix: call_update: 21.039 [ms]
[OGL LOG][Proc: 0]p_rhs: call_update: 6.011 [ms]
[OGL LOG][Preconditioner.H:121] Generate preconditioner BJ MaxBlockSize 1
[OGL LOG][Proc: 0]p: init_precond: 1.055 [ms]
[OGL LOG][StoppingCriterion.H:373] Creating stopping criterion with minIter 199 frequency 4
[OGL LOG][Proc: 0]p: generate_solver: 0.002 [ms]
[OGL LOG][Proc: 0]p: solve: 528.567 [ms]
[OGL LOG][Proc: 0]p: copy_x_back: 8.954000000000001 [ms]
[OGL LOG][lduLduBase.H:336] 
Statistics:
	Time per iteration: 2056 [mu s]
	Time per residual norm calculation: 309.000000 [mu s]
	Time per iteration and DOF: 0.081495 [ns]
	Retrieve results bandwidth 2.821000 [GByte/s]
[OGL LOG][Proc: 0]p: solve_multi_gpu: 566.821 [ms]
BJhipGKOCG:  Solving for p, Initial residual = 0.0448446468044278, Final residual = 0.0004441845282565242, No Iterations 257
[INFO] SolveP: 636.271 [ms]
time step continuity errors : sum local = 0.004129305339543868, global = 0.000696344595197147, cumulative = 0.002711681347286267
[INFO] postSolveP: 126.4 [ms]
smoothSolver:  Solving for nuTilda, Initial residual = 0.02676203230846638, Final residual = 0.001589463099065553, No Iterations 3
[INFO] TimeStep: 9097.209000000001 [ms]
ExecutionTime = 408.92 s  ClockTime = 408 s

Time = 31

velocityDampingConstraint velocityDamping damped 0 (0%) of cells, with max limit 300
[INFO] MatrixAssemblyU: 3182.583 [ms]
smoothSolver:  Solving for Ux, Initial residual = 0.01083772189738069, Final residual = 0.001049109174292299, No Iterations 12
smoothSolver:  Solving for Uy, Initial residual = 0.05205657046700514, Final residual = 0.00516979585885866, No Iterations 12
smoothSolver:  Solving for Uz, Initial residual = 0.04819130454966372, Final residual = 0.004529439724495186, No Iterations 12
[INFO] MomentumPredictor: 2532.556 [ms]
[INFO] MatrixAssemblyPI: 458.934 [ms]
[INFO] MatrixAssemblyPII: 232.289 [ms]
[OGL LOG][Proc: 0]: global_index_init: 0.098 [ms]
[OGL LOG][Proc: 0]p_local_coeffs: call_update: 0 [ms]
[OGL LOG][Proc: 0]p_non_local_coeffs: call_update: 0 [ms]
[OGL LOG][Proc: 0]p: update_local_matrix_data: 57.258 [ms]
[...]
time step continuity errors : sum local = 0.005748729671052328, global = -0.0003603552829200688, cumulative = 0.007771471185750761
[INFO] postSolveP: 126.454 [ms]
smoothSolver:  Solving for nuTilda, Initial residual = 0.01295317579634889, Final residual = 0.001159037182521276, No Iterations 3
[INFO] TimeStep: 9074.696 [ms]
ExecutionTime = 537.65 s  ClockTime = 536 s

Time = 42

velocityDampingConstraint velocityDamping damped 0 (0%) of cells, with max limit 300
[INFO] MatrixAssemblyU: 3166.379 [ms]
smoothSolver:  Solving for Ux, Initial residual = 0.01212392555703177, Final residual = 0.001198692512340703, No Iterations 12
smoothSolver:  Solving for Uy, Initial residual = 0.07119268563416141, Final residual = 0.006601708483665191, No Iterations 13
smoothSolver:  Solving for Uz, Initial residual = 0.07113554857365287, Final residual = 0.007083200900602634, No Iterations 12
[INFO] MomentumPredictor: 2587.447 [ms]
[INFO] MatrixAssemblyPI: 455.572 [ms]
[INFO] MatrixAssemblyPII: 228.78 [ms]
[OGL LOG][Proc: 0]: global_index_init: 0.037 [ms]
[OGL LOG][Proc: 0]p_local_coeffs: call_update: 0 [ms]
[OGL LOG][Proc: 0]p_non_local_coeffs: call_update: 0 [ms]
[OGL LOG][Proc: 0]p: update_local_matrix_data: 56.236 [ms]
[OGL LOG][Proc: 0]p: update_non_local_matrix_data: 0.08700000000000001 [ms]
[OGL LOG][Proc: 0]p_matrix: call_update: 26.319 [ms]
[OGL LOG][Proc: 0]p_rhs: call_update: 9.802 [ms]
[OGL LOG][Preconditioner.H:121] Generate preconditioner BJ MaxBlockSize 1
[OGL LOG][Proc: 0]p: init_precond: 1.078 [ms]
[OGL LOG][StoppingCriterion.H:373] Creating stopping criterion with minIter 142 frequency 3
[OGL LOG][Proc: 0]p: generate_solver: 0.002 [ms]
[OGL LOG][Proc: 0]p: solve: 481.648 [ms]
[OGL LOG][Proc: 0]p: copy_x_back: 8.757 [ms]
[OGL LOG][lduLduBase.H:336] 
Statistics:
	Time per iteration: 2103 [mu s]
	Time per residual norm calculation: 305.000000 [mu s]
	Time per iteration and DOF: 0.083358 [ns]
	Retrieve results bandwidth 2.884000 [GByte/s]
[OGL LOG][Proc: 0]p: solve_multi_gpu: 529.037 [ms]
BJhipGKOCG:  Solving for p, Initial residual = 0.05682286613448331, Final residual = 0.0005634471212762764, No Iterations 229
[INFO] SolveP: 597.873 [ms]
time step continuity errors : sum local = 0.005701210978632686, global = -0.000587905128757862, cumulative = 0.007183566056992899
[INFO] postSolveP: 125.923 [ms]
smoothSolver:  Solving for nuTilda, Initial residual = 0.01845848691819103, Final residual = 0.001112541256167929, No Iterations 3
[INFO] TimeStep: 9083.615 [ms]
ExecutionTime = 549.3099999999999 s  ClockTime = 548 s

Time = 43

velocityDampingConstraint velocityDamping damped 0 (0%) of cells, with max limit 300
[INFO] MatrixAssemblyU: 3171.456 [ms]
smoothSolver:  Solving for Ux, Initial residual = 0.01201809406420452, Final residual = 0.001025727544910847, No Iterations 13
smoothSolver:  Solving for Uy, Initial residual = 0.07189083497204148, Final residual = 0.006817626415518475, No Iterations 13
smoothSolver:  Solving for Uz, Initial residual = 0.07101972587709469, Final residual = 0.006137029303445804, No Iterations 13
[INFO] MomentumPredictor: 2695.833 [ms]
[INFO] MatrixAssemblyPI: 457.499 [ms]
[INFO] MatrixAssemblyPII: 231.883 [ms]
[OGL LOG][Proc: 0]: global_index_init: 0.044 [ms]
[OGL LOG][Proc: 0]p_local_coeffs: call_update: 0 [ms]
[OGL LOG][Proc: 0]p_non_local_coeffs: call_update: 0 [ms]
[OGL LOG][Proc: 0]p: update_local_matrix_data: 56.038 [ms]
[OGL LOG][Proc: 0]p: update_non_local_matrix_data: 0.08700000000000001 [ms]
[OGL LOG][Proc: 0]p_matrix: call_update: 33.943 [ms]
[OGL LOG][Proc: 0]p_rhs: call_update: 3.371 [ms]
[OGL LOG][Preconditioner.H:121] Generate preconditioner BJ MaxBlockSize 1
[OGL LOG][Proc: 0]p: init_precond: 1.1 [ms]
[OGL LOG][StoppingCriterion.H:373] Creating stopping criterion with minIter 137 frequency 3
[OGL LOG][Proc: 0]p: generate_solver: 0.002 [ms]
[OGL LOG][Proc: 0]p: solve: 505.373 [ms]
[OGL LOG][Proc: 0]p: copy_x_back: 9 [ms]
[OGL LOG][lduLduBase.H:336] 
Statistics:
	Time per iteration: 2071 [mu s]
	Time per residual norm calculation: 313.000000 [mu s]
	Time per iteration and DOF: 0.082090 [ns]
	Retrieve results bandwidth 2.806000 [GByte/s]
[OGL LOG][Proc: 0]p: solve_multi_gpu: 553.931 [ms]
BJhipGKOCG:  Solving for p, Initial residual = 0.05624025522660871, Final residual = 0.0005574673848241679, No Iterations 244
[INFO] SolveP: 624.479 [ms]
time step continuity errors : sum local = 0.005621703158669777, global = -0.000834164374859614, cumulative = 0.006349401682133285
[INFO] postSolveP: 128.225 [ms]
smoothSolver:  Solving for nuTilda, Initial residual = 0.01236173517056693, Final residual = 0.001102612557515186, No Iterations 3
[INFO] TimeStep: 9235.041999999999 [ms]
ExecutionTime = 561.12 s  ClockTime = 560 s

Time = 44

velocityDampingConstraint velocityDamping damped 0 (0%) of cells, with max limit 300
[INFO] MatrixAssemblyU: 3164.403 [ms]
smoothSolver:  Solving for Ux, Initial residual = 0.01202796378057661, Final residual = 0.001034368492559694, No Iterations 13
smoothSolver:  Solving for Uy, Initial residual = 0.07240408085537864, Final residual = 0.007036922342914869, No Iterations 13
smoothSolver:  Solving for Uz, Initial residual = 0.07025909334947006, Final residual = 0.006199791635062569, No Iterations 13
[INFO] MomentumPredictor: 2696.661 [ms]
[INFO] MatrixAssemblyPI: 455.654 [ms]
[INFO] MatrixAssemblyPII: 228.698 [ms]
[OGL LOG][Proc: 0]: global_index_init: 0.045 [ms]
[OGL LOG][Proc: 0]p_local_coeffs: call_update: 0 [ms]
[OGL LOG][Proc: 0]p_non_local_coeffs: call_update: 0 [ms]
[OGL LOG][Proc: 0]p: update_local_matrix_data: 56.275 [ms]
[OGL LOG][Proc: 0]p: update_non_local_matrix_data: 0.082 [ms]
[OGL LOG][Proc: 0]p_matrix: call_update: 21.627 [ms]
[OGL LOG][Proc: 0]p_rhs: call_update: 6.302 [ms]
[OGL LOG][Preconditioner.H:121] Generate preconditioner BJ MaxBlockSize 1
[OGL LOG][Proc: 0]p: init_precond: 1.067 [ms]
[OGL LOG][StoppingCriterion.H:373] Creating stopping criterion with minIter 146 frequency 4
[OGL LOG][Proc: 0]p: generate_solver: 0.002 [ms]
[OGL LOG][Proc: 0]p: solve: 1039.856 [ms]
[OGL LOG][Proc: 0]p: copy_x_back: 9.145 [ms]
[OGL LOG][lduLduBase.H:336] 
Statistics:
	Time per iteration: 1777 [mu s]
	Time per residual norm calculation: 309.000000 [mu s]
	Time per iteration and DOF: 0.070436 [ns]
	Retrieve results bandwidth 2.762000 [GByte/s]
[OGL LOG][Proc: 0]p: solve_multi_gpu: 1079.13 [ms]
BJhipGKOCG:  Solving for p, Initial residual = 0.05556496731386562, Final residual = 0.0005485253965248925, No Iterations 585
[INFO] SolveP: 1146.645 [ms]
time step continuity errors : sum local = 0.005489535307721015, global = -8.578283657088812e-05, cumulative = 0.006263618845562396
[INFO] postSolveP: 126.036 [ms]
smoothSolver:  Solving for nuTilda, Initial residual = 0.01751658527009446, Final residual = 0.001060397358279852, No Iterations 3
[INFO] TimeStep: 9742.800999999999 [ms]
ExecutionTime = 573.53 s  ClockTime = 572 s

Time = 45

velocityDampingConstraint velocityDamping damped 0 (0%) of cells, with max limit 300
[INFO] MatrixAssemblyU: 3166.847 [ms]
smoothSolver:  Solving for Ux, Initial residual = 0.01207130164870631, Final residual = 0.001045000097326677, No Iterations 13
smoothSolver:  Solving for Uy, Initial residual = 0.0728028990104309, Final residual = 0.007171847050653507, No Iterations 13
smoothSolver:  Solving for Uz, Initial residual = 0.06970212224848911, Final residual = 0.006260270759780407, No Iterations 13
[INFO] MomentumPredictor: 2697.792 [ms]
[INFO] MatrixAssemblyPI: 456.246 [ms]
[INFO] MatrixAssemblyPII: 228.774 [ms]
[OGL LOG][Proc: 0]: global_index_init: 0.034 [ms]
[OGL LOG][Proc: 0]p_local_coeffs: call_update: 0 [ms]
[OGL LOG][Proc: 0]p_non_local_coeffs: call_update: 0 [ms]
[OGL LOG][Proc: 0]p: update_local_matrix_data: 57.084 [ms]
[OGL LOG][Proc: 0]p: update_non_local_matrix_data: 0.08400000000000001 [ms]
[OGL LOG][Proc: 0]p_matrix: call_update: 22.239 [ms]
[OGL LOG][Proc: 0]p_rhs: call_update: 5.531 [ms]
[OGL LOG][Preconditioner.H:121] Generate preconditioner BJ MaxBlockSize 1
[OGL LOG][Proc: 0]p: init_precond: 1.068 [ms]
[OGL LOG][StoppingCriterion.H:373] Creating stopping criterion with minIter 351 frequency 6
[OGL LOG][Proc: 0]p: generate_solver: 0.002 [ms]
[OGL LOG][Proc: 0]p: solve: 671.523 [ms]
[OGL LOG][Proc: 0]p: copy_x_back: 8.584 [ms]
[OGL LOG][lduLduBase.H:336] 
Statistics:
	Time per iteration: 1891 [mu s]
	Time per residual norm calculation: 340.000000 [mu s]
	Time per iteration and DOF: 0.074955 [ns]
	Retrieve results bandwidth 2.942000 [GByte/s]
[OGL LOG][Proc: 0]p: solve_multi_gpu: 710.131 [ms]
BJhipGKOCG:  Solving for p, Initial residual = 0.05697594214430114, Final residual = 0.0003161514281088299, No Iterations 355
[INFO] SolveP: 778.697 [ms]
time step continuity errors : sum local = 0.003025270571315087, global = 0.0005156314331224411, cumulative = 0.006779250278684838
[INFO] postSolveP: 125.468 [ms]
smoothSolver:  Solving for nuTilda, Initial residual = 0.01180639157087999, Final residual = 0.0010494578461041, No Iterations 3
[INFO] TimeStep: 9375.300999999999 [ms]
ExecutionTime = 585.51 s  ClockTime = 584 s

Time = 46

velocityDampingConstraint velocityDamping damped 0 (0%) of cells, with max limit 300
[INFO] MatrixAssemblyU: 3165.848 [ms]
smoothSolver:  Solving for Ux, Initial residual = 0.01188542990488095, Final residual = 0.001048954566332948, No Iterations 13
smoothSolver:  Solving for Uy, Initial residual = 0.07238766342901189, Final residual = 0.007229109091997043, No Iterations 13
smoothSolver:  Solving for Uz, Initial residual = 0.06817786051351399, Final residual = 0.006303747576080837, No Iterations 13
[INFO] MomentumPredictor: 2702.328 [ms]
[INFO] MatrixAssemblyPI: 457.672 [ms]
[INFO] MatrixAssemblyPII: 228.86 [ms]
[OGL LOG][Proc: 0]: global_index_init: 0.036 [ms]
[OGL LOG][Proc: 0]p_local_coeffs: call_update: 0 [ms]
[OGL LOG][Proc: 0]p_non_local_coeffs: call_update: 0 [ms]
[OGL LOG][Proc: 0]p: update_local_matrix_data: 56.338 [ms]
[OGL LOG][Proc: 0]p: update_non_local_matrix_data: 0.08799999999999999 [ms]
[OGL LOG][Proc: 0]p_matrix: call_update: 23.504 [ms]
[OGL LOG][Proc: 0]p_rhs: call_update: 9.805 [ms]
[OGL LOG][Preconditioner.H:121] Generate preconditioner BJ MaxBlockSize 1
[OGL LOG][Proc: 0]p: init_precond: 1.116 [ms]
[OGL LOG][StoppingCriterion.H:373] Creating stopping criterion with minIter 213 frequency 5
[OGL LOG][Proc: 0]p: generate_solver: 0.003 [ms]
[OGL LOG][Proc: 0]p: solve: 526.032 [ms]
[OGL LOG][Proc: 0]p: copy_x_back: 9.18 [ms]
[OGL LOG][lduLduBase.H:336] 
Statistics:
	Time per iteration: 2015 [mu s]
	Time per residual norm calculation: 315.000000 [mu s]
	Time per iteration and DOF: 0.079870 [ns]
	Retrieve results bandwidth 2.751000 [GByte/s]
[OGL LOG][Proc: 0]p: solve_multi_gpu: 570.864 [ms]
BJhipGKOCG:  Solving for p, Initial residual = 0.05586721582580673, Final residual = 0.0005495467725032717, No Iterations 261
[INFO] SolveP: 639.8920000000001 [ms]
time step continuity errors : sum local = 0.005244423013881414, global = 0.0009049602332927921, cumulative = 0.00768421051197763
[INFO] postSolveP: 125.25 [ms]
smoothSolver:  Solving for nuTilda, Initial residual = 0.01663536169554739, Final residual = 0.001011934250632221, No Iterations 3
[INFO] TimeStep: 9244.705 [ms]
ExecutionTime = 597.36 s  ClockTime = 596 s

Time = 47

velocityDampingConstraint velocityDamping damped 0 (0%) of cells, with max limit 300
[INFO] MatrixAssemblyU: 3168.409 [ms]
smoothSolver:  Solving for Ux, Initial residual = 0.01159112982798429, Final residual = 0.001051306067595824, No Iterations 13
smoothSolver:  Solving for Uy, Initial residual = 0.07206657923947325, Final residual = 0.006184242826738794, No Iterations 14
smoothSolver:  Solving for Uz, Initial residual = 0.06663475301064853, Final residual = 0.006318122347449977, No Iterations 13
[INFO] MomentumPredictor: 2749.992 [ms]
[INFO] MatrixAssemblyPI: 456.724 [ms]
[INFO] MatrixAssemblyPII: 228.71 [ms]
[OGL LOG][Proc: 0]: global_index_init: 0.038 [ms]
[OGL LOG][Proc: 0]p_local_coeffs: call_update: 0 [ms]
[OGL LOG][Proc: 0]p_non_local_coeffs: call_update: 0 [ms]
[OGL LOG][Proc: 0]p: update_local_matrix_data: 56.702 [ms]
[OGL LOG][Proc: 0]p: update_non_local_matrix_data: 0.08600000000000001 [ms]
[OGL LOG][Proc: 0]p_matrix: call_update: 24.351 [ms]
[OGL LOG][Proc: 0]p_rhs: call_update: 6.758 [ms]
[OGL LOG][Preconditioner.H:121] Generate preconditioner BJ MaxBlockSize 1
[OGL LOG][Proc: 0]p: init_precond: 1.096 [ms]
[OGL LOG][StoppingCriterion.H:373] Creating stopping criterion with minIter 156 frequency 4
[OGL LOG][Proc: 0]p: generate_solver: 0.002 [ms]
[OGL LOG][Proc: 0]p: solve: 1152.484 [ms]
[OGL LOG][Proc: 0]p: copy_x_back: 8.907 [ms]
[OGL LOG][lduLduBase.H:336] 
Statistics:
	Time per iteration: 1743 [mu s]
	Time per residual norm calculation: 283.000000 [mu s]
	Time per iteration and DOF: 0.069088 [ns]
	Retrieve results bandwidth 2.836000 [GByte/s]
[OGL LOG][Proc: 0]p: solve_multi_gpu: 1194.964 [ms]
BJhipGKOCG:  Solving for p, Initial residual = 0.05482077776978461, Final residual = 0.0005443206513522133, No Iterations 661
[INFO] SolveP: 1263.891 [ms]
time step continuity errors : sum local = 0.005181543569980681, global = -8.52775757022065e-05, cumulative = 0.007598932936275424
[INFO] postSolveP: 129.73 [ms]
smoothSolver:  Solving for nuTilda, Initial residual = 0.01128417936974047, Final residual = 0.001001689105427478, No Iterations 3
[INFO] TimeStep: 9920.182000000001 [ms]
ExecutionTime = 609.9400000000001 s  ClockTime = 609 s

Time = 48

velocityDampingConstraint velocityDamping damped 0 (0%) of cells, with max limit 300
[INFO] MatrixAssemblyU: 3166.748 [ms]
smoothSolver:  Solving for Ux, Initial residual = 0.01145216076044788, Final residual = 0.001057907854155299, No Iterations 13
smoothSolver:  Solving for Uy, Initial residual = 0.07186407058194146, Final residual = 0.006158526043297826, No Iterations 14
smoothSolver:  Solving for Uz, Initial residual = 0.06561997295889288, Final residual = 0.006311955614164906, No Iterations 13
[INFO] MomentumPredictor: 2750.697 [ms]
[INFO] MatrixAssemblyPI: 456.772 [ms]
[INFO] MatrixAssemblyPII: 230.316 [ms]
[OGL LOG][Proc: 0]: global_index_init: 0.033 [ms]
[OGL LOG][Proc: 0]p_local_coeffs: call_update: 0 [ms]
[OGL LOG][Proc: 0]p_non_local_coeffs: call_update: 0 [ms]
[OGL LOG][Proc: 0]p: update_local_matrix_data: 56.472 [ms]
[OGL LOG][Proc: 0]p: update_non_local_matrix_data: 0.083 [ms]
[OGL LOG][Proc: 0]p_matrix: call_update: 27.258 [ms]
[OGL LOG][Proc: 0]p_rhs: call_update: 3.215 [ms]
[OGL LOG][Preconditioner.H:121] Generate preconditioner BJ MaxBlockSize 1
[OGL LOG][Proc: 0]p: init_precond: 1.1 [ms]
[OGL LOG][StoppingCriterion.H:373] Creating stopping criterion with minIter 396 frequency 6
[OGL LOG][Proc: 0]p: generate_solver: 0.002 [ms]
[OGL LOG][Proc: 0]p: solve: 730.083 [ms]
[OGL LOG][Proc: 0]p: copy_x_back: 8.926 [ms]
[OGL LOG][lduLduBase.H:336] 
Statistics:
	Time per iteration: 1839 [mu s]
	Time per residual norm calculation: 294.000000 [mu s]
	Time per iteration and DOF: 0.072894 [ns]
	Retrieve results bandwidth 2.829000 [GByte/s]
[OGL LOG][Proc: 0]p: solve_multi_gpu: 771.71 [ms]
BJhipGKOCG:  Solving for p, Initial residual = 0.05204638859599312, Final residual = 0.0003238726561438747, No Iterations 397
[INFO] SolveP: 841.66 [ms]
time step continuity errors : sum local = 0.00318017727878131, global = -0.0003801935858490515, cumulative = 0.007218739350426372
[INFO] postSolveP: 126.252 [ms]
smoothSolver:  Solving for nuTilda, Initial residual = 0.01584981400586074, Final residual = 0.000970266792734583, No Iterations 3
[INFO] TimeStep: 9493.624 [ms]
ExecutionTime = 622.05 s  ClockTime = 621 s

Time = 49

velocityDampingConstraint velocityDamping damped 0 (0%) of cells, with max limit 300
[INFO] MatrixAssemblyU: 3161.845 [ms]
smoothSolver:  Solving for Ux, Initial residual = 0.01140630502913436, Final residual = 0.0010644004959541, No Iterations 13
smoothSolver:  Solving for Uy, Initial residual = 0.07093108008078675, Final residual = 0.006123522611534318, No Iterations 14
smoothSolver:  Solving for Uz, Initial residual = 0.06469653656360572, Final residual = 0.006307691013335108, No Iterations 13
[INFO] MomentumPredictor: 2756.267 [ms]
[INFO] MatrixAssemblyPI: 457.992 [ms]
[INFO] MatrixAssemblyPII: 228.56 [ms]
[OGL LOG][Proc: 0]: global_index_init: 0.034 [ms]
[OGL LOG][Proc: 0]p_local_coeffs: call_update: 0 [ms]
[OGL LOG][Proc: 0]p_non_local_coeffs: call_update: 0 [ms]
[OGL LOG][Proc: 0]p: update_local_matrix_data: 56.679 [ms]
[OGL LOG][Proc: 0]p: update_non_local_matrix_data: 0.08700000000000001 [ms]
[OGL LOG][Proc: 0]p_matrix: call_update: 29.189 [ms]
[OGL LOG][Proc: 0]p_rhs: call_update: 1.864 [ms]
[OGL LOG][Preconditioner.H:121] Generate preconditioner BJ MaxBlockSize 1
[OGL LOG][Proc: 0]p: init_precond: 1.182 [ms]
[OGL LOG][StoppingCriterion.H:373] Creating stopping criterion with minIter 238 frequency 5
[OGL LOG][Proc: 0]p: generate_solver: 0.002 [ms]
[OGL LOG][Proc: 0]p: solve: 516.755 [ms]
[OGL LOG][Proc: 0]p: copy_x_back: 8.928000000000001 [ms]
[OGL LOG][lduLduBase.H:336] 
Statistics:
	Time per iteration: 2018 [mu s]
	Time per residual norm calculation: 316.000000 [mu s]
	Time per iteration and DOF: 0.079989 [ns]
	Retrieve results bandwidth 2.829000 [GByte/s]
[OGL LOG][Proc: 0]p: solve_multi_gpu: 559.133 [ms]
BJhipGKOCG:  Solving for p, Initial residual = 0.0521366836814434, Final residual = 0.000520615607425487, No Iterations 256
[INFO] SolveP: 628.189 [ms]
time step continuity errors : sum local = 0.005037988550946915, global = -0.0008462294497826727, cumulative = 0.0063725099006437
[INFO] postSolveP: 126.08 [ms]
smoothSolver:  Solving for nuTilda, Initial residual = 0.01085185720214267, Final residual = 0.0009638882254937374, No Iterations 3
[INFO] TimeStep: 9280.696 [ms]
ExecutionTime = 633.91 s  ClockTime = 632 s

Time = 50

velocityDampingConstraint velocityDamping damped 0 (0%) of cells, with max limit 300
[INFO] MatrixAssemblyU: 3160.164 [ms]
smoothSolver:  Solving for Ux, Initial residual = 0.01143244203596302, Final residual = 0.001066688745859107, No Iterations 13
smoothSolver:  Solving for Uy, Initial residual = 0.06967799619348355, Final residual = 0.006031464835209197, No Iterations 14
smoothSolver:  Solving for Uz, Initial residual = 0.06387182318464812, Final residual = 0.006275568721490454, No Iterations 13
[INFO] MomentumPredictor: 2767.402 [ms]
[INFO] MatrixAssemblyPI: 457.588 [ms]
[INFO] MatrixAssemblyPII: 228.443 [ms]
[OGL LOG][Proc: 0]: global_index_init: 0.113 [ms]
[OGL LOG][Proc: 0]p_local_coeffs: call_update: 0 [ms]
[OGL LOG][Proc: 0]p_non_local_coeffs: call_update: 0 [ms]
[OGL LOG][Proc: 0]p: update_local_matrix_data: 56.509 [ms]
[OGL LOG][Proc: 0]p: update_non_local_matrix_data: 0.08500000000000001 [ms]
[OGL LOG][Proc: 0]p_matrix: call_update: 21.23 [ms]
[OGL LOG][Proc: 0]p_rhs: call_update: 8.755000000000001 [ms]
[OGL LOG][Preconditioner.H:121] Generate preconditioner BJ MaxBlockSize 1
[OGL LOG][Proc: 0]p: init_precond: 1.09 [ms]
[OGL LOG][StoppingCriterion.H:373] Creating stopping criterion with minIter 153 frequency 4
[OGL LOG][Proc: 0]p: generate_solver: 0.003 [ms]
[OGL LOG][Proc: 0]p: solve: 1127.436 [ms]
[OGL LOG][Proc: 0]p: copy_x_back: 8.572000000000001 [ms]
[OGL LOG][lduLduBase.H:336] 
Statistics:
	Time per iteration: 1769 [mu s]
	Time per residual norm calculation: 315.000000 [mu s]
	Time per iteration and DOF: 0.070119 [ns]
	Retrieve results bandwidth 2.946000 [GByte/s]
[OGL LOG][Proc: 0]p: solve_multi_gpu: 1168.656 [ms]
BJhipGKOCG:  Solving for p, Initial residual = 0.05197889585117114, Final residual = 0.0005129599079937174, No Iterations 637
[INFO] SolveP: 1239.647 [ms]
time step continuity errors : sum local = 0.004925475952009985, global = -7.898430164154865e-05, cumulative = 0.006293525599002151
[INFO] postSolveP: 125.874 [ms]
smoothSolver:  Solving for nuTilda, Initial residual = 0.01517131844573361, Final residual = 0.0009386834336687889, No Iterations 3
[INFO] TimeStep: 9900.498 [ms]
ExecutionTime = 646.48 s  ClockTime = 645 s

End

Finalising parallel run
