/*---------------------------------------------------------------------------*\
| =========                 |                                                 |
| \\      /  F ield         | OpenFOAM: The Open Source CFD Toolbox           |
|  \\    /   O peration     | Version:  2306                                  |
|   \\  /    A nd           | Website:  www.openfoam.com                      |
|    \\/     M anipulation  |                                                 |
\*---------------------------------------------------------------------------*/
Build  : c423ebec-20231012 OPENFOAM=2306 version=v2306
Arch   : "LSB;label=32;scalar=64"
Exec   : simpleFoam -parallel -case /hkfs/work/workspace/scratch/eq4036-windsorbody_setup/workspace/5290c4633093117f7d85c38f1ba9b248/case
Date   : Feb 16 2024
Time   : 20:34:03
Host   : hkn0436.localdomain
PID    : 2718773
I/O    : uncollated
Case   : /hkfs/work/workspace/scratch/eq4036-windsorbody_setup/workspace/5290c4633093117f7d85c38f1ba9b248/case
nProcs : 4
Hosts  :
(
    (hkn0436.localdomain 4)
)
Pstream initialized with:
    floatTransfer      : false
    nProcsSimpleSum    : 0
    nonBlockingExchange: 0 (tuning: 0)
    exchange algorithm : -1
    commsType          : nonBlocking
    polling iterations : 0
trapFpe: Floating point exception trapping enabled (FOAM_SIGFPE).
fileModificationChecking : Monitoring run-time modified files using timeStampMaster (fileModificationSkew 5, maxFileModificationPolls 20)
allowSystemOperations : Allowing user-supplied system call operations

// * * * * * * * * * * * * * * * * * * * * * * * * * * * * * * * * * * * * * //
Create time

--> FOAM Warning : 
    From void* Foam::dlLibraryTable::openLibrary(const Foam::fileName&, bool)
    in file db/dynamicLibrary/dlLibraryTable/dlLibraryTable.C at line 188
    Could not load "libpetscFoam.so"
libpetscFoam.so: cannot open shared object file: No such file or directory
Create mesh for time = 0


SIMPLE: convergence criteria
    field p	 tolerance 1e-08
    field U	 tolerance 1e-08
    field k	 tolerance 1e-08
    field omega	 tolerance 1e-08
    field nuTilda	 tolerance 1e-08

Reading field p

Reading field U

Reading/calculating face flux field phi

Selecting incompressible transport model Newtonian
Selecting turbulence model type RAS
Selecting RAS turbulence model SpalartAllmaras
Selecting patchDistMethod meshWave
ft2 term: inactive
RAS
{
    RASModel        SpalartAllmaras;
    turbulence      on;
    printCoeffs     on;
    sigmaNut        0.66666;
    kappa           0.41;
    Cb1             0.1355;
    Cb2             0.622;
    Cw2             0.3;
    Cw3             2;
    Cv1             7.1;
    Cs              0.3;
    ck              0.07000000000000001;
    ft2             false;
    Ct3             1.2;
    Ct4             0.5;
}

No MRF models present

Creating finite volume options from "system/fvOptions"

Selecting finite volume options type velocityDampingConstraint
    Source: velocityDamping
    - selecting all cells
    - selected 50457088 cell(s) with volume 222.6066441105402

Starting time loop

--> FOAM Warning : 
    From bool Foam::functionObjectList::read()
    in file db/functionObjects/functionObjectList/functionObjectList.C at line 1035
    Reading "system/controlDict" at line 2 to 41
    Entry 'lref' is not a dictionary
--> FOAM Warning : 
    From bool Foam::functionObjectList::read()
    in file db/functionObjects/functionObjectList/functionObjectList.C at line 1035
    Reading "system/controlDict" at line 2 to 41
    Entry 'Aref' is not a dictionary
--> FOAM Warning : 
    From bool Foam::functionObjectList::read()
    in file db/functionObjects/functionObjectList/functionObjectList.C at line 1035
    Reading "system/controlDict" at line 2 to 41
    Entry 'yawAngle' is not a dictionary
--> FOAM Warning : 
    From bool Foam::functionObjectList::read()
    in file db/functionObjects/functionObjectList/functionObjectList.C at line 1035
    Reading "system/controlDict" at line 2 to 41
    Entry 'lDomain' is not a dictionary
--> FOAM Warning : 
    From bool Foam::functionObjectList::read()
    in file db/functionObjects/functionObjectList/functionObjectList.C at line 1035
    Reading "system/controlDict" at line 2 to 41
    Entry 'bDomain' is not a dictionary
--> FOAM Warning : 
    From bool Foam::functionObjectList::read()
    in file db/functionObjects/functionObjectList/functionObjectList.C at line 1035
    Reading "system/controlDict" at line 2 to 41
    Entry 'hDomain' is not a dictionary
--> FOAM Warning : 
    From bool Foam::functionObjectList::read()
    in file db/functionObjects/functionObjectList/functionObjectList.C at line 1035
    Reading "system/controlDict" at line 2 to 41
    Entry 'xCenter' is not a dictionary
--> FOAM Warning : 
    From bool Foam::functionObjectList::read()
    in file db/functionObjects/functionObjectList/functionObjectList.C at line 1035
    Reading "system/controlDict" at line 2 to 41
    Entry 'yCenter' is not a dictionary
--> FOAM Warning : 
    From bool Foam::functionObjectList::read()
    in file db/functionObjects/functionObjectList/functionObjectList.C at line 1035
    Reading "system/controlDict" at line 2 to 41
    Entry 'zCenter' is not a dictionary
--> FOAM Warning : 
    From bool Foam::functionObjectList::read()
    in file db/functionObjects/functionObjectList/functionObjectList.C at line 1035
    Reading "system/controlDict" at line 2 to 41
    Entry 'inletPatch' is not a dictionary
--> FOAM Warning : 
    From bool Foam::functionObjectList::read()
    in file db/functionObjects/functionObjectList/functionObjectList.C at line 1035
    Reading "system/controlDict" at line 2 to 41
    Entry 'outletPatch' is not a dictionary
--> FOAM Warning : 
    From bool Foam::functionObjectList::read()
    in file db/functionObjects/functionObjectList/functionObjectList.C at line 1035
    Reading "system/controlDict" at line 2 to 41
    Entry 'wallPatches' is not a dictionary
--> FOAM Warning : 
    From bool Foam::functionObjectList::read()
    in file db/functionObjects/functionObjectList/functionObjectList.C at line 1035
    Reading "system/controlDict" at line 2 to 41
    Entry 'forcesWallPatches' is not a dictionary
--> FOAM Warning : 
    From bool Foam::functionObjectList::read()
    in file db/functionObjects/functionObjectList/functionObjectList.C at line 1035
    Reading "system/controlDict" at line 2 to 41
    Entry 'symmPatches' is not a dictionary
--> FOAM Warning : 
    From bool Foam::functionObjectList::read()
    in file db/functionObjects/functionObjectList/functionObjectList.C at line 1035
    Reading "system/controlDict" at line 2 to 41
    Entry 'Uinf' is not a dictionary
--> FOAM Warning : 
    From bool Foam::functionObjectList::read()
    in file db/functionObjects/functionObjectList/functionObjectList.C at line 1035
    Reading "system/controlDict" at line 2 to 41
    Entry 'UinfMag' is not a dictionary
--> FOAM Warning : 
    From bool Foam::functionObjectList::read()
    in file db/functionObjects/functionObjectList/functionObjectList.C at line 1035
    Reading "system/controlDict" at line 2 to 41
    Entry 'nu' is not a dictionary
--> FOAM Warning : 
    From bool Foam::functionObjectList::read()
    in file db/functionObjects/functionObjectList/functionObjectList.C at line 1035
    Reading "system/controlDict" at line 2 to 41
    Entry 'pref' is not a dictionary
--> FOAM Warning : 
    From bool Foam::functionObjectList::read()
    in file db/functionObjects/functionObjectList/functionObjectList.C at line 1035
    Reading "system/controlDict" at line 2 to 41
    Entry 'viscRatio' is not a dictionary
--> FOAM Warning : 
    From bool Foam::functionObjectList::read()
    in file db/functionObjects/functionObjectList/functionObjectList.C at line 1035
    Reading "system/controlDict" at line 2 to 41
    Entry 'Tu' is not a dictionary
--> FOAM Warning : 
    From bool Foam::functionObjectList::read()
    in file db/functionObjects/functionObjectList/functionObjectList.C at line 1035
    Reading "system/controlDict" at line 2 to 41
    Entry 'LESturbModel' is not a dictionary
--> FOAM Warning : 
    From bool Foam::functionObjectList::read()
    in file db/functionObjects/functionObjectList/functionObjectList.C at line 1035
    Reading "system/controlDict" at line 2 to 41
    Entry 'RASturbModel' is not a dictionary
--> FOAM Warning : 
    From bool Foam::functionObjectList::read()
    in file db/functionObjects/functionObjectList/functionObjectList.C at line 1035
    Reading "system/controlDict" at line 2 to 41
    Entry 'deltaTurb' is not a dictionary
--> FOAM Warning : 
    From bool Foam::functionObjectList::read()
    in file db/functionObjects/functionObjectList/functionObjectList.C at line 1035
    Reading "system/controlDict" at line 2 to 41
    Entry 'dt' is not a dictionary
--> FOAM Warning : 
    From bool Foam::functionObjectList::read()
    in file db/functionObjects/functionObjectList/functionObjectList.C at line 1035
    Reading "system/controlDict" at line 2 to 41
    Entry 'tAvg' is not a dictionary
--> FOAM Warning : 
    From bool Foam::functionObjectList::read()
    in file db/functionObjects/functionObjectList/functionObjectList.C at line 1035
    Reading "system/controlDict" at line 2 to 41
    Entry 'tEnd' is not a dictionary
--> FOAM Warning : 
    From bool Foam::functionObjectList::read()
    in file db/functionObjects/functionObjectList/functionObjectList.C at line 1035
    Reading "system/controlDict" at line 2 to 41
    Entry 'writeInterval_' is not a dictionary
--> FOAM Warning : 
    From bool Foam::functionObjectList::read()
    in file db/functionObjects/functionObjectList/functionObjectList.C at line 1035
    Reading "system/controlDict" at line 2 to 41
    Entry 'nCores' is not a dictionary
--> FOAM Warning : 
    From bool Foam::functionObjectList::read()
    in file db/functionObjects/functionObjectList/functionObjectList.C at line 1035
    Reading "system/controlDict" at line 2 to 41
    Entry 'interpScheme' is not a dictionary
--> FOAM Warning : 
    From bool Foam::functionObjectList::read()
    in file db/functionObjects/functionObjectList/functionObjectList.C at line 1035
    Reading "system/controlDict" at line 2 to 41
    Entry 'probeField' is not a dictionary
wallShearStress wallShearStress:
    processing wall patches: 
        Windsor_Body
        CFDWT_Floor
        Windsor_Pins
        Windsor_Base
        Windsor_Body_2
        CFDWT_Floor_2
        Windsor_Pins_2
        Windsor_Base_2
        Windsor_Body_3
        CFDWT_Floor_3
        Windsor_Pins_3
        Windsor_Base_3
        Windsor_Body_4
        CFDWT_Floor_4
        Windsor_Pins_4
        Windsor_Base_4
        Windsor_Body_5
        CFDWT_Floor_5
        Windsor_Pins_5
        Windsor_Base_5
        Windsor_Body_6
        CFDWT_Floor_6
        Windsor_Pins_6
        Windsor_Base_6
        Windsor_Body_7
        CFDWT_Floor_7
        Windsor_Pins_7
        Windsor_Base_7
        Windsor_Body_8
        CFDWT_Floor_8
        Windsor_Pins_8
        Windsor_Base_8

pressure calc_cp:
    Operating mode: staticCoeff
    Not including hydrostatic effects

forceCoeffs forceCoeffsAll:
    rho: rhoInf
    Freestream density (rhoInf) set to 1
    Not including porosity effects
    magUInf: 40
    lRef   : 0.6375
    Aref   : 0.1124
    rhoInf : 1
    Selecting all coefficients
    - Drag force: Cd
    - Drag force front: Cd(f)
    - Drag force rear: Cd(r)
    - Lift force: Cl
    - Lift force front: Cl(f)
    - Lift force rear: Cl(r)
    - Pitch moment: CmPitch
    - Roll moment: CmRoll
    - Yaw moment: CmYaw
    - Side force: Cs
    - Side force front: Cs(f)
    - Side force rear: Cs(r)


forceCoeffs dragCoeffBase:
    rho: rhoInf
    Freestream density (rhoInf) set to 1
    Not including porosity effects
    magUInf: 40
    lRef   : 0.6375
    Aref   : 0.1124
    rhoInf : 1
    Selecting coefficients:
    - Drag force: Cd


Time = 1

velocityDampingConstraint velocityDamping damped 0 (0%) of cells, with max limit 300
[OGL LOG][lduLduBase.H:119] Initialising OGL
	OGL commit:  e75313f+
	Branch: dev 
	Build type: Debug
	Ginkgo version: 1.8.0 ( develop)
	Ginkgo commit: sparse-communicator
	MPI is GPU aware: 1
	Forces host buffer based communication: 0
	CPU ranks per GPU: 1
	Matrix format: Coo
	End OGL_INFO
[OGL LOG][Proc: 0]: global_index_init: 0.056 [ms]
[OGL LOG][Proc: 0]Ux_local_cols: call_init: 0.27 [ms]
[OGL LOG][Proc: 0]Ux_local_rows: call_init: 0.026 [ms]
[OGL LOG][Proc: 0]Ux_local_ldu_map: call_init: 0.019 [ms]
[OGL LOG][Proc: 0]Ux_local_coeffs: call_init: 4.891 [ms]
[OGL LOG][Proc: 0]Ux_non_local_cols: call_init: 0.02 [ms]
[OGL LOG][Proc: 0]Ux_non_local_rows: call_init: 0.005 [ms]
[OGL LOG][Proc: 0]Ux_non_local_ldu_map: call_init: 0.006 [ms]
[OGL LOG][Proc: 0]Ux_non_local_coeffs: call_init: 0.012 [ms]
[OGL LOG][Proc: 0]Ux: init_local_sparsity_pattern: 502709.021 [ms]
[OGL LOG][Proc: 0]Ux: init_non_local_sparsity_pattern: 193.082 [ms]
[OGL LOG][Proc: 0]Ux: update_local_matrix_data: 609.116 [ms]
[OGL LOG][Proc: 0]Ux: update_non_local_matrix_data: 1.712 [ms]
[OGL LOG][Proc: 0]device_partition: call_init: 0.293 [ms]
[OGL LOG][Proc: 0]Ux_matrix: call_init: 1003.811 [ms]
[OGL LOG][Proc: 0]Ux_rhs: call_init: 29.287 [ms]
[OGL LOG][Proc: 0]Ux_solution: call_init: 30.108 [ms]
[OGL LOG][Preconditioner.H:121] Generate preconditioner BJ MaxBlockSize 1
[OGL LOG][Proc: 0]Ux: init_precond: 12.643 [ms]
[OGL LOG][StoppingCriterion.H:239] Creating stopping criterion with minIter 0 frequency 1
[OGL LOG][Proc: 0]Ux: generate_solver: 0.301 [ms]
[OGL LOG][Proc: 0]Ux: solve: 611.27 [ms]
[OGL LOG][Proc: 0]Ux: copy_x_back: 48.711 [ms]
[OGL LOG][lduLduBase.H:330] 
Statistics:
	Time per iteration: 87324 [mu s]
	Time per residual norm calculation: 3598.000000 [mu s]
	Time per iteration and DOF: 1.730659 [ns]
	Retrieve results bandwidth 2.077000 [GByte/s]
[OGL LOG][Proc: 0]Ux: solve_multi_gpu: 1801.437 [ms]
BJcudaGKOBiCGStab:  Solving for Ux, Initial residual = 1.000000000004626, Final residual = 0.04568491065513804, No Iterations 7
[OGL LOG][lduLduBase.H:119] Initialising OGL
	OGL commit:  e75313f+
	Branch: dev 
	Build type: Debug
	Ginkgo version: 1.8.0 ( develop)
	Ginkgo commit: sparse-communicator
	MPI is GPU aware: 1
	Forces host buffer based communication: 0
	CPU ranks per GPU: 1
	Matrix format: Coo
	End OGL_INFO
[OGL LOG][Proc: 0]: global_index_init: 0.015 [ms]
[OGL LOG][Proc: 0]Uy_local_cols: call_init: 0.043 [ms]
[OGL LOG][Proc: 0]Uy_local_rows: call_init: 0.02 [ms]
[OGL LOG][Proc: 0]Uy_local_ldu_map: call_init: 0.015 [ms]
[OGL LOG][Proc: 0]Uy_local_coeffs: call_init: 2.071 [ms]
[OGL LOG][Proc: 0]Uy_non_local_cols: call_init: 0.015 [ms]
[OGL LOG][Proc: 0]Uy_non_local_rows: call_init: 0.004 [ms]
[OGL LOG][Proc: 0]Uy_non_local_ldu_map: call_init: 0.004 [ms]
[OGL LOG][Proc: 0]Uy_non_local_coeffs: call_init: 0.008 [ms]
[OGL LOG][Proc: 0]Uy: init_local_sparsity_pattern: 502724.157 [ms]
[OGL LOG][Proc: 0]Uy: init_non_local_sparsity_pattern: 193.168 [ms]
[OGL LOG][Proc: 0]Uy: update_local_matrix_data: 572.263 [ms]
[OGL LOG][Proc: 0]Uy: update_non_local_matrix_data: 1.706 [ms]
[OGL LOG][Proc: 0]Uy_matrix: call_init: 1003.446 [ms]
[OGL LOG][Proc: 0]Uy_rhs: call_init: 29.732 [ms]
[OGL LOG][Proc: 0]Uy_solution: call_init: 29.843 [ms]
[OGL LOG][Preconditioner.H:121] Generate preconditioner BJ MaxBlockSize 1
[OGL LOG][Proc: 0]Uy: init_precond: 2.686 [ms]
[OGL LOG][StoppingCriterion.H:239] Creating stopping criterion with minIter 0 frequency 1
[OGL LOG][Proc: 0]Uy: generate_solver: 0.024 [ms]
[OGL LOG][Proc: 0]Uy: solve: 624.966 [ms]
[OGL LOG][Proc: 0]Uy: copy_x_back: 48.138 [ms]
[OGL LOG][lduLduBase.H:330] 
Statistics:
	Time per iteration: 62496 [mu s]
	Time per residual norm calculation: 218.000000 [mu s]
	Time per iteration and DOF: 1.238597 [ns]
	Retrieve results bandwidth 2.102000 [GByte/s]
[OGL LOG][Proc: 0]Uy: solve_multi_gpu: 1803.466 [ms]
BJcudaGKOBiCGStab:  Solving for Uy, Initial residual = 0.9999999999996882, Final residual = 0.07725065440071095, No Iterations 10
[OGL LOG][lduLduBase.H:119] Initialising OGL
	OGL commit:  e75313f+
	Branch: dev 
	Build type: Debug
	Ginkgo version: 1.8.0 ( develop)
	Ginkgo commit: sparse-communicator
	MPI is GPU aware: 1
	Forces host buffer based communication: 0
	CPU ranks per GPU: 1
	Matrix format: Coo
	End OGL_INFO
[OGL LOG][Proc: 0]: global_index_init: 0.278 [ms]
[OGL LOG][Proc: 0]Uz_local_cols: call_init: 0.04 [ms]
[OGL LOG][Proc: 0]Uz_local_rows: call_init: 0.016 [ms]
[OGL LOG][Proc: 0]Uz_local_ldu_map: call_init: 0.008 [ms]
[OGL LOG][Proc: 0]Uz_local_coeffs: call_init: 2.093 [ms]
[OGL LOG][Proc: 0]Uz_non_local_cols: call_init: 0.032 [ms]
[OGL LOG][Proc: 0]Uz_non_local_rows: call_init: 0.006 [ms]
[OGL LOG][Proc: 0]Uz_non_local_ldu_map: call_init: 0.005 [ms]
[OGL LOG][Proc: 0]Uz_non_local_coeffs: call_init: 0.01 [ms]
[OGL LOG][Proc: 0]Uz: init_local_sparsity_pattern: 502709.524 [ms]
[OGL LOG][Proc: 0]Uz: init_non_local_sparsity_pattern: 194.053 [ms]
[OGL LOG][Proc: 0]Uz: update_local_matrix_data: 582.807 [ms]
[OGL LOG][Proc: 0]Uz: update_non_local_matrix_data: 1.93 [ms]
[OGL LOG][Proc: 0]Uz_matrix: call_init: 1005.277 [ms]
[OGL LOG][Proc: 0]Uz_rhs: call_init: 29.14 [ms]
[OGL LOG][Proc: 0]Uz_solution: call_init: 30.19 [ms]
[OGL LOG][Preconditioner.H:121] Generate preconditioner BJ MaxBlockSize 1
[OGL LOG][Proc: 0]Uz: init_precond: 2.508 [ms]
[OGL LOG][StoppingCriterion.H:239] Creating stopping criterion with minIter 0 frequency 1
[OGL LOG][Proc: 0]Uz: generate_solver: 0.024 [ms]
[OGL LOG][Proc: 0]Uz: solve: 550.973 [ms]
[OGL LOG][Proc: 0]Uz: copy_x_back: 49.817 [ms]
[OGL LOG][lduLduBase.H:330] 
Statistics:
	Time per iteration: 550973 [mu s]
	Time per residual norm calculation: 424.000000 [mu s]
	Time per iteration and DOF: 10.919635 [ns]
	Retrieve results bandwidth 2.031000 [GByte/s]
[OGL LOG][Proc: 0]Uz: solve_multi_gpu: 1731.294 [ms]
BJcudaGKOBiCGStab:  Solving for Uz, Initial residual = 1.000000000000057, Final residual = 0.07317246117891299, No Iterations 1
[OGL LOG][lduLduBase.H:119] Initialising OGL
	OGL commit:  e75313f+
	Branch: dev 
	Build type: Debug
	Ginkgo version: 1.8.0 ( develop)
	Ginkgo commit: sparse-communicator
	MPI is GPU aware: 1
	Forces host buffer based communication: 0
	CPU ranks per GPU: 1
	Matrix format: Coo
	End OGL_INFO
[OGL LOG][Proc: 0]: global_index_init: 0.02 [ms]
[OGL LOG][Proc: 0]p_local_cols: call_init: 0.038 [ms]
[OGL LOG][Proc: 0]p_local_rows: call_init: 0.017 [ms]
[OGL LOG][Proc: 0]p_local_ldu_map: call_init: 0.024 [ms]
[OGL LOG][Proc: 0]p_local_coeffs: call_init: 2.186 [ms]
[OGL LOG][Proc: 0]p_non_local_cols: call_init: 0.015 [ms]
[OGL LOG][Proc: 0]p_non_local_rows: call_init: 0.008 [ms]
[OGL LOG][Proc: 0]p_non_local_ldu_map: call_init: 0.007 [ms]
[OGL LOG][Proc: 0]p_non_local_coeffs: call_init: 0.011 [ms]
[OGL LOG][Proc: 0]p: init_local_sparsity_pattern: 501957.421 [ms]
[OGL LOG][Proc: 0]p: init_non_local_sparsity_pattern: 196.556 [ms]
[OGL LOG][Proc: 0]p: update_local_matrix_data: 441.395 [ms]
[OGL LOG][Proc: 0]p: update_non_local_matrix_data: 1.714 [ms]
[OGL LOG][Proc: 0]p_matrix: call_init: 1002.065 [ms]
[OGL LOG][Proc: 0]p_rhs: call_init: 29.384 [ms]
[OGL LOG][Proc: 0]p_solution: call_init: 30.332 [ms]
[OGL LOG][Preconditioner.H:121] Generate preconditioner BJ MaxBlockSize 1
[OGL LOG][Proc: 0]p: init_precond: 2.478 [ms]
[OGL LOG][StoppingCriterion.H:239] Creating stopping criterion with minIter 0 frequency 1
[OGL LOG][Proc: 0]p: generate_solver: 0.182 [ms]
[OGL LOG][Proc: 0]p: solve: 5352.036 [ms]
[OGL LOG][Proc: 0]p: copy_x_back: 48.797 [ms]
[OGL LOG][lduLduBase.H:330] 
Statistics:
	Time per iteration: 4412 [mu s]
	Time per residual norm calculation: 207.000000 [mu s]
	Time per iteration and DOF: 0.087441 [ns]
	Retrieve results bandwidth 2.073000 [GByte/s]
[OGL LOG][Proc: 0]p: solve_multi_gpu: 6526.423 [ms]
BJcudaGKOCG:  Solving for p, Initial residual = 1.000000000001922, Final residual = 0.009999662661088695, No Iterations 1213
time step continuity errors : sum local = 0.00362351420207207, global = 7.826721033325149e-06, cumulative = 7.826721033325149e-06
[OGL LOG][lduLduBase.H:119] Initialising OGL
	OGL commit:  e75313f+
	Branch: dev 
	Build type: Debug
	Ginkgo version: 1.8.0 ( develop)
	Ginkgo commit: sparse-communicator
	MPI is GPU aware: 1
	Forces host buffer based communication: 0
	CPU ranks per GPU: 1
	Matrix format: Coo
	End OGL_INFO
[OGL LOG][Proc: 0]: global_index_init: 0.025 [ms]
[OGL LOG][Proc: 0]nuTilda_local_cols: call_init: 0.037 [ms]
[OGL LOG][Proc: 0]nuTilda_local_rows: call_init: 0.038 [ms]
[OGL LOG][Proc: 0]nuTilda_local_ldu_map: call_init: 0.022 [ms]
[OGL LOG][Proc: 0]nuTilda_local_coeffs: call_init: 2.248 [ms]
[OGL LOG][Proc: 0]nuTilda_non_local_cols: call_init: 0.016 [ms]
[OGL LOG][Proc: 0]nuTilda_non_local_rows: call_init: 0.008 [ms]
[OGL LOG][Proc: 0]nuTilda_non_local_ldu_map: call_init: 0.006 [ms]
[OGL LOG][Proc: 0]nuTilda_non_local_coeffs: call_init: 0.012 [ms]
[OGL LOG][Proc: 0]nuTilda: init_local_sparsity_pattern: 500966.67 [ms]
[OGL LOG][Proc: 0]nuTilda: init_non_local_sparsity_pattern: 192.564 [ms]
[OGL LOG][Proc: 0]nuTilda: update_local_matrix_data: 572.128 [ms]
[OGL LOG][Proc: 0]nuTilda: update_non_local_matrix_data: 1.717 [ms]
[OGL LOG][Proc: 0]nuTilda_matrix: call_init: 1002.733 [ms]
[OGL LOG][Proc: 0]nuTilda_rhs: call_init: 29.448 [ms]
[OGL LOG][Proc: 0]nuTilda_solution: call_init: 29.736 [ms]
[OGL LOG][Preconditioner.H:121] Generate preconditioner BJ MaxBlockSize 1
[OGL LOG][Proc: 0]nuTilda: init_precond: 2.337 [ms]
[OGL LOG][StoppingCriterion.H:239] Creating stopping criterion with minIter 0 frequency 1
[OGL LOG][Proc: 0]nuTilda: generate_solver: 0.025 [ms]
[OGL LOG][Proc: 0]nuTilda: solve: 562.398 [ms]
[OGL LOG][Proc: 0]nuTilda: copy_x_back: 48.614 [ms]
[OGL LOG][lduLduBase.H:330] 
Statistics:
	Time per iteration: 187466 [mu s]
	Time per residual norm calculation: 414.000000 [mu s]
	Time per iteration and DOF: 3.715355 [ns]
	Retrieve results bandwidth 2.081000 [GByte/s]
[OGL LOG][Proc: 0]nuTilda: solve_multi_gpu: 1738.042 [ms]
BJcudaGKOBiCGStab:  Solving for nuTilda, Initial residual = 0.9999999271850496, Final residual = 0.03403417146053367, No Iterations 3
bounding nuTilda, min: -0.0003647755082432168 max: 0.001587275706715712 average: 7.141022950483287e-05
ExecutionTime = 2658.84 s  ClockTime = 2663 s

--> FOAM Warning : 
    From virtual bool Foam::functionObjects::fieldSelection::checkSelection()
    in file functionObjects/fieldSelections/fieldSelection/fieldSelection.C at line 166
    Field k not found
--> FOAM Warning : 
    From virtual bool Foam::functionObjects::fieldSelection::checkSelection()
    in file functionObjects/fieldSelections/fieldSelection/fieldSelection.C at line 166
    Field gammaInt not found
--> FOAM Warning : 
    From virtual bool Foam::functionObjects::fieldSelection::checkSelection()
    in file functionObjects/fieldSelections/fieldSelection/fieldSelection.C at line 166
    Field omega not found
--> FOAM Warning : 
    From virtual bool Foam::functionObjects::fieldSelection::checkSelection()
    in file functionObjects/fieldSelections/fieldSelection/fieldSelection.C at line 166
    Field ReThetat not found
--> FOAM Warning : 
    From virtual bool Foam::functionObjects::fieldSelection::checkSelection()
    in file functionObjects/fieldSelections/fieldSelection/fieldSelection.C at line 166
    Field epsilon not found
--> FOAM Warning : 
    From virtual bool Foam::functionObjects::solverFieldSelection::updateSelection()
    in file functionObjects/fieldSelections/solverFieldSelection/solverFieldSelection.C at line 85
    Valid solver fields are: 3(U nuTilda p)Time = 2

velocityDampingConstraint velocityDamping damped 0 (0%) of cells, with max limit 300
[OGL LOG][Proc: 0]: global_index_init: 0.124 [ms]
[OGL LOG][Proc: 0]Ux_local_coeffs: call_update: 0.001 [ms]
[OGL LOG][Proc: 0]Ux_non_local_coeffs: call_update: 0 [ms]
[OGL LOG][Proc: 0]Ux: update_local_matrix_data: 599.775 [ms]
[OGL LOG][Proc: 0]Ux: update_non_local_matrix_data: 1.662 [ms]
[OGL LOG][Proc: 0]Ux_matrix: call_update: 6.967 [ms]
[OGL LOG][Proc: 0]Ux_rhs: call_update: 29.902 [ms]
[OGL LOG][Preconditioner.H:121] Generate preconditioner BJ MaxBlockSize 1
[OGL LOG][Proc: 0]Ux: init_precond: 3.798 [ms]
[OGL LOG][StoppingCriterion.H:239] Creating stopping criterion with minIter 8 frequency 1
[OGL LOG][Proc: 0]Ux: generate_solver: 0.017 [ms]
[OGL LOG][Proc: 0]Ux: solve: 568.548 [ms]
[OGL LOG][Proc: 0]Ux: copy_x_back: 48.749 [ms]
[OGL LOG][lduLduBase.H:330] 
Statistics:
	Time per iteration: 142137 [mu s]
	Time per residual norm calculation: 233.000000 [mu s]
	Time per iteration and DOF: 2.816988 [ns]
	Retrieve results bandwidth 2.075000 [GByte/s]
[OGL LOG][Proc: 0]Ux: solve_multi_gpu: 662.361 [ms]
BJcudaGKOBiCGStab:  Solving for Ux, Initial residual = 0.8166480552109965, Final residual = 0.009470485807113762, No Iterations 4
[OGL LOG][Proc: 0]: global_index_init: 0.038 [ms]
[OGL LOG][Proc: 0]Uy_local_coeffs: call_update: 0 [ms]
[OGL LOG][Proc: 0]Uy_non_local_coeffs: call_update: 0 [ms]
[OGL LOG][Proc: 0]Uy: update_local_matrix_data: 602.151 [ms]
[OGL LOG][Proc: 0]Uy: update_non_local_matrix_data: 1.609 [ms]
[OGL LOG][Proc: 0]Uy_matrix: call_update: 6.797 [ms]
[OGL LOG][Proc: 0]Uy_rhs: call_update: 29.875 [ms]
[OGL LOG][Preconditioner.H:121] Generate preconditioner BJ MaxBlockSize 1
[OGL LOG][Proc: 0]Uy: init_precond: 3.878 [ms]
[OGL LOG][StoppingCriterion.H:239] Creating stopping criterion with minIter 12 frequency 1
[OGL LOG][Proc: 0]Uy: generate_solver: 0.014 [ms]
[OGL LOG][Proc: 0]Uy: solve: 582.827 [ms]
[OGL LOG][Proc: 0]Uy: copy_x_back: 83.36 [ms]
[OGL LOG][lduLduBase.H:330] 
Statistics:
	Time per iteration: 97137 [mu s]
	Time per residual norm calculation: 224.000000 [mu s]
	Time per iteration and DOF: 1.925141 [ns]
	Retrieve results bandwidth 1.213000 [GByte/s]
[OGL LOG][Proc: 0]Uy: solve_multi_gpu: 710.727 [ms]
BJcudaGKOBiCGStab:  Solving for Uy, Initial residual = 0.9994013339393645, Final residual = 0.07922750822371218, No Iterations 6
[OGL LOG][Proc: 0]: global_index_init: 0.044 [ms]
[OGL LOG][Proc: 0]Uz_local_coeffs: call_update: 0 [ms]
[OGL LOG][Proc: 0]Uz_non_local_coeffs: call_update: 0 [ms]
[OGL LOG][Proc: 0]Uz: update_local_matrix_data: 600.384 [ms]
[OGL LOG][Proc: 0]Uz: update_non_local_matrix_data: 1.521 [ms]
[OGL LOG][Proc: 0]Uz_matrix: call_update: 7.141 [ms]
[OGL LOG][Proc: 0]Uz_rhs: call_update: 29.718 [ms]
[OGL LOG][Preconditioner.H:121] Generate preconditioner BJ MaxBlockSize 1
[OGL LOG][Proc: 0]Uz: init_precond: 3.971 [ms]
[OGL LOG][StoppingCriterion.H:239] Creating stopping criterion with minIter 1 frequency 1
[OGL LOG][Proc: 0]Uz: generate_solver: 0.014 [ms]
[OGL LOG][Proc: 0]Uz: solve: 553.943 [ms]
[OGL LOG][Proc: 0]Uz: copy_x_back: 48.119 [ms]
[OGL LOG][lduLduBase.H:330] 
Statistics:
	Time per iteration: 276971 [mu s]
	Time per residual norm calculation: 405.000000 [mu s]
	Time per iteration and DOF: 5.489239 [ns]
	Retrieve results bandwidth 2.102000 [GByte/s]
[OGL LOG][Proc: 0]Uz: solve_multi_gpu: 647.062 [ms]
BJcudaGKOBiCGStab:  Solving for Uz, Initial residual = 0.9999992543362866, Final residual = 0.09491879291768815, No Iterations 2
[OGL LOG][Proc: 0]: global_index_init: 0.016 [ms]
[OGL LOG][Proc: 0]p_local_coeffs: call_update: 0 [ms]
[OGL LOG][Proc: 0]p_non_local_coeffs: call_update: 0 [ms]
[OGL LOG][Proc: 0]p: update_local_matrix_data: 462.098 [ms]
[OGL LOG][Proc: 0]p: update_non_local_matrix_data: 1.623 [ms]
[OGL LOG][Proc: 0]p_matrix: call_update: 7.437 [ms]
[OGL LOG][Proc: 0]p_rhs: call_update: 29.349 [ms]
[OGL LOG][Preconditioner.H:121] Generate preconditioner BJ MaxBlockSize 1
[OGL LOG][Proc: 0]p: init_precond: 3.383 [ms]
[OGL LOG][StoppingCriterion.H:239] Creating stopping criterion with minIter 727 frequency 4
[OGL LOG][Proc: 0]p: generate_solver: 0.015 [ms]
[OGL LOG][Proc: 0]p: solve: 3748.777 [ms]
[OGL LOG][Proc: 0]p: copy_x_back: 49.121 [ms]
[OGL LOG][lduLduBase.H:330] 
Statistics:
	Time per iteration: 4088 [mu s]
	Time per residual norm calculation: 204.000000 [mu s]
	Time per iteration and DOF: 0.081019 [ns]
	Retrieve results bandwidth 2.060000 [GByte/s]
[OGL LOG][Proc: 0]p: solve_multi_gpu: 3840.969 [ms]
BJcudaGKOCG:  Solving for p, Initial residual = 0.4265259844080002, Final residual = 0.004095727563478083, No Iterations 917
time step continuity errors : sum local = 0.08854180264584122, global = 0.004708998163728481, cumulative = 0.004716824884761806
[OGL LOG][Proc: 0]: global_index_init: 0.026 [ms]
[OGL LOG][Proc: 0]nuTilda_local_coeffs: call_update: 0 [ms]
[OGL LOG][Proc: 0]nuTilda_non_local_coeffs: call_update: 0 [ms]
[OGL LOG][Proc: 0]nuTilda: update_local_matrix_data: 601.5839999999999 [ms]
[OGL LOG][Proc: 0]nuTilda: update_non_local_matrix_data: 1.601 [ms]
[OGL LOG][Proc: 0]nuTilda_matrix: call_update: 7.217 [ms]
[OGL LOG][Proc: 0]nuTilda_rhs: call_update: 30.076 [ms]
[OGL LOG][Preconditioner.H:121] Generate preconditioner BJ MaxBlockSize 1
[OGL LOG][Proc: 0]nuTilda: init_precond: 3.749 [ms]
[OGL LOG][StoppingCriterion.H:239] Creating stopping criterion with minIter 3 frequency 1
[OGL LOG][Proc: 0]nuTilda: generate_solver: 0.031 [ms]
[OGL LOG][Proc: 0]nuTilda: solve: 555.211 [ms]
[OGL LOG][Proc: 0]nuTilda: copy_x_back: 49.045 [ms]
[OGL LOG][lduLduBase.H:330] 
Statistics:
	Time per iteration: 277605 [mu s]
	Time per residual norm calculation: 222.000000 [mu s]
	Time per iteration and DOF: 5.501804 [ns]
	Retrieve results bandwidth 2.063000 [GByte/s]
[OGL LOG][Proc: 0]nuTilda: solve_multi_gpu: 650.104 [ms]
BJcudaGKOBiCGStab:  Solving for nuTilda, Initial residual = 0.2440315439293625, Final residual = 0.01658284465399273, No Iterations 2
ExecutionTime = 2712.47 s  ClockTime = 2718 s

Time = 3

velocityDampingConstraint velocityDamping damped 38956 (0.08%) of cells, with max limit 300
[OGL LOG][Proc: 0]: global_index_init: 0.054 [ms]
[OGL LOG][Proc: 0]Ux_local_coeffs: call_update: 0 [ms]
[OGL LOG][Proc: 0]Ux_non_local_coeffs: call_update: 0 [ms]
[OGL LOG][Proc: 0]Ux: update_local_matrix_data: 602.819 [ms]
[OGL LOG][Proc: 0]Ux: update_non_local_matrix_data: 1.818 [ms]
[OGL LOG][Proc: 0]Ux_matrix: call_update: 6.455 [ms]
[OGL LOG][Proc: 0]Ux_rhs: call_update: 29.726 [ms]
[OGL LOG][Preconditioner.H:121] Generate preconditioner BJ MaxBlockSize 1
[OGL LOG][Proc: 0]Ux: init_precond: 4.171 [ms]
[OGL LOG][StoppingCriterion.H:239] Creating stopping criterion with minIter 5 frequency 1
[OGL LOG][Proc: 0]Ux: generate_solver: 0.024 [ms]
[OGL LOG][Proc: 0]Ux: solve: 602.276 [ms]
[OGL LOG][Proc: 0]Ux: copy_x_back: 48.314 [ms]
[OGL LOG][lduLduBase.H:330] 
Statistics:
	Time per iteration: 200758 [mu s]
	Time per residual norm calculation: 419.000000 [mu s]
	Time per iteration and DOF: 3.978787 [ns]
	Retrieve results bandwidth 2.094000 [GByte/s]
[OGL LOG][Proc: 0]Ux: solve_multi_gpu: 695.878 [ms]
BJcudaGKOBiCGStab:  Solving for Ux, Initial residual = 0.2852247752926486, Final residual = 0.004782610990072477, No Iterations 3
[OGL LOG][Proc: 0]: global_index_init: 0.048 [ms]
[OGL LOG][Proc: 0]Uy_local_coeffs: call_update: 0 [ms]
[OGL LOG][Proc: 0]Uy_non_local_coeffs: call_update: 0 [ms]
[OGL LOG][Proc: 0]Uy: update_local_matrix_data: 602.413 [ms]
[OGL LOG][Proc: 0]Uy: update_non_local_matrix_data: 1.839 [ms]
[OGL LOG][Proc: 0]Uy_matrix: call_update: 6.186 [ms]
[OGL LOG][Proc: 0]Uy_rhs: call_update: 30.921 [ms]
[OGL LOG][Preconditioner.H:121] Generate preconditioner BJ MaxBlockSize 1
[OGL LOG][Proc: 0]Uy: init_precond: 4.237 [ms]
[OGL LOG][StoppingCriterion.H:239] Creating stopping criterion with minIter 7 frequency 1
[OGL LOG][Proc: 0]Uy: generate_solver: 0.014 [ms]
[OGL LOG][Proc: 0]Uy: solve: 629.104 [ms]
[OGL LOG][Proc: 0]Uy: copy_x_back: 48.94 [ms]
[OGL LOG][lduLduBase.H:330] 
Statistics:
	Time per iteration: 157276 [mu s]
	Time per residual norm calculation: 425.000000 [mu s]
	Time per iteration and DOF: 3.117025 [ns]
	Retrieve results bandwidth 2.067000 [GByte/s]
[OGL LOG][Proc: 0]Uy: solve_multi_gpu: 726.871 [ms]
BJcudaGKOBiCGStab:  Solving for Uy, Initial residual = 0.2670384013665292, Final residual = 0.007603373193192857, No Iterations 4
[OGL LOG][Proc: 0]: global_index_init: 0.013 [ms]
[OGL LOG][Proc: 0]Uz_local_coeffs: call_update: 0 [ms]
[OGL LOG][Proc: 0]Uz_non_local_coeffs: call_update: 0 [ms]
[OGL LOG][Proc: 0]Uz: update_local_matrix_data: 600.726 [ms]
[OGL LOG][Proc: 0]Uz: update_non_local_matrix_data: 1.65 [ms]
[OGL LOG][Proc: 0]Uz_matrix: call_update: 8.412000000000001 [ms]
[OGL LOG][Proc: 0]Uz_rhs: call_update: 29.866 [ms]
[OGL LOG][Preconditioner.H:121] Generate preconditioner BJ MaxBlockSize 1
[OGL LOG][Proc: 0]Uz: init_precond: 6.802 [ms]
[OGL LOG][StoppingCriterion.H:239] Creating stopping criterion with minIter 2 frequency 1
[OGL LOG][Proc: 0]Uz: generate_solver: 0.015 [ms]
[OGL LOG][Proc: 0]Uz: solve: 567.397 [ms]
[OGL LOG][Proc: 0]Uz: copy_x_back: 49.036 [ms]
[OGL LOG][lduLduBase.H:330] 
Statistics:
	Time per iteration: 283698 [mu s]
	Time per residual norm calculation: 214.000000 [mu s]
	Time per iteration and DOF: 5.622560 [ns]
	Retrieve results bandwidth 2.063000 [GByte/s]
[OGL LOG][Proc: 0]Uz: solve_multi_gpu: 666.237 [ms]
BJcudaGKOBiCGStab:  Solving for Uz, Initial residual = 0.2548317638142624, Final residual = 0.02517707094314646, No Iterations 2
[OGL LOG][Proc: 0]: global_index_init: 0.016 [ms]
[OGL LOG][Proc: 0]p_local_coeffs: call_update: 0 [ms]
[OGL LOG][Proc: 0]p_non_local_coeffs: call_update: 0 [ms]
[OGL LOG][Proc: 0]p: update_local_matrix_data: 462.267 [ms]
[OGL LOG][Proc: 0]p: update_non_local_matrix_data: 1.626 [ms]
[OGL LOG][Proc: 0]p_matrix: call_update: 10.664 [ms]
[OGL LOG][Proc: 0]p_rhs: call_update: 29.609 [ms]
[OGL LOG][Preconditioner.H:121] Generate preconditioner BJ MaxBlockSize 1
[OGL LOG][Proc: 0]p: init_precond: 3.963 [ms]
[OGL LOG][StoppingCriterion.H:239] Creating stopping criterion with minIter 550 frequency 4
[OGL LOG][Proc: 0]p: generate_solver: 0.015 [ms]
[OGL LOG][Proc: 0]p: solve: 4196.575 [ms]
[OGL LOG][Proc: 0]p: copy_x_back: 49.049 [ms]
[OGL LOG][lduLduBase.H:330] 
Statistics:
	Time per iteration: 4062 [mu s]
	Time per residual norm calculation: 204.000000 [mu s]
	Time per iteration and DOF: 0.080504 [ns]
	Retrieve results bandwidth 2.063000 [GByte/s]
[OGL LOG][Proc: 0]p: solve_multi_gpu: 4292.813 [ms]
BJcudaGKOCG:  Solving for p, Initial residual = 0.2908131129349719, Final residual = 0.002875810502270633, No Iterations 1033
time step continuity errors : sum local = 0.02324766161441549, global = -0.0002351860666982194, cumulative = 0.004481638818063587
[OGL LOG][Proc: 0]: global_index_init: 0.019 [ms]
[OGL LOG][Proc: 0]nuTilda_local_coeffs: call_update: 0 [ms]
[OGL LOG][Proc: 0]nuTilda_non_local_coeffs: call_update: 0 [ms]
[OGL LOG][Proc: 0]nuTilda: update_local_matrix_data: 602.044 [ms]
[OGL LOG][Proc: 0]nuTilda: update_non_local_matrix_data: 1.647 [ms]
[OGL LOG][Proc: 0]nuTilda_matrix: call_update: 6.811 [ms]
[OGL LOG][Proc: 0]nuTilda_rhs: call_update: 30.275 [ms]
[OGL LOG][Preconditioner.H:121] Generate preconditioner BJ MaxBlockSize 1
[OGL LOG][Proc: 0]nuTilda: init_precond: 3.988 [ms]
[OGL LOG][StoppingCriterion.H:239] Creating stopping criterion with minIter 3 frequency 1
[OGL LOG][Proc: 0]nuTilda: generate_solver: 0.02 [ms]
[OGL LOG][Proc: 0]nuTilda: solve: 561.9690000000001 [ms]
[OGL LOG][Proc: 0]nuTilda: copy_x_back: 48.146 [ms]
[OGL LOG][lduLduBase.H:330] 
Statistics:
	Time per iteration: 280984 [mu s]
	Time per residual norm calculation: 406.000000 [mu s]
	Time per iteration and DOF: 5.568772 [ns]
	Retrieve results bandwidth 2.101000 [GByte/s]
[OGL LOG][Proc: 0]nuTilda: solve_multi_gpu: 661.438 [ms]
BJcudaGKOBiCGStab:  Solving for nuTilda, Initial residual = 0.2258034462128272, Final residual = 0.01286287705619322, No Iterations 2
ExecutionTime = 2767.39 s  ClockTime = 2773 s

Time = 4

velocityDampingConstraint velocityDamping damped 948 (0%) of cells, with max limit 300
[OGL LOG][Proc: 0]: global_index_init: 0.077 [ms]
[OGL LOG][Proc: 0]Ux_local_coeffs: call_update: 0 [ms]
[OGL LOG][Proc: 0]Ux_non_local_coeffs: call_update: 0 [ms]
[OGL LOG][Proc: 0]Ux: update_local_matrix_data: 602.175 [ms]
[OGL LOG][Proc: 0]Ux: update_non_local_matrix_data: 1.713 [ms]
[OGL LOG][Proc: 0]Ux_matrix: call_update: 7.02 [ms]
[OGL LOG][Proc: 0]Ux_rhs: call_update: 29.867 [ms]
[OGL LOG][Preconditioner.H:121] Generate preconditioner BJ MaxBlockSize 1
[OGL LOG][Proc: 0]Ux: init_precond: 3.722 [ms]
[OGL LOG][StoppingCriterion.H:239] Creating stopping criterion with minIter 3 frequency 1
[OGL LOG][Proc: 0]Ux: generate_solver: 0.026 [ms]
[OGL LOG][Proc: 0]Ux: solve: 561.2 [ms]
[OGL LOG][Proc: 0]Ux: copy_x_back: 48.369 [ms]
[OGL LOG][lduLduBase.H:330] 
Statistics:
	Time per iteration: 187066 [mu s]
	Time per residual norm calculation: 215.000000 [mu s]
	Time per iteration and DOF: 3.707428 [ns]
	Retrieve results bandwidth 2.092000 [GByte/s]
[OGL LOG][Proc: 0]Ux: solve_multi_gpu: 654.919 [ms]
BJcudaGKOBiCGStab:  Solving for Ux, Initial residual = 0.04682139839198621, Final residual = 0.003831132377464146, No Iterations 3
[OGL LOG][Proc: 0]: global_index_init: 0.024 [ms]
[OGL LOG][Proc: 0]Uy_local_coeffs: call_update: 0 [ms]
[OGL LOG][Proc: 0]Uy_non_local_coeffs: call_update: 0 [ms]
[OGL LOG][Proc: 0]Uy: update_local_matrix_data: 602.054 [ms]
[OGL LOG][Proc: 0]Uy: update_non_local_matrix_data: 1.639 [ms]
[OGL LOG][Proc: 0]Uy_matrix: call_update: 7.279 [ms]
[OGL LOG][Proc: 0]Uy_rhs: call_update: 29.286 [ms]
[OGL LOG][Preconditioner.H:121] Generate preconditioner BJ MaxBlockSize 1
[OGL LOG][Proc: 0]Uy: init_precond: 4.664 [ms]
[OGL LOG][StoppingCriterion.H:239] Creating stopping criterion with minIter 4 frequency 1
[OGL LOG][Proc: 0]Uy: generate_solver: 0.014 [ms]
[OGL LOG][Proc: 0]Uy: solve: 565.641 [ms]
[OGL LOG][Proc: 0]Uy: copy_x_back: 47.693 [ms]
[OGL LOG][lduLduBase.H:330] 
Statistics:
	Time per iteration: 141410 [mu s]
	Time per residual norm calculation: 407.000000 [mu s]
	Time per iteration and DOF: 2.802579 [ns]
	Retrieve results bandwidth 2.121000 [GByte/s]
[OGL LOG][Proc: 0]Uy: solve_multi_gpu: 658.979 [ms]
BJcudaGKOBiCGStab:  Solving for Uy, Initial residual = 0.1262146997801619, Final residual = 0.006666692801518586, No Iterations 4
[OGL LOG][Proc: 0]: global_index_init: 0.014 [ms]
[OGL LOG][Proc: 0]Uz_local_coeffs: call_update: 0 [ms]
[OGL LOG][Proc: 0]Uz_non_local_coeffs: call_update: 0 [ms]
[OGL LOG][Proc: 0]Uz: update_local_matrix_data: 598.876 [ms]
[OGL LOG][Proc: 0]Uz: update_non_local_matrix_data: 1.641 [ms]
[OGL LOG][Proc: 0]Uz_matrix: call_update: 6.411 [ms]
[OGL LOG][Proc: 0]Uz_rhs: call_update: 30.27 [ms]
[OGL LOG][Preconditioner.H:121] Generate preconditioner BJ MaxBlockSize 1
[OGL LOG][Proc: 0]Uz: init_precond: 4.069 [ms]
[OGL LOG][StoppingCriterion.H:239] Creating stopping criterion with minIter 3 frequency 1
[OGL LOG][Proc: 0]Uz: generate_solver: 0.014 [ms]
[OGL LOG][Proc: 0]Uz: solve: 606.0650000000001 [ms]
[OGL LOG][Proc: 0]Uz: copy_x_back: 48.252 [ms]
[OGL LOG][lduLduBase.H:330] 
Statistics:
	Time per iteration: 202021 [mu s]
	Time per residual norm calculation: 420.000000 [mu s]
	Time per iteration and DOF: 4.003818 [ns]
	Retrieve results bandwidth 2.097000 [GByte/s]
[OGL LOG][Proc: 0]Uz: solve_multi_gpu: 699.486 [ms]
BJcudaGKOBiCGStab:  Solving for Uz, Initial residual = 0.106688202174005, Final residual = 0.01010539783488388, No Iterations 3
[OGL LOG][Proc: 0]: global_index_init: 0.017 [ms]
[OGL LOG][Proc: 0]p_local_coeffs: call_update: 0 [ms]
[OGL LOG][Proc: 0]p_non_local_coeffs: call_update: 0 [ms]
[OGL LOG][Proc: 0]p: update_local_matrix_data: 465.088 [ms]
[OGL LOG][Proc: 0]p: update_non_local_matrix_data: 1.64 [ms]
[OGL LOG][Proc: 0]p_matrix: call_update: 6.699 [ms]
[OGL LOG][Proc: 0]p_rhs: call_update: 29.954 [ms]
[OGL LOG][Preconditioner.H:121] Generate preconditioner BJ MaxBlockSize 1
[OGL LOG][Proc: 0]p: init_precond: 3.214 [ms]
[OGL LOG][StoppingCriterion.H:239] Creating stopping criterion with minIter 619 frequency 4
[OGL LOG][Proc: 0]p: generate_solver: 0.014 [ms]
[OGL LOG][Proc: 0]p: solve: 2711.843 [ms]
[OGL LOG][Proc: 0]p: copy_x_back: 49.643 [ms]
[OGL LOG][lduLduBase.H:330] 
Statistics:
	Time per iteration: 4366 [mu s]
	Time per residual norm calculation: 218.000000 [mu s]
	Time per iteration and DOF: 0.086529 [ns]
	Retrieve results bandwidth 2.038000 [GByte/s]
[OGL LOG][Proc: 0]p: solve_multi_gpu: 2804.537 [ms]
BJcudaGKOCG:  Solving for p, Initial residual = 0.3904123669034595, Final residual = 0.0004316129586539995, No Iterations 621
time step continuity errors : sum local = 0.006476160161987357, global = -0.0009447889662008406, cumulative = 0.003536849851862746
[OGL LOG][Proc: 0]: global_index_init: 0.033 [ms]
[OGL LOG][Proc: 0]nuTilda_local_coeffs: call_update: 0 [ms]
[OGL LOG][Proc: 0]nuTilda_non_local_coeffs: call_update: 0 [ms]
[OGL LOG][Proc: 0]nuTilda: update_local_matrix_data: 600.963 [ms]
[OGL LOG][Proc: 0]nuTilda: update_non_local_matrix_data: 1.588 [ms]
[OGL LOG][Proc: 0]nuTilda_matrix: call_update: 6.646 [ms]
[OGL LOG][Proc: 0]nuTilda_rhs: call_update: 30.153 [ms]
[OGL LOG][Preconditioner.H:121] Generate preconditioner BJ MaxBlockSize 1
[OGL LOG][Proc: 0]nuTilda: init_precond: 4.392 [ms]
[OGL LOG][StoppingCriterion.H:239] Creating stopping criterion with minIter 2 frequency 1
[OGL LOG][Proc: 0]nuTilda: generate_solver: 0.023 [ms]
[OGL LOG][Proc: 0]nuTilda: solve: 601.6660000000001 [ms]
[OGL LOG][Proc: 0]nuTilda: copy_x_back: 48.741 [ms]
[OGL LOG][lduLduBase.H:330] 
Statistics:
	Time per iteration: 300833 [mu s]
	Time per residual norm calculation: 210.000000 [mu s]
	Time per iteration and DOF: 5.962155 [ns]
	Retrieve results bandwidth 2.076000 [GByte/s]
[OGL LOG][Proc: 0]nuTilda: solve_multi_gpu: 696.362 [ms]
BJcudaGKOBiCGStab:  Solving for nuTilda, Initial residual = 0.135979459060355, Final residual = 0.007828751759679883, No Iterations 2
ExecutionTime = 2820.7 s  ClockTime = 2827 s

Time = 5

velocityDampingConstraint velocityDamping damped 13922 (0.03%) of cells, with max limit 300
[OGL LOG][Proc: 0]: global_index_init: 0.117 [ms]
[OGL LOG][Proc: 0]Ux_local_coeffs: call_update: 0 [ms]
[OGL LOG][Proc: 0]Ux_non_local_coeffs: call_update: 0 [ms]
[OGL LOG][Proc: 0]Ux: update_local_matrix_data: 600.308 [ms]
[OGL LOG][Proc: 0]Ux: update_non_local_matrix_data: 1.628 [ms]
[OGL LOG][Proc: 0]Ux_matrix: call_update: 7.219 [ms]
[OGL LOG][Proc: 0]Ux_rhs: call_update: 30.09 [ms]
[OGL LOG][Preconditioner.H:121] Generate preconditioner BJ MaxBlockSize 1
[OGL LOG][Proc: 0]Ux: init_precond: 3.758 [ms]
[OGL LOG][StoppingCriterion.H:239] Creating stopping criterion with minIter 4 frequency 1
[OGL LOG][Proc: 0]Ux: generate_solver: 0.018 [ms]
[OGL LOG][Proc: 0]Ux: solve: 555.196 [ms]
[OGL LOG][Proc: 0]Ux: copy_x_back: 48.393 [ms]
[OGL LOG][lduLduBase.H:330] 
Statistics:
	Time per iteration: 277598 [mu s]
	Time per residual norm calculation: 231.000000 [mu s]
	Time per iteration and DOF: 5.501665 [ns]
	Retrieve results bandwidth 2.090000 [GByte/s]
[OGL LOG][Proc: 0]Ux: solve_multi_gpu: 649.131 [ms]
BJcudaGKOBiCGStab:  Solving for Ux, Initial residual = 0.3295183247827352, Final residual = 0.02354723498778625, No Iterations 2
[OGL LOG][Proc: 0]: global_index_init: 0.018 [ms]
[OGL LOG][Proc: 0]Uy_local_coeffs: call_update: 0 [ms]
[OGL LOG][Proc: 0]Uy_non_local_coeffs: call_update: 0 [ms]
[OGL LOG][Proc: 0]Uy: update_local_matrix_data: 600.3680000000001 [ms]
[OGL LOG][Proc: 0]Uy: update_non_local_matrix_data: 1.606 [ms]
[OGL LOG][Proc: 0]Uy_matrix: call_update: 7.191 [ms]
[OGL LOG][Proc: 0]Uy_rhs: call_update: 29.56 [ms]
[OGL LOG][Preconditioner.H:121] Generate preconditioner BJ MaxBlockSize 1
[OGL LOG][Proc: 0]Uy: init_precond: 3.936 [ms]
[OGL LOG][StoppingCriterion.H:239] Creating stopping criterion with minIter 4 frequency 1
[OGL LOG][Proc: 0]Uy: generate_solver: 0.014 [ms]
[OGL LOG][Proc: 0]Uy: solve: 557.923 [ms]
[OGL LOG][Proc: 0]Uy: copy_x_back: 48.305 [ms]
[OGL LOG][lduLduBase.H:330] 
Statistics:
	Time per iteration: 185974 [mu s]
	Time per residual norm calculation: 410.000000 [mu s]
	Time per iteration and DOF: 3.685785 [ns]
	Retrieve results bandwidth 2.094000 [GByte/s]
[OGL LOG][Proc: 0]Uy: solve_multi_gpu: 651.631 [ms]
BJcudaGKOBiCGStab:  Solving for Uy, Initial residual = 0.4148875397132369, Final residual = 0.03116832489949959, No Iterations 3
[OGL LOG][Proc: 0]: global_index_init: 0.014 [ms]
[OGL LOG][Proc: 0]Uz_local_coeffs: call_update: 0 [ms]
[OGL LOG][Proc: 0]Uz_non_local_coeffs: call_update: 0 [ms]
[OGL LOG][Proc: 0]Uz: update_local_matrix_data: 600.2809999999999 [ms]
[OGL LOG][Proc: 0]Uz: update_non_local_matrix_data: 1.596 [ms]
[OGL LOG][Proc: 0]Uz_matrix: call_update: 7.062 [ms]
[OGL LOG][Proc: 0]Uz_rhs: call_update: 29.729 [ms]
[OGL LOG][Preconditioner.H:121] Generate preconditioner BJ MaxBlockSize 1
[OGL LOG][Proc: 0]Uz: init_precond: 5.661 [ms]
[OGL LOG][StoppingCriterion.H:239] Creating stopping criterion with minIter 3 frequency 1
[OGL LOG][Proc: 0]Uz: generate_solver: 0.014 [ms]
[OGL LOG][Proc: 0]Uz: solve: 563.429 [ms]
[OGL LOG][Proc: 0]Uz: copy_x_back: 48.136 [ms]
[OGL LOG][lduLduBase.H:330] 
Statistics:
	Time per iteration: 187809 [mu s]
	Time per residual norm calculation: 209.000000 [mu s]
	Time per iteration and DOF: 3.722153 [ns]
	Retrieve results bandwidth 2.102000 [GByte/s]
[OGL LOG][Proc: 0]Uz: solve_multi_gpu: 658.158 [ms]
BJcudaGKOBiCGStab:  Solving for Uz, Initial residual = 0.4915205999840142, Final residual = 0.03765640498967934, No Iterations 3
[OGL LOG][Proc: 0]: global_index_init: 0.02 [ms]
[OGL LOG][Proc: 0]p_local_coeffs: call_update: 0 [ms]
[OGL LOG][Proc: 0]p_non_local_coeffs: call_update: 0 [ms]
[OGL LOG][Proc: 0]p: update_local_matrix_data: 463.968 [ms]
[OGL LOG][Proc: 0]p: update_non_local_matrix_data: 1.699 [ms]
[OGL LOG][Proc: 0]p_matrix: call_update: 7.554 [ms]
[OGL LOG][Proc: 0]p_rhs: call_update: 30.158 [ms]
[OGL LOG][Preconditioner.H:121] Generate preconditioner BJ MaxBlockSize 1
[OGL LOG][Proc: 0]p: init_precond: 3.92 [ms]
[OGL LOG][StoppingCriterion.H:239] Creating stopping criterion with minIter 372 frequency 3
[OGL LOG][Proc: 0]p: generate_solver: 0.018 [ms]
[OGL LOG][Proc: 0]p: solve: 3772.703 [ms]
[OGL LOG][Proc: 0]p: copy_x_back: 49.739 [ms]
[OGL LOG][lduLduBase.H:330] 
Statistics:
	Time per iteration: 4159 [mu s]
	Time per residual norm calculation: 210.000000 [mu s]
	Time per iteration and DOF: 0.082426 [ns]
	Retrieve results bandwidth 2.034000 [GByte/s]
[OGL LOG][Proc: 0]p: solve_multi_gpu: 3867.259 [ms]
BJcudaGKOCG:  Solving for p, Initial residual = 0.2411333004698503, Final residual = 0.002263792695094702, No Iterations 907
time step continuity errors : sum local = 0.03223710593895317, global = -0.001026288101823798, cumulative = 0.002510561750038949
[OGL LOG][Proc: 0]: global_index_init: 0.023 [ms]
[OGL LOG][Proc: 0]nuTilda_local_coeffs: call_update: 0 [ms]
[OGL LOG][Proc: 0]nuTilda_non_local_coeffs: call_update: 0 [ms]
[OGL LOG][Proc: 0]nuTilda: update_local_matrix_data: 599.971 [ms]
[OGL LOG][Proc: 0]nuTilda: update_non_local_matrix_data: 1.678 [ms]
[OGL LOG][Proc: 0]nuTilda_matrix: call_update: 6.704 [ms]
[OGL LOG][Proc: 0]nuTilda_rhs: call_update: 30.18 [ms]
[OGL LOG][Preconditioner.H:121] Generate preconditioner BJ MaxBlockSize 1
[OGL LOG][Proc: 0]nuTilda: init_precond: 3.648 [ms]
[OGL LOG][StoppingCriterion.H:239] Creating stopping criterion with minIter 3 frequency 1
[OGL LOG][Proc: 0]nuTilda: generate_solver: 0.021 [ms]
[OGL LOG][Proc: 0]nuTilda: solve: 556.73 [ms]
[OGL LOG][Proc: 0]nuTilda: copy_x_back: 48.408 [ms]
[OGL LOG][lduLduBase.H:330] 
Statistics:
	Time per iteration: 278365 [mu s]
	Time per residual norm calculation: 217.000000 [mu s]
	Time per iteration and DOF: 5.516866 [ns]
	Retrieve results bandwidth 2.090000 [GByte/s]
[OGL LOG][Proc: 0]nuTilda: solve_multi_gpu: 650.143 [ms]
BJcudaGKOBiCGStab:  Solving for nuTilda, Initial residual = 0.08873151150138779, Final residual = 0.004200137803072268, No Iterations 2
ExecutionTime = 2876.46 s  ClockTime = 2882 s

Time = 6

velocityDampingConstraint velocityDamping damped 1545 (0%) of cells, with max limit 300
[OGL LOG][Proc: 0]: global_index_init: 0.08599999999999999 [ms]
[OGL LOG][Proc: 0]Ux_local_coeffs: call_update: 0 [ms]
[OGL LOG][Proc: 0]Ux_non_local_coeffs: call_update: 0 [ms]
[OGL LOG][Proc: 0]Ux: update_local_matrix_data: 600.322 [ms]
[OGL LOG][Proc: 0]Ux: update_non_local_matrix_data: 1.615 [ms]
[OGL LOG][Proc: 0]Ux_matrix: call_update: 6.854 [ms]
[OGL LOG][Proc: 0]Ux_rhs: call_update: 29.431 [ms]
[OGL LOG][Preconditioner.H:121] Generate preconditioner BJ MaxBlockSize 1
[OGL LOG][Proc: 0]Ux: init_precond: 3.495 [ms]
[OGL LOG][StoppingCriterion.H:239] Creating stopping criterion with minIter 3 frequency 1
[OGL LOG][Proc: 0]Ux: generate_solver: 0.025 [ms]
[OGL LOG][Proc: 0]Ux: solve: 565.037 [ms]
[OGL LOG][Proc: 0]Ux: copy_x_back: 47.627 [ms]
[OGL LOG][lduLduBase.H:330] 
Statistics:
	Time per iteration: 188345 [mu s]
	Time per residual norm calculation: 414.000000 [mu s]
	Time per iteration and DOF: 3.732776 [ns]
	Retrieve results bandwidth 2.124000 [GByte/s]
[OGL LOG][Proc: 0]Ux: solve_multi_gpu: 654.748 [ms]
BJcudaGKOBiCGStab:  Solving for Ux, Initial residual = 0.1796296100061994, Final residual = 0.01516354026220809, No Iterations 3
[OGL LOG][Proc: 0]: global_index_init: 0.016 [ms]
[OGL LOG][Proc: 0]Uy_local_coeffs: call_update: 0 [ms]
[OGL LOG][Proc: 0]Uy_non_local_coeffs: call_update: 0 [ms]
[OGL LOG][Proc: 0]Uy: update_local_matrix_data: 599.1849999999999 [ms]
[OGL LOG][Proc: 0]Uy: update_non_local_matrix_data: 1.583 [ms]
[OGL LOG][Proc: 0]Uy_matrix: call_update: 6.755 [ms]
[OGL LOG][Proc: 0]Uy_rhs: call_update: 29.972 [ms]
[OGL LOG][Preconditioner.H:121] Generate preconditioner BJ MaxBlockSize 1
[OGL LOG][Proc: 0]Uy: init_precond: 3.616 [ms]
[OGL LOG][StoppingCriterion.H:239] Creating stopping criterion with minIter 3 frequency 1
[OGL LOG][Proc: 0]Uy: generate_solver: 0.016 [ms]
[OGL LOG][Proc: 0]Uy: solve: 558.687 [ms]
[OGL LOG][Proc: 0]Uy: copy_x_back: 48.086 [ms]
[OGL LOG][lduLduBase.H:330] 
Statistics:
	Time per iteration: 186229 [mu s]
	Time per residual norm calculation: 409.000000 [mu s]
	Time per iteration and DOF: 3.690839 [ns]
	Retrieve results bandwidth 2.104000 [GByte/s]
[OGL LOG][Proc: 0]Uy: solve_multi_gpu: 651.644 [ms]
BJcudaGKOBiCGStab:  Solving for Uy, Initial residual = 0.347650044640714, Final residual = 0.02660264031966177, No Iterations 3
[OGL LOG][Proc: 0]: global_index_init: 0.026 [ms]
[OGL LOG][Proc: 0]Uz_local_coeffs: call_update: 0 [ms]
[OGL LOG][Proc: 0]Uz_non_local_coeffs: call_update: 0 [ms]
[OGL LOG][Proc: 0]Uz: update_local_matrix_data: 601.617 [ms]
[OGL LOG][Proc: 0]Uz: update_non_local_matrix_data: 1.644 [ms]
[OGL LOG][Proc: 0]Uz_matrix: call_update: 7.352 [ms]
[OGL LOG][Proc: 0]Uz_rhs: call_update: 29.292 [ms]
[OGL LOG][Preconditioner.H:121] Generate preconditioner BJ MaxBlockSize 1
[OGL LOG][Proc: 0]Uz: init_precond: 3.442 [ms]
[OGL LOG][StoppingCriterion.H:239] Creating stopping criterion with minIter 4 frequency 1
[OGL LOG][Proc: 0]Uz: generate_solver: 0.016 [ms]
[OGL LOG][Proc: 0]Uz: solve: 562.383 [ms]
[OGL LOG][Proc: 0]Uz: copy_x_back: 48.003 [ms]
[OGL LOG][lduLduBase.H:330] 
Statistics:
	Time per iteration: 187461 [mu s]
	Time per residual norm calculation: 215.000000 [mu s]
	Time per iteration and DOF: 3.715256 [ns]
	Retrieve results bandwidth 2.107000 [GByte/s]
[OGL LOG][Proc: 0]Uz: solve_multi_gpu: 666.539 [ms]
BJcudaGKOBiCGStab:  Solving for Uz, Initial residual = 0.3153884738068949, Final residual = 0.02573981319899057, No Iterations 3
[OGL LOG][Proc: 0]: global_index_init: 0.02 [ms]
[OGL LOG][Proc: 0]p_local_coeffs: call_update: 0 [ms]
[OGL LOG][Proc: 0]p_non_local_coeffs: call_update: 0 [ms]
[OGL LOG][Proc: 0]p: update_local_matrix_data: 461.824 [ms]
[OGL LOG][Proc: 0]p: update_non_local_matrix_data: 1.638 [ms]
[OGL LOG][Proc: 0]p_matrix: call_update: 6.448 [ms]
[OGL LOG][Proc: 0]p_rhs: call_update: 29.828 [ms]
[OGL LOG][Preconditioner.H:121] Generate preconditioner BJ MaxBlockSize 1
[OGL LOG][Proc: 0]p: init_precond: 3.397 [ms]
[OGL LOG][StoppingCriterion.H:239] Creating stopping criterion with minIter 544 frequency 4
[OGL LOG][Proc: 0]p: generate_solver: 0.016 [ms]
[OGL LOG][Proc: 0]p: solve: 3035.001 [ms]
[OGL LOG][Proc: 0]p: copy_x_back: 49.478 [ms]
[OGL LOG][lduLduBase.H:330] 
Statistics:
	Time per iteration: 4918 [mu s]
	Time per residual norm calculation: 198.000000 [mu s]
	Time per iteration and DOF: 0.097469 [ns]
	Retrieve results bandwidth 2.045000 [GByte/s]
[OGL LOG][Proc: 0]p: solve_multi_gpu: 3127.199 [ms]
BJcudaGKOCG:  Solving for p, Initial residual = 0.4961240422837963, Final residual = 0.004913990845940203, No Iterations 617
time step continuity errors : sum local = 0.03448078941488654, global = -0.008308023573979226, cumulative = -0.005797461823940277
[OGL LOG][Proc: 0]: global_index_init: 0.021 [ms]
[OGL LOG][Proc: 0]nuTilda_local_coeffs: call_update: 0 [ms]
[OGL LOG][Proc: 0]nuTilda_non_local_coeffs: call_update: 0 [ms]
[OGL LOG][Proc: 0]nuTilda: update_local_matrix_data: 597.341 [ms]
[OGL LOG][Proc: 0]nuTilda: update_non_local_matrix_data: 1.615 [ms]
[OGL LOG][Proc: 0]nuTilda_matrix: call_update: 6.323 [ms]
[OGL LOG][Proc: 0]nuTilda_rhs: call_update: 30.181 [ms]
[OGL LOG][Preconditioner.H:121] Generate preconditioner BJ MaxBlockSize 1
[OGL LOG][Proc: 0]nuTilda: init_precond: 3.239 [ms]
[OGL LOG][StoppingCriterion.H:239] Creating stopping criterion with minIter 3 frequency 1
[OGL LOG][Proc: 0]nuTilda: generate_solver: 0.017 [ms]
[OGL LOG][Proc: 0]nuTilda: solve: 564.014 [ms]
[OGL LOG][Proc: 0]nuTilda: copy_x_back: 46.943 [ms]
[OGL LOG][lduLduBase.H:330] 
Statistics:
	Time per iteration: 282007 [mu s]
	Time per residual norm calculation: 409.000000 [mu s]
	Time per iteration and DOF: 5.589046 [ns]
	Retrieve results bandwidth 2.155000 [GByte/s]
[OGL LOG][Proc: 0]nuTilda: solve_multi_gpu: 652.932 [ms]
BJcudaGKOBiCGStab:  Solving for nuTilda, Initial residual = 0.061179437852622, Final residual = 0.005857040279749899, No Iterations 2
bounding nuTilda, min: -9.605169972151298e-05 max: 0.001265021738072097 average: 8.043739302905683e-05
ExecutionTime = 2931.11 s  ClockTime = 2938 s

Time = 7

velocityDampingConstraint velocityDamping damped 3949 (0.01%) of cells, with max limit 300
[OGL LOG][Proc: 0]: global_index_init: 0.037 [ms]
[OGL LOG][Proc: 0]Ux_local_coeffs: call_update: 0 [ms]
[OGL LOG][Proc: 0]Ux_non_local_coeffs: call_update: 0 [ms]
[OGL LOG][Proc: 0]Ux: update_local_matrix_data: 599.788 [ms]
[OGL LOG][Proc: 0]Ux: update_non_local_matrix_data: 1.687 [ms]
[OGL LOG][Proc: 0]Ux_matrix: call_update: 7.948 [ms]
[OGL LOG][Proc: 0]Ux_rhs: call_update: 29.637 [ms]
[OGL LOG][Preconditioner.H:121] Generate preconditioner BJ MaxBlockSize 1
[OGL LOG][Proc: 0]Ux: init_precond: 3.402 [ms]
[OGL LOG][StoppingCriterion.H:239] Creating stopping criterion with minIter 3 frequency 1
[OGL LOG][Proc: 0]Ux: generate_solver: 0.025 [ms]
[OGL LOG][Proc: 0]Ux: solve: 633.5940000000001 [ms]
[OGL LOG][Proc: 0]Ux: copy_x_back: 49.454 [ms]
[OGL LOG][lduLduBase.H:330] 
Statistics:
	Time per iteration: 211198 [mu s]
	Time per residual norm calculation: 220.000000 [mu s]
	Time per iteration and DOF: 4.185695 [ns]
	Retrieve results bandwidth 2.046000 [GByte/s]
[OGL LOG][Proc: 0]Ux: solve_multi_gpu: 728.79 [ms]
BJcudaGKOBiCGStab:  Solving for Ux, Initial residual = 0.1713820951854527, Final residual = 0.01396328308248532, No Iterations 3
[OGL LOG][Proc: 0]: global_index_init: 0.015 [ms]
[OGL LOG][Proc: 0]Uy_local_coeffs: call_update: 0 [ms]
[OGL LOG][Proc: 0]Uy_non_local_coeffs: call_update: 0 [ms]
[OGL LOG][Proc: 0]Uy: update_local_matrix_data: 599.782 [ms]
[OGL LOG][Proc: 0]Uy: update_non_local_matrix_data: 1.588 [ms]
[OGL LOG][Proc: 0]Uy_matrix: call_update: 7.252 [ms]
[OGL LOG][Proc: 0]Uy_rhs: call_update: 29.886 [ms]
[OGL LOG][Preconditioner.H:121] Generate preconditioner BJ MaxBlockSize 1
[OGL LOG][Proc: 0]Uy: init_precond: 3.781 [ms]
[OGL LOG][StoppingCriterion.H:239] Creating stopping criterion with minIter 3 frequency 1
[OGL LOG][Proc: 0]Uy: generate_solver: 0.014 [ms]
[OGL LOG][Proc: 0]Uy: solve: 567.143 [ms]
[OGL LOG][Proc: 0]Uy: copy_x_back: 47.828 [ms]
[OGL LOG][lduLduBase.H:330] 
Statistics:
	Time per iteration: 141785 [mu s]
	Time per residual norm calculation: 402.000000 [mu s]
	Time per iteration and DOF: 2.810012 [ns]
	Retrieve results bandwidth 2.115000 [GByte/s]
[OGL LOG][Proc: 0]Uy: solve_multi_gpu: 660.1660000000001 [ms]
BJcudaGKOBiCGStab:  Solving for Uy, Initial residual = 0.1718086772922525, Final residual = 0.01058123555807838, No Iterations 4
[OGL LOG][Proc: 0]: global_index_init: 0.013 [ms]
[OGL LOG][Proc: 0]Uz_local_coeffs: call_update: 0 [ms]
[OGL LOG][Proc: 0]Uz_non_local_coeffs: call_update: 0 [ms]
[OGL LOG][Proc: 0]Uz: update_local_matrix_data: 599.754 [ms]
[OGL LOG][Proc: 0]Uz: update_non_local_matrix_data: 1.636 [ms]
[OGL LOG][Proc: 0]Uz_matrix: call_update: 7.351 [ms]
[OGL LOG][Proc: 0]Uz_rhs: call_update: 29.697 [ms]
[OGL LOG][Preconditioner.H:121] Generate preconditioner BJ MaxBlockSize 1
[OGL LOG][Proc: 0]Uz: init_precond: 3.641 [ms]
[OGL LOG][StoppingCriterion.H:239] Creating stopping criterion with minIter 4 frequency 1
[OGL LOG][Proc: 0]Uz: generate_solver: 0.017 [ms]
[OGL LOG][Proc: 0]Uz: solve: 571.79 [ms]
[OGL LOG][Proc: 0]Uz: copy_x_back: 48.234 [ms]
[OGL LOG][lduLduBase.H:330] 
Statistics:
	Time per iteration: 114358 [mu s]
	Time per residual norm calculation: 410.000000 [mu s]
	Time per iteration and DOF: 2.266441 [ns]
	Retrieve results bandwidth 2.097000 [GByte/s]
[OGL LOG][Proc: 0]Uz: solve_multi_gpu: 664.703 [ms]
BJcudaGKOBiCGStab:  Solving for Uz, Initial residual = 0.202913139148087, Final residual = 0.01037390137143861, No Iterations 5
[OGL LOG][Proc: 0]: global_index_init: 0.017 [ms]
[OGL LOG][Proc: 0]p_local_coeffs: call_update: 0 [ms]
[OGL LOG][Proc: 0]p_non_local_coeffs: call_update: 0 [ms]
[OGL LOG][Proc: 0]p: update_local_matrix_data: 463.608 [ms]
[OGL LOG][Proc: 0]p: update_non_local_matrix_data: 1.615 [ms]
[OGL LOG][Proc: 0]p_matrix: call_update: 7.142 [ms]
[OGL LOG][Proc: 0]p_rhs: call_update: 29.619 [ms]
[OGL LOG][Preconditioner.H:121] Generate preconditioner BJ MaxBlockSize 1
[OGL LOG][Proc: 0]p: init_precond: 3.22 [ms]
[OGL LOG][StoppingCriterion.H:239] Creating stopping criterion with minIter 370 frequency 3
[OGL LOG][Proc: 0]p: generate_solver: 0.016 [ms]
[OGL LOG][Proc: 0]p: solve: 3121.191 [ms]
[OGL LOG][Proc: 0]p: copy_x_back: 49.13 [ms]
[OGL LOG][lduLduBase.H:330] 
Statistics:
	Time per iteration: 4275 [mu s]
	Time per residual norm calculation: 209.000000 [mu s]
	Time per iteration and DOF: 0.084725 [ns]
	Retrieve results bandwidth 2.059000 [GByte/s]
[OGL LOG][Proc: 0]p: solve_multi_gpu: 3213.088 [ms]
BJcudaGKOCG:  Solving for p, Initial residual = 0.1749756387409049, Final residual = 0.001721025526718882, No Iterations 730
time step continuity errors : sum local = 0.02037511055375172, global = -0.001386391842562936, cumulative = -0.007183853666503213
[OGL LOG][Proc: 0]: global_index_init: 0.027 [ms]
[OGL LOG][Proc: 0]nuTilda_local_coeffs: call_update: 0 [ms]
[OGL LOG][Proc: 0]nuTilda_non_local_coeffs: call_update: 0 [ms]
[OGL LOG][Proc: 0]nuTilda: update_local_matrix_data: 600.12 [ms]
[OGL LOG][Proc: 0]nuTilda: update_non_local_matrix_data: 1.621 [ms]
[OGL LOG][Proc: 0]nuTilda_matrix: call_update: 6.801 [ms]
[OGL LOG][Proc: 0]nuTilda_rhs: call_update: 30.254 [ms]
[OGL LOG][Preconditioner.H:121] Generate preconditioner BJ MaxBlockSize 1
[OGL LOG][Proc: 0]nuTilda: init_precond: 4.122 [ms]
[OGL LOG][StoppingCriterion.H:239] Creating stopping criterion with minIter 2 frequency 1
[OGL LOG][Proc: 0]nuTilda: generate_solver: 0.022 [ms]
[OGL LOG][Proc: 0]nuTilda: solve: 558.778 [ms]
[OGL LOG][Proc: 0]nuTilda: copy_x_back: 48.829 [ms]
[OGL LOG][lduLduBase.H:330] 
Statistics:
	Time per iteration: 279389 [mu s]
	Time per residual norm calculation: 208.000000 [mu s]
	Time per iteration and DOF: 5.537161 [ns]
	Retrieve results bandwidth 2.072000 [GByte/s]
[OGL LOG][Proc: 0]nuTilda: solve_multi_gpu: 653.455 [ms]
BJcudaGKOBiCGStab:  Solving for nuTilda, Initial residual = 0.05042913198295453, Final residual = 0.003085016796472242, No Iterations 2
ExecutionTime = 2986.65 s  ClockTime = 2993 s

Time = 8

velocityDampingConstraint velocityDamping damped 5157 (0.01%) of cells, with max limit 300
[OGL LOG][Proc: 0]: global_index_init: 0.095 [ms]
[OGL LOG][Proc: 0]Ux_local_coeffs: call_update: 0 [ms]
[OGL LOG][Proc: 0]Ux_non_local_coeffs: call_update: 0 [ms]
[OGL LOG][Proc: 0]Ux: update_local_matrix_data: 600.043 [ms]
[OGL LOG][Proc: 0]Ux: update_non_local_matrix_data: 1.606 [ms]
[OGL LOG][Proc: 0]Ux_matrix: call_update: 6.699 [ms]
[OGL LOG][Proc: 0]Ux_rhs: call_update: 30.208 [ms]
[OGL LOG][Preconditioner.H:121] Generate preconditioner BJ MaxBlockSize 1
[OGL LOG][Proc: 0]Ux: init_precond: 3.509 [ms]
[OGL LOG][StoppingCriterion.H:239] Creating stopping criterion with minIter 4 frequency 1
[OGL LOG][Proc: 0]Ux: generate_solver: 0.017 [ms]
[OGL LOG][Proc: 0]Ux: solve: 567.134 [ms]
[OGL LOG][Proc: 0]Ux: copy_x_back: 48.581 [ms]
[OGL LOG][lduLduBase.H:330] 
Statistics:
	Time per iteration: 141783 [mu s]
	Time per residual norm calculation: 410.000000 [mu s]
	Time per iteration and DOF: 2.809972 [ns]
	Retrieve results bandwidth 2.082000 [GByte/s]
[OGL LOG][Proc: 0]Ux: solve_multi_gpu: 660.827 [ms]
BJcudaGKOBiCGStab:  Solving for Ux, Initial residual = 0.2203265585625054, Final residual = 0.01473750275840414, No Iterations 4
[OGL LOG][Proc: 0]: global_index_init: 0.021 [ms]
[OGL LOG][Proc: 0]Uy_local_coeffs: call_update: 0 [ms]
[OGL LOG][Proc: 0]Uy_non_local_coeffs: call_update: 0 [ms]
[OGL LOG][Proc: 0]Uy: update_local_matrix_data: 598.867 [ms]
[OGL LOG][Proc: 0]Uy: update_non_local_matrix_data: 1.588 [ms]
[OGL LOG][Proc: 0]Uy_matrix: call_update: 6.711 [ms]
[OGL LOG][Proc: 0]Uy_rhs: call_update: 29.936 [ms]
[OGL LOG][Preconditioner.H:121] Generate preconditioner BJ MaxBlockSize 1
[OGL LOG][Proc: 0]Uy: init_precond: 4.229 [ms]
[OGL LOG][StoppingCriterion.H:239] Creating stopping criterion with minIter 4 frequency 1
[OGL LOG][Proc: 0]Uy: generate_solver: 0.014 [ms]
[OGL LOG][Proc: 0]Uy: solve: 566.471 [ms]
[OGL LOG][Proc: 0]Uy: copy_x_back: 47.733 [ms]
[OGL LOG][lduLduBase.H:330] 
Statistics:
	Time per iteration: 188823 [mu s]
	Time per residual norm calculation: 443.000000 [mu s]
	Time per iteration and DOF: 3.742249 [ns]
	Retrieve results bandwidth 2.119000 [GByte/s]
[OGL LOG][Proc: 0]Uy: solve_multi_gpu: 657.919 [ms]
BJcudaGKOBiCGStab:  Solving for Uy, Initial residual = 0.268690558387603, Final residual = 0.01978080345430658, No Iterations 3
[OGL LOG][Proc: 0]: global_index_init: 14.692 [ms]
[OGL LOG][Proc: 0]Uz_local_coeffs: call_update: 0 [ms]
[OGL LOG][Proc: 0]Uz_non_local_coeffs: call_update: 0 [ms]
[OGL LOG][Proc: 0]Uz: update_local_matrix_data: 599.4829999999999 [ms]
[OGL LOG][Proc: 0]Uz: update_non_local_matrix_data: 1.588 [ms]
[OGL LOG][Proc: 0]Uz_matrix: call_update: 6.453 [ms]
[OGL LOG][Proc: 0]Uz_rhs: call_update: 29.964 [ms]
[OGL LOG][Preconditioner.H:121] Generate preconditioner BJ MaxBlockSize 1
[OGL LOG][Proc: 0]Uz: init_precond: 3.927 [ms]
[OGL LOG][StoppingCriterion.H:239] Creating stopping criterion with minIter 6 frequency 1
[OGL LOG][Proc: 0]Uz: generate_solver: 0.014 [ms]
[OGL LOG][Proc: 0]Uz: solve: 590.588 [ms]
[OGL LOG][Proc: 0]Uz: copy_x_back: 48.104 [ms]
[OGL LOG][lduLduBase.H:330] 
Statistics:
	Time per iteration: 196862 [mu s]
	Time per residual norm calculation: 232.000000 [mu s]
	Time per iteration and DOF: 3.901573 [ns]
	Retrieve results bandwidth 2.103000 [GByte/s]
[OGL LOG][Proc: 0]Uz: solve_multi_gpu: 683.638 [ms]
BJcudaGKOBiCGStab:  Solving for Uz, Initial residual = 0.2797675284401742, Final residual = 0.01564287066637766, No Iterations 3
[OGL LOG][Proc: 0]: global_index_init: 0.021 [ms]
[OGL LOG][Proc: 0]p_local_coeffs: call_update: 0 [ms]
[OGL LOG][Proc: 0]p_non_local_coeffs: call_update: 0 [ms]
[OGL LOG][Proc: 0]p: update_local_matrix_data: 462.384 [ms]
[OGL LOG][Proc: 0]p: update_non_local_matrix_data: 1.626 [ms]
[OGL LOG][Proc: 0]p_matrix: call_update: 6.826 [ms]
[OGL LOG][Proc: 0]p_rhs: call_update: 29.641 [ms]
[OGL LOG][Preconditioner.H:121] Generate preconditioner BJ MaxBlockSize 1
[OGL LOG][Proc: 0]p: init_precond: 3.299 [ms]
[OGL LOG][StoppingCriterion.H:239] Creating stopping criterion with minIter 438 frequency 3
[OGL LOG][Proc: 0]p: generate_solver: 0.018 [ms]
[OGL LOG][Proc: 0]p: solve: 3674.776 [ms]
[OGL LOG][Proc: 0]p: copy_x_back: 49.048 [ms]
[OGL LOG][lduLduBase.H:330] 
Statistics:
	Time per iteration: 4133 [mu s]
	Time per residual norm calculation: 206.000000 [mu s]
	Time per iteration and DOF: 0.081911 [ns]
	Retrieve results bandwidth 2.063000 [GByte/s]
[OGL LOG][Proc: 0]p: solve_multi_gpu: 3766.458 [ms]
BJcudaGKOCG:  Solving for p, Initial residual = 0.2698313599681296, Final residual = 0.002660534060695194, No Iterations 889
time step continuity errors : sum local = 0.02111239402708621, global = 0.000451689899243112, cumulative = -0.006732163767260101
[OGL LOG][Proc: 0]: global_index_init: 0.024 [ms]
[OGL LOG][Proc: 0]nuTilda_local_coeffs: call_update: 0 [ms]
[OGL LOG][Proc: 0]nuTilda_non_local_coeffs: call_update: 0 [ms]
[OGL LOG][Proc: 0]nuTilda: update_local_matrix_data: 599.902 [ms]
[OGL LOG][Proc: 0]nuTilda: update_non_local_matrix_data: 1.64 [ms]
[OGL LOG][Proc: 0]nuTilda_matrix: call_update: 7.133 [ms]
[OGL LOG][Proc: 0]nuTilda_rhs: call_update: 31.9 [ms]
[OGL LOG][Preconditioner.H:121] Generate preconditioner BJ MaxBlockSize 1
[OGL LOG][Proc: 0]nuTilda: init_precond: 5.501 [ms]
[OGL LOG][StoppingCriterion.H:239] Creating stopping criterion with minIter 3 frequency 1
[OGL LOG][Proc: 0]nuTilda: generate_solver: 0.021 [ms]
[OGL LOG][Proc: 0]nuTilda: solve: 579.516 [ms]
[OGL LOG][Proc: 0]nuTilda: copy_x_back: 49.126 [ms]
[OGL LOG][lduLduBase.H:330] 
Statistics:
	Time per iteration: 289758 [mu s]
	Time per residual norm calculation: 215.000000 [mu s]
	Time per iteration and DOF: 5.742662 [ns]
	Retrieve results bandwidth 2.059000 [GByte/s]
[OGL LOG][Proc: 0]nuTilda: solve_multi_gpu: 679.226 [ms]
BJcudaGKOBiCGStab:  Solving for nuTilda, Initial residual = 0.03987214424964251, Final residual = 0.002100431185950793, No Iterations 2
ExecutionTime = 3041.7 s  ClockTime = 3049 s

Time = 9

velocityDampingConstraint velocityDamping damped 361 (0%) of cells, with max limit 300
[OGL LOG][Proc: 0]: global_index_init: 0.04 [ms]
[OGL LOG][Proc: 0]Ux_local_coeffs: call_update: 0 [ms]
[OGL LOG][Proc: 0]Ux_non_local_coeffs: call_update: 0 [ms]
[OGL LOG][Proc: 0]Ux: update_local_matrix_data: 602.45 [ms]
[OGL LOG][Proc: 0]Ux: update_non_local_matrix_data: 1.589 [ms]
[OGL LOG][Proc: 0]Ux_matrix: call_update: 6.862 [ms]
[OGL LOG][Proc: 0]Ux_rhs: call_update: 30.175 [ms]
[OGL LOG][Preconditioner.H:121] Generate preconditioner BJ MaxBlockSize 1
[OGL LOG][Proc: 0]Ux: init_precond: 4.199 [ms]
[OGL LOG][StoppingCriterion.H:239] Creating stopping criterion with minIter 4 frequency 1
[OGL LOG][Proc: 0]Ux: generate_solver: 0.026 [ms]
[OGL LOG][Proc: 0]Ux: solve: 562.779 [ms]
[OGL LOG][Proc: 0]Ux: copy_x_back: 48.544 [ms]
[OGL LOG][lduLduBase.H:330] 
Statistics:
	Time per iteration: 187593 [mu s]
	Time per residual norm calculation: 411.000000 [mu s]
	Time per iteration and DOF: 3.717872 [ns]
	Retrieve results bandwidth 2.084000 [GByte/s]
[OGL LOG][Proc: 0]Ux: solve_multi_gpu: 657.165 [ms]
BJcudaGKOBiCGStab:  Solving for Ux, Initial residual = 0.1018881547983857, Final residual = 0.009482347432545906, No Iterations 3
[OGL LOG][Proc: 0]: global_index_init: 0.013 [ms]
[OGL LOG][Proc: 0]Uy_local_coeffs: call_update: 0 [ms]
[OGL LOG][Proc: 0]Uy_non_local_coeffs: call_update: 0 [ms]
[OGL LOG][Proc: 0]Uy: update_local_matrix_data: 603.5839999999999 [ms]
[OGL LOG][Proc: 0]Uy: update_non_local_matrix_data: 1.662 [ms]
[OGL LOG][Proc: 0]Uy_matrix: call_update: 7.189 [ms]
[OGL LOG][Proc: 0]Uy_rhs: call_update: 29.774 [ms]
[OGL LOG][Preconditioner.H:121] Generate preconditioner BJ MaxBlockSize 1
[OGL LOG][Proc: 0]Uy: init_precond: 3.887 [ms]
[OGL LOG][StoppingCriterion.H:239] Creating stopping criterion with minIter 3 frequency 1
[OGL LOG][Proc: 0]Uy: generate_solver: 0.014 [ms]
[OGL LOG][Proc: 0]Uy: solve: 561.064 [ms]
[OGL LOG][Proc: 0]Uy: copy_x_back: 47.896 [ms]
[OGL LOG][lduLduBase.H:330] 
Statistics:
	Time per iteration: 187021 [mu s]
	Time per residual norm calculation: 435.000000 [mu s]
	Time per iteration and DOF: 3.706536 [ns]
	Retrieve results bandwidth 2.112000 [GByte/s]
[OGL LOG][Proc: 0]Uy: solve_multi_gpu: 654.554 [ms]
BJcudaGKOBiCGStab:  Solving for Uy, Initial residual = 0.1458952629237208, Final residual = 0.01458389059035579, No Iterations 3
[OGL LOG][Proc: 0]: global_index_init: 0.021 [ms]
[OGL LOG][Proc: 0]Uz_local_coeffs: call_update: 0 [ms]
[OGL LOG][Proc: 0]Uz_non_local_coeffs: call_update: 0 [ms]
[OGL LOG][Proc: 0]Uz: update_local_matrix_data: 600.712 [ms]
[OGL LOG][Proc: 0]Uz: update_non_local_matrix_data: 1.604 [ms]
[OGL LOG][Proc: 0]Uz_matrix: call_update: 6.933 [ms]
[OGL LOG][Proc: 0]Uz_rhs: call_update: 29.524 [ms]
[OGL LOG][Preconditioner.H:121] Generate preconditioner BJ MaxBlockSize 1
[OGL LOG][Proc: 0]Uz: init_precond: 3.987 [ms]
[OGL LOG][StoppingCriterion.H:239] Creating stopping criterion with minIter 4 frequency 1
[OGL LOG][Proc: 0]Uz: generate_solver: 0.015 [ms]
[OGL LOG][Proc: 0]Uz: solve: 569.285 [ms]
[OGL LOG][Proc: 0]Uz: copy_x_back: 48.152 [ms]
[OGL LOG][lduLduBase.H:330] 
Statistics:
	Time per iteration: 142321 [mu s]
	Time per residual norm calculation: 410.000000 [mu s]
	Time per iteration and DOF: 2.820634 [ns]
	Retrieve results bandwidth 2.101000 [GByte/s]
[OGL LOG][Proc: 0]Uz: solve_multi_gpu: 662.633 [ms]
BJcudaGKOBiCGStab:  Solving for Uz, Initial residual = 0.1154832879124766, Final residual = 0.005015679062050893, No Iterations 4
[OGL LOG][Proc: 0]: global_index_init: 0.017 [ms]
[OGL LOG][Proc: 0]p_local_coeffs: call_update: 0 [ms]
[OGL LOG][Proc: 0]p_non_local_coeffs: call_update: 0 [ms]
[OGL LOG][Proc: 0]p: update_local_matrix_data: 465.009 [ms]
[OGL LOG][Proc: 0]p: update_non_local_matrix_data: 1.665 [ms]
[OGL LOG][Proc: 0]p_matrix: call_update: 7.695 [ms]
[OGL LOG][Proc: 0]p_rhs: call_update: 30.03 [ms]
[OGL LOG][Preconditioner.H:121] Generate preconditioner BJ MaxBlockSize 1
[OGL LOG][Proc: 0]p: init_precond: 3.581 [ms]
[OGL LOG][StoppingCriterion.H:239] Creating stopping criterion with minIter 533 frequency 4
[OGL LOG][Proc: 0]p: generate_solver: 0.014 [ms]
[OGL LOG][Proc: 0]p: solve: 3442.793 [ms]
[OGL LOG][Proc: 0]p: copy_x_back: 49.371 [ms]
[OGL LOG][lduLduBase.H:330] 
Statistics:
	Time per iteration: 4173 [mu s]
	Time per residual norm calculation: 204.000000 [mu s]
	Time per iteration and DOF: 0.082704 [ns]
	Retrieve results bandwidth 2.049000 [GByte/s]
[OGL LOG][Proc: 0]p: solve_multi_gpu: 3536.571 [ms]
BJcudaGKOCG:  Solving for p, Initial residual = 0.6123089567720889, Final residual = 0.005797591016398663, No Iterations 825
time step continuity errors : sum local = 0.02755048568347888, global = 0.0008908620974754919, cumulative = -0.005841301669784609
[OGL LOG][Proc: 0]: global_index_init: 0.02 [ms]
[OGL LOG][Proc: 0]nuTilda_local_coeffs: call_update: 0 [ms]
[OGL LOG][Proc: 0]nuTilda_non_local_coeffs: call_update: 0 [ms]
[OGL LOG][Proc: 0]nuTilda: update_local_matrix_data: 600.74 [ms]
[OGL LOG][Proc: 0]nuTilda: update_non_local_matrix_data: 1.657 [ms]
[OGL LOG][Proc: 0]nuTilda_matrix: call_update: 7.136 [ms]
[OGL LOG][Proc: 0]nuTilda_rhs: call_update: 30.169 [ms]
[OGL LOG][Preconditioner.H:121] Generate preconditioner BJ MaxBlockSize 1
[OGL LOG][Proc: 0]nuTilda: init_precond: 4.512 [ms]
[OGL LOG][StoppingCriterion.H:239] Creating stopping criterion with minIter 3 frequency 1
[OGL LOG][Proc: 0]nuTilda: generate_solver: 0.014 [ms]
[OGL LOG][Proc: 0]nuTilda: solve: 612.182 [ms]
[OGL LOG][Proc: 0]nuTilda: copy_x_back: 47.598 [ms]
[OGL LOG][lduLduBase.H:330] 
Statistics:
	Time per iteration: 306091 [mu s]
	Time per residual norm calculation: 213.000000 [mu s]
	Time per iteration and DOF: 6.066363 [ns]
	Retrieve results bandwidth 2.125000 [GByte/s]
[OGL LOG][Proc: 0]nuTilda: solve_multi_gpu: 709.788 [ms]
BJcudaGKOBiCGStab:  Solving for nuTilda, Initial residual = 0.03571311452991029, Final residual = 0.002206056689177735, No Iterations 2
ExecutionTime = 3096.47 s  ClockTime = 3104 s

Time = 10

velocityDampingConstraint velocityDamping damped 2489 (0%) of cells, with max limit 300
[OGL LOG][Proc: 0]: global_index_init: 0.07199999999999999 [ms]
[OGL LOG][Proc: 0]Ux_local_coeffs: call_update: 0 [ms]
[OGL LOG][Proc: 0]Ux_non_local_coeffs: call_update: 0 [ms]
[OGL LOG][Proc: 0]Ux: update_local_matrix_data: 597.766 [ms]
[OGL LOG][Proc: 0]Ux: update_non_local_matrix_data: 1.576 [ms]
[OGL LOG][Proc: 0]Ux_matrix: call_update: 7.19 [ms]
[OGL LOG][Proc: 0]Ux_rhs: call_update: 29.47 [ms]
[OGL LOG][Preconditioner.H:121] Generate preconditioner BJ MaxBlockSize 1
[OGL LOG][Proc: 0]Ux: init_precond: 3.709 [ms]
[OGL LOG][StoppingCriterion.H:239] Creating stopping criterion with minIter 3 frequency 1
[OGL LOG][Proc: 0]Ux: generate_solver: 0.026 [ms]
[OGL LOG][Proc: 0]Ux: solve: 571.592 [ms]
[OGL LOG][Proc: 0]Ux: copy_x_back: 48.585 [ms]
[OGL LOG][lduLduBase.H:330] 
Statistics:
	Time per iteration: 142898 [mu s]
	Time per residual norm calculation: 414.000000 [mu s]
	Time per iteration and DOF: 2.832070 [ns]
	Retrieve results bandwidth 2.082000 [GByte/s]
[OGL LOG][Proc: 0]Ux: solve_multi_gpu: 665.213 [ms]
BJcudaGKOBiCGStab:  Solving for Ux, Initial residual = 0.05274336225052526, Final residual = 0.002586148712440754, No Iterations 4
[OGL LOG][Proc: 0]: global_index_init: 0.027 [ms]
[OGL LOG][Proc: 0]Uy_local_coeffs: call_update: 0 [ms]
[OGL LOG][Proc: 0]Uy_non_local_coeffs: call_update: 0 [ms]
[OGL LOG][Proc: 0]Uy: update_local_matrix_data: 598.708 [ms]
[OGL LOG][Proc: 0]Uy: update_non_local_matrix_data: 1.618 [ms]
[OGL LOG][Proc: 0]Uy_matrix: call_update: 6.803 [ms]
[OGL LOG][Proc: 0]Uy_rhs: call_update: 30.016 [ms]
[OGL LOG][Preconditioner.H:121] Generate preconditioner BJ MaxBlockSize 1
[OGL LOG][Proc: 0]Uy: init_precond: 3.778 [ms]
[OGL LOG][StoppingCriterion.H:239] Creating stopping criterion with minIter 3 frequency 1
[OGL LOG][Proc: 0]Uy: generate_solver: 0.015 [ms]
[OGL LOG][Proc: 0]Uy: solve: 603.383 [ms]
[OGL LOG][Proc: 0]Uy: copy_x_back: 46.507 [ms]
[OGL LOG][lduLduBase.H:330] 
Statistics:
	Time per iteration: 201127 [mu s]
	Time per residual norm calculation: 208.000000 [mu s]
	Time per iteration and DOF: 3.986100 [ns]
	Retrieve results bandwidth 2.175000 [GByte/s]
[OGL LOG][Proc: 0]Uy: solve_multi_gpu: 693.327 [ms]
BJcudaGKOBiCGStab:  Solving for Uy, Initial residual = 0.5556715209463687, Final residual = 0.04430486612397338, No Iterations 3
[OGL LOG][Proc: 0]: global_index_init: 13.749 [ms]
[OGL LOG][Proc: 0]Uz_local_coeffs: call_update: 0 [ms]
[OGL LOG][Proc: 0]Uz_non_local_coeffs: call_update: 0 [ms]
[OGL LOG][Proc: 0]Uz: update_local_matrix_data: 598.1950000000001 [ms]
[OGL LOG][Proc: 0]Uz: update_non_local_matrix_data: 1.593 [ms]
[OGL LOG][Proc: 0]Uz_matrix: call_update: 6.974 [ms]
[OGL LOG][Proc: 0]Uz_rhs: call_update: 29.331 [ms]
[OGL LOG][Preconditioner.H:121] Generate preconditioner BJ MaxBlockSize 1
[OGL LOG][Proc: 0]Uz: init_precond: 3.423 [ms]
[OGL LOG][StoppingCriterion.H:239] Creating stopping criterion with minIter 4 frequency 1
[OGL LOG][Proc: 0]Uz: generate_solver: 0.017 [ms]
[OGL LOG][Proc: 0]Uz: solve: 609.894 [ms]
[OGL LOG][Proc: 0]Uz: copy_x_back: 48.376 [ms]
[OGL LOG][lduLduBase.H:330] 
Statistics:
	Time per iteration: 203298 [mu s]
	Time per residual norm calculation: 217.000000 [mu s]
	Time per iteration and DOF: 4.029127 [ns]
	Retrieve results bandwidth 2.091000 [GByte/s]
[OGL LOG][Proc: 0]Uz: solve_multi_gpu: 702.42 [ms]
BJcudaGKOBiCGStab:  Solving for Uz, Initial residual = 0.1199566795949543, Final residual = 0.009716402313946153, No Iterations 3
[OGL LOG][Proc: 0]: global_index_init: 0.016 [ms]
[OGL LOG][Proc: 0]p_local_coeffs: call_update: 0 [ms]
[OGL LOG][Proc: 0]p_non_local_coeffs: call_update: 0 [ms]
[OGL LOG][Proc: 0]p: update_local_matrix_data: 462.424 [ms]
[OGL LOG][Proc: 0]p: update_non_local_matrix_data: 1.602 [ms]
[OGL LOG][Proc: 0]p_matrix: call_update: 7.118 [ms]
[OGL LOG][Proc: 0]p_rhs: call_update: 29.764 [ms]
[OGL LOG][Preconditioner.H:121] Generate preconditioner BJ MaxBlockSize 1
[OGL LOG][Proc: 0]p: init_precond: 3.63 [ms]
[OGL LOG][StoppingCriterion.H:239] Creating stopping criterion with minIter 495 frequency 4
[OGL LOG][Proc: 0]p: generate_solver: 0.015 [ms]
[OGL LOG][Proc: 0]p: solve: 2418.211 [ms]
[OGL LOG][Proc: 0]p: copy_x_back: 50.812 [ms]
[OGL LOG][lduLduBase.H:330] 
Statistics:
	Time per iteration: 4606 [mu s]
	Time per residual norm calculation: 206.000000 [mu s]
	Time per iteration and DOF: 0.091285 [ns]
	Retrieve results bandwidth 1.991000 [GByte/s]
[OGL LOG][Proc: 0]p: solve_multi_gpu: 2512.632 [ms]
BJcudaGKOCG:  Solving for p, Initial residual = 0.2661309009897385, Final residual = 0.002614646937944201, No Iterations 525
time step continuity errors : sum local = 0.02190329490455687, global = 0.0003317111134687662, cumulative = -0.005509590556315842
[OGL LOG][Proc: 0]: global_index_init: 0.026 [ms]
[OGL LOG][Proc: 0]nuTilda_local_coeffs: call_update: 0 [ms]
[OGL LOG][Proc: 0]nuTilda_non_local_coeffs: call_update: 0 [ms]
[OGL LOG][Proc: 0]nuTilda: update_local_matrix_data: 600.039 [ms]
[OGL LOG][Proc: 0]nuTilda: update_non_local_matrix_data: 1.665 [ms]
[OGL LOG][Proc: 0]nuTilda_matrix: call_update: 7.964 [ms]
[OGL LOG][Proc: 0]nuTilda_rhs: call_update: 31.967 [ms]
[OGL LOG][Preconditioner.H:121] Generate preconditioner BJ MaxBlockSize 1
[OGL LOG][Proc: 0]nuTilda: init_precond: 4.159 [ms]
[OGL LOG][StoppingCriterion.H:239] Creating stopping criterion with minIter 3 frequency 1
[OGL LOG][Proc: 0]nuTilda: generate_solver: 0.022 [ms]
[OGL LOG][Proc: 0]nuTilda: solve: 640.883 [ms]
[OGL LOG][Proc: 0]nuTilda: copy_x_back: 48.954 [ms]
[OGL LOG][lduLduBase.H:330] 
Statistics:
	Time per iteration: 320441 [mu s]
	Time per residual norm calculation: 223.000000 [mu s]
	Time per iteration and DOF: 6.350763 [ns]
	Retrieve results bandwidth 2.067000 [GByte/s]
[OGL LOG][Proc: 0]nuTilda: solve_multi_gpu: 738.5410000000001 [ms]
BJcudaGKOBiCGStab:  Solving for nuTilda, Initial residual = 0.02978931107963714, Final residual = 0.001700735351354598, No Iterations 2
ExecutionTime = 3150.09 s  ClockTime = 3157 s

Time = 11

velocityDampingConstraint velocityDamping damped 473 (0%) of cells, with max limit 300
[OGL LOG][Proc: 0]: global_index_init: 0.062 [ms]
[OGL LOG][Proc: 0]Ux_local_coeffs: call_update: 0 [ms]
[OGL LOG][Proc: 0]Ux_non_local_coeffs: call_update: 0 [ms]
[OGL LOG][Proc: 0]Ux: update_local_matrix_data: 600.854 [ms]
[OGL LOG][Proc: 0]Ux: update_non_local_matrix_data: 1.63 [ms]
[OGL LOG][Proc: 0]Ux_matrix: call_update: 6.292 [ms]
[OGL LOG][Proc: 0]Ux_rhs: call_update: 29.657 [ms]
[OGL LOG][Preconditioner.H:121] Generate preconditioner BJ MaxBlockSize 1
[OGL LOG][Proc: 0]Ux: init_precond: 3.678 [ms]
[OGL LOG][StoppingCriterion.H:239] Creating stopping criterion with minIter 4 frequency 1
[OGL LOG][Proc: 0]Ux: generate_solver: 0.025 [ms]
[OGL LOG][Proc: 0]Ux: solve: 563.486 [ms]
[OGL LOG][Proc: 0]Ux: copy_x_back: 48.997 [ms]
[OGL LOG][lduLduBase.H:330] 
Statistics:
	Time per iteration: 187828 [mu s]
	Time per residual norm calculation: 412.000000 [mu s]
	Time per iteration and DOF: 3.722530 [ns]
	Retrieve results bandwidth 2.065000 [GByte/s]
[OGL LOG][Proc: 0]Ux: solve_multi_gpu: 656.925 [ms]
BJcudaGKOBiCGStab:  Solving for Ux, Initial residual = 0.05079116198645083, Final residual = 0.004468992004151729, No Iterations 3
[OGL LOG][Proc: 0]: global_index_init: 0.018 [ms]
[OGL LOG][Proc: 0]Uy_local_coeffs: call_update: 0 [ms]
[OGL LOG][Proc: 0]Uy_non_local_coeffs: call_update: 0 [ms]
[OGL LOG][Proc: 0]Uy: update_local_matrix_data: 599.503 [ms]
[OGL LOG][Proc: 0]Uy: update_non_local_matrix_data: 1.647 [ms]
[OGL LOG][Proc: 0]Uy_matrix: call_update: 7.297 [ms]
[OGL LOG][Proc: 0]Uy_rhs: call_update: 29.923 [ms]
[...]
[OGL LOG][Proc: 0]: global_index_init: 0.027 [ms]
[OGL LOG][Proc: 0]nuTilda_local_coeffs: call_update: 0 [ms]
[OGL LOG][Proc: 0]nuTilda_non_local_coeffs: call_update: 0 [ms]
[OGL LOG][Proc: 0]nuTilda: update_local_matrix_data: 599.692 [ms]
[OGL LOG][Proc: 0]nuTilda: update_non_local_matrix_data: 1.632 [ms]
[OGL LOG][Proc: 0]nuTilda_matrix: call_update: 6.456 [ms]
[OGL LOG][Proc: 0]nuTilda_rhs: call_update: 30.633 [ms]
[OGL LOG][Preconditioner.H:121] Generate preconditioner BJ MaxBlockSize 1
[OGL LOG][Proc: 0]nuTilda: init_precond: 3.417 [ms]
[OGL LOG][StoppingCriterion.H:239] Creating stopping criterion with minIter 3 frequency 1
[OGL LOG][Proc: 0]nuTilda: generate_solver: 0.021 [ms]
[OGL LOG][Proc: 0]nuTilda: solve: 594.196 [ms]
[OGL LOG][Proc: 0]nuTilda: copy_x_back: 48.393 [ms]
[OGL LOG][lduLduBase.H:330] 
Statistics:
	Time per iteration: 297098 [mu s]
	Time per residual norm calculation: 219.000000 [mu s]
	Time per iteration and DOF: 5.888132 [ns]
	Retrieve results bandwidth 2.090000 [GByte/s]
[OGL LOG][Proc: 0]nuTilda: solve_multi_gpu: 687.458 [ms]
BJcudaGKOBiCGStab:  Solving for nuTilda, Initial residual = 0.009193845855084056, Final residual = 0.0008342189588460414, No Iterations 2
bounding nuTilda, min: -4.088288737257884e-06 max: 0.02311504627839911 average: 0.0007160678939629333
ExecutionTime = 6987.09 s  ClockTime = 7007 s

Time = 83

velocityDampingConstraint velocityDamping damped 0 (0%) of cells, with max limit 300
[OGL LOG][Proc: 0]: global_index_init: 0.059 [ms]
[OGL LOG][Proc: 0]Ux_local_coeffs: call_update: 0 [ms]
[OGL LOG][Proc: 0]Ux_non_local_coeffs: call_update: 0 [ms]
[OGL LOG][Proc: 0]Ux: update_local_matrix_data: 603.913 [ms]
[OGL LOG][Proc: 0]Ux: update_non_local_matrix_data: 1.776 [ms]
[OGL LOG][Proc: 0]Ux_matrix: call_update: 5.88 [ms]
[OGL LOG][Proc: 0]Ux_rhs: call_update: 30.558 [ms]
[OGL LOG][Preconditioner.H:121] Generate preconditioner BJ MaxBlockSize 1
[OGL LOG][Proc: 0]Ux: init_precond: 3.616 [ms]
[OGL LOG][StoppingCriterion.H:239] Creating stopping criterion with minIter 4 frequency 1
[OGL LOG][Proc: 0]Ux: generate_solver: 0.023 [ms]
[OGL LOG][Proc: 0]Ux: solve: 581.313 [ms]
[OGL LOG][Proc: 0]Ux: copy_x_back: 49.184 [ms]
[OGL LOG][lduLduBase.H:330] 
Statistics:
	Time per iteration: 116262 [mu s]
	Time per residual norm calculation: 422.000000 [mu s]
	Time per iteration and DOF: 2.304176 [ns]
	Retrieve results bandwidth 2.057000 [GByte/s]
[OGL LOG][Proc: 0]Ux: solve_multi_gpu: 675.4349999999999 [ms]
BJcudaGKOBiCGStab:  Solving for Ux, Initial residual = 0.004057258233338731, Final residual = 0.0001035465763393013, No Iterations 5
[OGL LOG][Proc: 0]: global_index_init: 0.024 [ms]
[OGL LOG][Proc: 0]Uy_local_coeffs: call_update: 0 [ms]
[OGL LOG][Proc: 0]Uy_non_local_coeffs: call_update: 0 [ms]
[OGL LOG][Proc: 0]Uy: update_local_matrix_data: 600.458 [ms]
[OGL LOG][Proc: 0]Uy: update_non_local_matrix_data: 1.634 [ms]
[OGL LOG][Proc: 0]Uy_matrix: call_update: 6.393 [ms]
[OGL LOG][Proc: 0]Uy_rhs: call_update: 30.46 [ms]
[OGL LOG][Preconditioner.H:121] Generate preconditioner BJ MaxBlockSize 1
[OGL LOG][Proc: 0]Uy: init_precond: 4.224 [ms]
[OGL LOG][StoppingCriterion.H:239] Creating stopping criterion with minIter 4 frequency 1
[OGL LOG][Proc: 0]Uy: generate_solver: 0.015 [ms]
[OGL LOG][Proc: 0]Uy: solve: 568.151 [ms]
[OGL LOG][Proc: 0]Uy: copy_x_back: 47.872 [ms]
[OGL LOG][lduLduBase.H:330] 
Statistics:
	Time per iteration: 189383 [mu s]
	Time per residual norm calculation: 211.000000 [mu s]
	Time per iteration and DOF: 3.753348 [ns]
	Retrieve results bandwidth 2.113000 [GByte/s]
[OGL LOG][Proc: 0]Uy: solve_multi_gpu: 661.521 [ms]
BJcudaGKOBiCGStab:  Solving for Uy, Initial residual = 0.01975198971920622, Final residual = 0.001960641986349491, No Iterations 3
[OGL LOG][Proc: 0]: global_index_init: 0.015 [ms]
[OGL LOG][Proc: 0]Uz_local_coeffs: call_update: 0 [ms]
[OGL LOG][Proc: 0]Uz_non_local_coeffs: call_update: 0 [ms]
[OGL LOG][Proc: 0]Uz: update_local_matrix_data: 600.676 [ms]
[OGL LOG][Proc: 0]Uz: update_non_local_matrix_data: 1.602 [ms]
[OGL LOG][Proc: 0]Uz_matrix: call_update: 6.251 [ms]
[OGL LOG][Proc: 0]Uz_rhs: call_update: 30.699 [ms]
[OGL LOG][Preconditioner.H:121] Generate preconditioner BJ MaxBlockSize 1
[OGL LOG][Proc: 0]Uz: init_precond: 4.187 [ms]
[OGL LOG][StoppingCriterion.H:239] Creating stopping criterion with minIter 4 frequency 1
[OGL LOG][Proc: 0]Uz: generate_solver: 0.015 [ms]
[OGL LOG][Proc: 0]Uz: solve: 573.341 [ms]
[OGL LOG][Proc: 0]Uz: copy_x_back: 49.13 [ms]
[OGL LOG][lduLduBase.H:330] 
Statistics:
	Time per iteration: 143335 [mu s]
	Time per residual norm calculation: 407.000000 [mu s]
	Time per iteration and DOF: 2.840731 [ns]
	Retrieve results bandwidth 2.059000 [GByte/s]
[OGL LOG][Proc: 0]Uz: solve_multi_gpu: 668.194 [ms]
BJcudaGKOBiCGStab:  Solving for Uz, Initial residual = 0.02222077614184206, Final residual = 0.0009417409042673236, No Iterations 4
[OGL LOG][Proc: 0]: global_index_init: 0.016 [ms]
[OGL LOG][Proc: 0]p_local_coeffs: call_update: 0 [ms]
[OGL LOG][Proc: 0]p_non_local_coeffs: call_update: 0 [ms]
[OGL LOG][Proc: 0]p: update_local_matrix_data: 462.029 [ms]
[OGL LOG][Proc: 0]p: update_non_local_matrix_data: 1.674 [ms]
[OGL LOG][Proc: 0]p_matrix: call_update: 6.218 [ms]
[OGL LOG][Proc: 0]p_rhs: call_update: 31.49 [ms]
[OGL LOG][Preconditioner.H:121] Generate preconditioner BJ MaxBlockSize 1
[OGL LOG][Proc: 0]p: init_precond: 5.035 [ms]
[OGL LOG][StoppingCriterion.H:239] Creating stopping criterion with minIter 126 frequency 1
[OGL LOG][Proc: 0]p: generate_solver: 0.014 [ms]
[OGL LOG][Proc: 0]p: solve: 2794.878 [ms]
[OGL LOG][Proc: 0]p: copy_x_back: 48.662 [ms]
[OGL LOG][lduLduBase.H:330] 
Statistics:
	Time per iteration: 4581 [mu s]
	Time per residual norm calculation: 199.000000 [mu s]
	Time per iteration and DOF: 0.090790 [ns]
	Retrieve results bandwidth 2.079000 [GByte/s]
[OGL LOG][Proc: 0]p: solve_multi_gpu: 2888.702 [ms]
BJcudaGKOCG:  Solving for p, Initial residual = 0.09964011158501518, Final residual = 0.0009962931764057627, No Iterations 610
time step continuity errors : sum local = 0.0008699832590902929, global = 1.901323377491345e-05, cumulative = -0.005345319831551117
[OGL LOG][Proc: 0]: global_index_init: 0.02 [ms]
[OGL LOG][Proc: 0]nuTilda_local_coeffs: call_update: 0 [ms]
[OGL LOG][Proc: 0]nuTilda_non_local_coeffs: call_update: 0 [ms]
[OGL LOG][Proc: 0]nuTilda: update_local_matrix_data: 602.463 [ms]
[OGL LOG][Proc: 0]nuTilda: update_non_local_matrix_data: 1.661 [ms]
[OGL LOG][Proc: 0]nuTilda_matrix: call_update: 6.322 [ms]
[OGL LOG][Proc: 0]nuTilda_rhs: call_update: 31.042 [ms]
[OGL LOG][Preconditioner.H:121] Generate preconditioner BJ MaxBlockSize 1
[OGL LOG][Proc: 0]nuTilda: init_precond: 3.935 [ms]
[OGL LOG][StoppingCriterion.H:239] Creating stopping criterion with minIter 3 frequency 1
[OGL LOG][Proc: 0]nuTilda: generate_solver: 0.014 [ms]
[OGL LOG][Proc: 0]nuTilda: solve: 562.345 [ms]
[OGL LOG][Proc: 0]nuTilda: copy_x_back: 48.657 [ms]
[OGL LOG][lduLduBase.H:330] 
Statistics:
	Time per iteration: 281172 [mu s]
	Time per residual norm calculation: 212.000000 [mu s]
	Time per iteration and DOF: 5.572498 [ns]
	Retrieve results bandwidth 2.079000 [GByte/s]
[OGL LOG][Proc: 0]nuTilda: solve_multi_gpu: 656.9930000000001 [ms]
BJcudaGKOBiCGStab:  Solving for nuTilda, Initial residual = 0.01079953811592674, Final residual = 0.0009456201284795973, No Iterations 2
bounding nuTilda, min: -2.781854997635748e-05 max: 0.02342110896432885 average: 0.0007347550665423386
ExecutionTime = 7040.95 s  ClockTime = 7061 s

Time = 84

velocityDampingConstraint velocityDamping damped 0 (0%) of cells, with max limit 300
[OGL LOG][Proc: 0]: global_index_init: 0.029 [ms]
[OGL LOG][Proc: 0]Ux_local_coeffs: call_update: 0 [ms]
[OGL LOG][Proc: 0]Ux_non_local_coeffs: call_update: 0 [ms]
[OGL LOG][Proc: 0]Ux: update_local_matrix_data: 601.174 [ms]
[OGL LOG][Proc: 0]Ux: update_non_local_matrix_data: 1.59 [ms]
[OGL LOG][Proc: 0]Ux_matrix: call_update: 8.010999999999999 [ms]
[OGL LOG][Proc: 0]Ux_rhs: call_update: 30.015 [ms]
[OGL LOG][Preconditioner.H:121] Generate preconditioner BJ MaxBlockSize 1
[OGL LOG][Proc: 0]Ux: init_precond: 3.784 [ms]
[OGL LOG][StoppingCriterion.H:239] Creating stopping criterion with minIter 6 frequency 1
[OGL LOG][Proc: 0]Ux: generate_solver: 0.026 [ms]
[OGL LOG][Proc: 0]Ux: solve: 570.832 [ms]
[OGL LOG][Proc: 0]Ux: copy_x_back: 48.367 [ms]
[OGL LOG][lduLduBase.H:330] 
Statistics:
	Time per iteration: 190277 [mu s]
	Time per residual norm calculation: 229.000000 [mu s]
	Time per iteration and DOF: 3.771066 [ns]
	Retrieve results bandwidth 2.092000 [GByte/s]
[OGL LOG][Proc: 0]Ux: solve_multi_gpu: 665.353 [ms]
BJcudaGKOBiCGStab:  Solving for Ux, Initial residual = 0.004348449814881661, Final residual = 0.0004222636508554255, No Iterations 3
[OGL LOG][Proc: 0]: global_index_init: 0.171 [ms]
[OGL LOG][Proc: 0]Uy_local_coeffs: call_update: 0 [ms]
[OGL LOG][Proc: 0]Uy_non_local_coeffs: call_update: 0 [ms]
[OGL LOG][Proc: 0]Uy: update_local_matrix_data: 608.754 [ms]
[OGL LOG][Proc: 0]Uy: update_non_local_matrix_data: 1.652 [ms]
[OGL LOG][Proc: 0]Uy_matrix: call_update: 7.594 [ms]
[OGL LOG][Proc: 0]Uy_rhs: call_update: 33.515 [ms]
[OGL LOG][Preconditioner.H:121] Generate preconditioner BJ MaxBlockSize 1
[OGL LOG][Proc: 0]Uy: init_precond: 6.976 [ms]
[OGL LOG][StoppingCriterion.H:239] Creating stopping criterion with minIter 4 frequency 1
[OGL LOG][Proc: 0]Uy: generate_solver: 0.016 [ms]
[OGL LOG][Proc: 0]Uy: solve: 621.981 [ms]
[OGL LOG][Proc: 0]Uy: copy_x_back: 48.944 [ms]
[OGL LOG][lduLduBase.H:330] 
Statistics:
	Time per iteration: 207327 [mu s]
	Time per residual norm calculation: 206.000000 [mu s]
	Time per iteration and DOF: 4.108977 [ns]
	Retrieve results bandwidth 2.067000 [GByte/s]
[OGL LOG][Proc: 0]Uy: solve_multi_gpu: 723.443 [ms]
BJcudaGKOBiCGStab:  Solving for Uy, Initial residual = 0.01969962147150471, Final residual = 0.001911442368895117, No Iterations 3
[OGL LOG][Proc: 0]: global_index_init: 0.042 [ms]
[OGL LOG][Proc: 0]Uz_local_coeffs: call_update: 0 [ms]
[OGL LOG][Proc: 0]Uz_non_local_coeffs: call_update: 0 [ms]
[OGL LOG][Proc: 0]Uz: update_local_matrix_data: 600.836 [ms]
[OGL LOG][Proc: 0]Uz: update_non_local_matrix_data: 1.608 [ms]
[OGL LOG][Proc: 0]Uz_matrix: call_update: 6.218 [ms]
[OGL LOG][Proc: 0]Uz_rhs: call_update: 30.923 [ms]
[OGL LOG][Preconditioner.H:121] Generate preconditioner BJ MaxBlockSize 1
[OGL LOG][Proc: 0]Uz: init_precond: 3.974 [ms]
[OGL LOG][StoppingCriterion.H:239] Creating stopping criterion with minIter 4 frequency 1
[OGL LOG][Proc: 0]Uz: generate_solver: 0.014 [ms]
[OGL LOG][Proc: 0]Uz: solve: 570.984 [ms]
[OGL LOG][Proc: 0]Uz: copy_x_back: 48.02 [ms]
[OGL LOG][lduLduBase.H:330] 
Statistics:
	Time per iteration: 142746 [mu s]
	Time per residual norm calculation: 403.000000 [mu s]
	Time per iteration and DOF: 2.829057 [ns]
	Retrieve results bandwidth 2.107000 [GByte/s]
[OGL LOG][Proc: 0]Uz: solve_multi_gpu: 664.877 [ms]
BJcudaGKOBiCGStab:  Solving for Uz, Initial residual = 0.02239525400882889, Final residual = 0.001004093031308869, No Iterations 4
[OGL LOG][Proc: 0]: global_index_init: 0.016 [ms]
[OGL LOG][Proc: 0]p_local_coeffs: call_update: 0 [ms]
[OGL LOG][Proc: 0]p_non_local_coeffs: call_update: 0 [ms]
[OGL LOG][Proc: 0]p: update_local_matrix_data: 461.167 [ms]
[OGL LOG][Proc: 0]p: update_non_local_matrix_data: 1.702 [ms]
[OGL LOG][Proc: 0]p_matrix: call_update: 7.903 [ms]
[OGL LOG][Proc: 0]p_rhs: call_update: 29.802 [ms]
[OGL LOG][Preconditioner.H:121] Generate preconditioner BJ MaxBlockSize 1
[OGL LOG][Proc: 0]p: init_precond: 3.484 [ms]
[OGL LOG][StoppingCriterion.H:239] Creating stopping criterion with minIter 366 frequency 3
[OGL LOG][Proc: 0]p: generate_solver: 0.017 [ms]
[OGL LOG][Proc: 0]p: solve: 2013.212 [ms]
[OGL LOG][Proc: 0]p: copy_x_back: 50.465 [ms]
[OGL LOG][lduLduBase.H:330] 
Statistics:
	Time per iteration: 4816 [mu s]
	Time per residual norm calculation: 201.000000 [mu s]
	Time per iteration and DOF: 0.095447 [ns]
	Retrieve results bandwidth 2.005000 [GByte/s]
[OGL LOG][Proc: 0]p: solve_multi_gpu: 2108.036 [ms]
BJcudaGKOCG:  Solving for p, Initial residual = 0.09244886105488359, Final residual = 0.0009154475912368122, No Iterations 418
time step continuity errors : sum local = 0.0008333750250508787, global = 4.505128336288157e-05, cumulative = -0.005300268548188236
[OGL LOG][Proc: 0]: global_index_init: 0.04 [ms]
[OGL LOG][Proc: 0]nuTilda_local_coeffs: call_update: 0 [ms]
[OGL LOG][Proc: 0]nuTilda_non_local_coeffs: call_update: 0 [ms]
[OGL LOG][Proc: 0]nuTilda: update_local_matrix_data: 601.5940000000001 [ms]
[OGL LOG][Proc: 0]nuTilda: update_non_local_matrix_data: 1.712 [ms]
[OGL LOG][Proc: 0]nuTilda_matrix: call_update: 11.344 [ms]
[OGL LOG][Proc: 0]nuTilda_rhs: call_update: 30.045 [ms]
[OGL LOG][Preconditioner.H:121] Generate preconditioner BJ MaxBlockSize 1
[OGL LOG][Proc: 0]nuTilda: init_precond: 7.956 [ms]
[OGL LOG][StoppingCriterion.H:239] Creating stopping criterion with minIter 3 frequency 1
[OGL LOG][Proc: 0]nuTilda: generate_solver: 0.026 [ms]
[OGL LOG][Proc: 0]nuTilda: solve: 574.376 [ms]
[OGL LOG][Proc: 0]nuTilda: copy_x_back: 46.799 [ms]
[OGL LOG][lduLduBase.H:330] 
Statistics:
	Time per iteration: 287188 [mu s]
	Time per residual norm calculation: 213.000000 [mu s]
	Time per iteration and DOF: 5.691728 [ns]
	Retrieve results bandwidth 2.162000 [GByte/s]
[OGL LOG][Proc: 0]nuTilda: solve_multi_gpu: 673.475 [ms]
BJcudaGKOBiCGStab:  Solving for nuTilda, Initial residual = 0.009181138298738796, Final residual = 0.0008399544478267994, No Iterations 2
bounding nuTilda, min: -1.190427973155001e-05 max: 0.02380126480667586 average: 0.000754496519506091
ExecutionTime = 7094.04 s  ClockTime = 7114 s

Time = 85

velocityDampingConstraint velocityDamping damped 0 (0%) of cells, with max limit 300
[OGL LOG][Proc: 0]: global_index_init: 0.097 [ms]
[OGL LOG][Proc: 0]Ux_local_coeffs: call_update: 0 [ms]
[OGL LOG][Proc: 0]Ux_non_local_coeffs: call_update: 0 [ms]
[OGL LOG][Proc: 0]Ux: update_local_matrix_data: 602.799 [ms]
[OGL LOG][Proc: 0]Ux: update_non_local_matrix_data: 1.632 [ms]
[OGL LOG][Proc: 0]Ux_matrix: call_update: 7.227 [ms]
[OGL LOG][Proc: 0]Ux_rhs: call_update: 29.555 [ms]
[OGL LOG][Preconditioner.H:121] Generate preconditioner BJ MaxBlockSize 1
[OGL LOG][Proc: 0]Ux: init_precond: 3.577 [ms]
[OGL LOG][StoppingCriterion.H:239] Creating stopping criterion with minIter 4 frequency 1
[OGL LOG][Proc: 0]Ux: generate_solver: 0.014 [ms]
[OGL LOG][Proc: 0]Ux: solve: 570.244 [ms]
[OGL LOG][Proc: 0]Ux: copy_x_back: 48.253 [ms]
[OGL LOG][lduLduBase.H:330] 
Statistics:
	Time per iteration: 190081 [mu s]
	Time per residual norm calculation: 218.000000 [mu s]
	Time per iteration and DOF: 3.767181 [ns]
	Retrieve results bandwidth 2.097000 [GByte/s]
[OGL LOG][Proc: 0]Ux: solve_multi_gpu: 663.655 [ms]
BJcudaGKOBiCGStab:  Solving for Ux, Initial residual = 0.00415524972107255, Final residual = 0.0003750187068192199, No Iterations 3
[OGL LOG][Proc: 0]: global_index_init: 0.03 [ms]
[OGL LOG][Proc: 0]Uy_local_coeffs: call_update: 0 [ms]
[OGL LOG][Proc: 0]Uy_non_local_coeffs: call_update: 0 [ms]
[OGL LOG][Proc: 0]Uy: update_local_matrix_data: 598.413 [ms]
[OGL LOG][Proc: 0]Uy: update_non_local_matrix_data: 1.636 [ms]
[OGL LOG][Proc: 0]Uy_matrix: call_update: 8.16 [ms]
[OGL LOG][Proc: 0]Uy_rhs: call_update: 29.945 [ms]
[OGL LOG][Preconditioner.H:121] Generate preconditioner BJ MaxBlockSize 1
[OGL LOG][Proc: 0]Uy: init_precond: 3.694 [ms]
[OGL LOG][StoppingCriterion.H:239] Creating stopping criterion with minIter 4 frequency 1
[OGL LOG][Proc: 0]Uy: generate_solver: 0.015 [ms]
[OGL LOG][Proc: 0]Uy: solve: 569.754 [ms]
[OGL LOG][Proc: 0]Uy: copy_x_back: 48.142 [ms]
[OGL LOG][lduLduBase.H:330] 
Statistics:
	Time per iteration: 189918 [mu s]
	Time per residual norm calculation: 212.000000 [mu s]
	Time per iteration and DOF: 3.763951 [ns]
	Retrieve results bandwidth 2.101000 [GByte/s]
[OGL LOG][Proc: 0]Uy: solve_multi_gpu: 664.345 [ms]
BJcudaGKOBiCGStab:  Solving for Uy, Initial residual = 0.01948152999409548, Final residual = 0.001694007554901308, No Iterations 3
[OGL LOG][Proc: 0]: global_index_init: 0.041 [ms]
[OGL LOG][Proc: 0]Uz_local_coeffs: call_update: 0 [ms]
[OGL LOG][Proc: 0]Uz_non_local_coeffs: call_update: 0 [ms]
[OGL LOG][Proc: 0]Uz: update_local_matrix_data: 605.204 [ms]
[OGL LOG][Proc: 0]Uz: update_non_local_matrix_data: 1.585 [ms]
[OGL LOG][Proc: 0]Uz_matrix: call_update: 6.856 [ms]
[OGL LOG][Proc: 0]Uz_rhs: call_update: 29.802 [ms]
[OGL LOG][Preconditioner.H:121] Generate preconditioner BJ MaxBlockSize 1
[OGL LOG][Proc: 0]Uz: init_precond: 4.001 [ms]
[OGL LOG][StoppingCriterion.H:239] Creating stopping criterion with minIter 4 frequency 1
[OGL LOG][Proc: 0]Uz: generate_solver: 0.016 [ms]
[OGL LOG][Proc: 0]Uz: solve: 570.6609999999999 [ms]
[OGL LOG][Proc: 0]Uz: copy_x_back: 48.236 [ms]
[OGL LOG][lduLduBase.H:330] 
Statistics:
	Time per iteration: 142665 [mu s]
	Time per residual norm calculation: 403.000000 [mu s]
	Time per iteration and DOF: 2.827452 [ns]
	Retrieve results bandwidth 2.097000 [GByte/s]
[OGL LOG][Proc: 0]Uz: solve_multi_gpu: 664.134 [ms]
BJcudaGKOBiCGStab:  Solving for Uz, Initial residual = 0.02227059867780554, Final residual = 0.0009652584839584519, No Iterations 4
[OGL LOG][Proc: 0]: global_index_init: 0.021 [ms]
[OGL LOG][Proc: 0]p_local_coeffs: call_update: 0 [ms]
[OGL LOG][Proc: 0]p_non_local_coeffs: call_update: 0 [ms]
[OGL LOG][Proc: 0]p: update_local_matrix_data: 464.555 [ms]
[OGL LOG][Proc: 0]p: update_non_local_matrix_data: 1.701 [ms]
[OGL LOG][Proc: 0]p_matrix: call_update: 6.715 [ms]
[OGL LOG][Proc: 0]p_rhs: call_update: 30.135 [ms]
[OGL LOG][Preconditioner.H:121] Generate preconditioner BJ MaxBlockSize 1
[OGL LOG][Proc: 0]p: init_precond: 3.95 [ms]
[OGL LOG][StoppingCriterion.H:239] Creating stopping criterion with minIter 250 frequency 2
[OGL LOG][Proc: 0]p: generate_solver: 0.017 [ms]
[OGL LOG][Proc: 0]p: solve: 1782.153 [ms]
[OGL LOG][Proc: 0]p: copy_x_back: 48.376 [ms]
[OGL LOG][lduLduBase.H:330] 
Statistics:
	Time per iteration: 7100 [mu s]
	Time per residual norm calculation: 230.000000 [mu s]
	Time per iteration and DOF: 0.140714 [ns]
	Retrieve results bandwidth 2.091000 [GByte/s]
[OGL LOG][Proc: 0]p: solve_multi_gpu: 1873.941 [ms]
BJcudaGKOCG:  Solving for p, Initial residual = 0.09001670365942165, Final residual = 0.0006440553384775053, No Iterations 251
time step continuity errors : sum local = 0.000597906615472533, global = 3.834041558479034e-05, cumulative = -0.005261928132603446
[OGL LOG][Proc: 0]: global_index_init: 0.023 [ms]
[OGL LOG][Proc: 0]nuTilda_local_coeffs: call_update: 0 [ms]
[OGL LOG][Proc: 0]nuTilda_non_local_coeffs: call_update: 0 [ms]
[OGL LOG][Proc: 0]nuTilda: update_local_matrix_data: 599.375 [ms]
[OGL LOG][Proc: 0]nuTilda: update_non_local_matrix_data: 1.629 [ms]
[OGL LOG][Proc: 0]nuTilda_matrix: call_update: 6.028 [ms]
[OGL LOG][Proc: 0]nuTilda_rhs: call_update: 30.556 [ms]
[OGL LOG][Preconditioner.H:121] Generate preconditioner BJ MaxBlockSize 1
[OGL LOG][Proc: 0]nuTilda: init_precond: 3.228 [ms]
[OGL LOG][StoppingCriterion.H:239] Creating stopping criterion with minIter 3 frequency 1
[OGL LOG][Proc: 0]nuTilda: generate_solver: 0.021 [ms]
[OGL LOG][Proc: 0]nuTilda: solve: 562.123 [ms]
[OGL LOG][Proc: 0]nuTilda: copy_x_back: 49.385 [ms]
[OGL LOG][lduLduBase.H:330] 
Statistics:
	Time per iteration: 281061 [mu s]
	Time per residual norm calculation: 218.000000 [mu s]
	Time per iteration and DOF: 5.570298 [ns]
	Retrieve results bandwidth 2.048000 [GByte/s]
[OGL LOG][Proc: 0]nuTilda: solve_multi_gpu: 656.135 [ms]
BJcudaGKOBiCGStab:  Solving for nuTilda, Initial residual = 0.01071646476035507, Final residual = 0.0009391475353285022, No Iterations 2
bounding nuTilda, min: -3.669386830919613e-05 max: 0.02408269710533389 average: 0.0007740323573001101
ExecutionTime = 7146.38 s  ClockTime = 7167 s

