/*---------------------------------------------------------------------------*\
| =========                 |                                                 |
| \\      /  F ield         | OpenFOAM: The Open Source CFD Toolbox           |
|  \\    /   O peration     | Version:  2306                                  |
|   \\  /    A nd           | Website:  www.openfoam.com                      |
|    \\/     M anipulation  |                                                 |
\*---------------------------------------------------------------------------*/
Build  : a6e826bd55-20230630 OPENFOAM=2306 version=v2306
Arch   : "LSB;label=32;scalar=64"
Exec   : icoFoam -parallel -case /tmp/lidDrivenCavity/workspace/7d4b93a41c504b2fb5693ef15c0b275a/case
Date   : Dec 16 2023
Time   : 12:40:13
Host   : nla-gpu2.ianm.kit.edu
PID    : 175356
I/O    : uncollated
Case   : /tmp/lidDrivenCavity/workspace/7d4b93a41c504b2fb5693ef15c0b275a/case
nProcs : 32
Hosts  :
(
    (nla-gpu2.ianm.kit.edu 32)
)
Pstream initialized with:
    floatTransfer      : false
    nProcsSimpleSum    : 0
    nonBlockingExchange: 0 (tuning: 0)
    exchange algorithm : -1
    commsType          : nonBlocking
    polling iterations : 0
trapFpe: Floating point exception trapping enabled (FOAM_SIGFPE).
fileModificationChecking : Monitoring run-time modified files using timeStampMaster (fileModificationSkew 5, maxFileModificationPolls 20)
allowSystemOperations : Allowing user-supplied system call operations

// * * * * * * * * * * * * * * * * * * * * * * * * * * * * * * * * * * * * * //
Create time

--> FOAM Warning : 
    From void* Foam::dlLibraryTable::openLibrary(const Foam::fileName&, bool)
    in file db/dynamicLibrary/dlLibraryTable/dlLibraryTable.C at line 188
    Could not load "libpetscFoam.so"
libpetscFoam.so: cannot open shared object file: No such file or directory
Create mesh for time = 0


PISO: Operating solver in PISO mode

Reading transportProperties

Reading field p

Reading field U

Reading/calculating face flux field phi


Starting time loop

Time = 0.00025

Courant Number mean: 8.24341e-18 max: 2.08167e-14
[INFO] MatrixAssemblyU: 69.925 [ms]
DILUPBiCGStab:  Solving for Ux, Initial residual = 1, Final residual = 0.00994539, No Iterations 5
DILUPBiCGStab:  Solving for Uy:  solution singularity
DILUPBiCGStab:  Solving for Uz:  solution singularity
[INFO] MomentumPredictor: 246.625 [ms]
[INFO] MatrixAssemblyPI: 67.562 [ms]
[INFO] AdjustPhi: 5.645 [ms]
[INFO] ConstrainPressure: 0.007 [ms]
[INFO] MatrixAssemblyPII: 19.607 [ms]
[OGL LOG][lduLduBase.H:119] Initialising OGL
	OGL commit:  1421b02+
	Branch: feat/on_device_permute 
	Build type: Release
	Ginkgo version: 1.7.0 ( develop)
	Ginkgo commit: sparse-communicator
	MPI is GPU aware: 1
	Forces host buffer based communication: 0
	CPU ranks per GPU: 1
	Matrix format: Coo
	End OGL_INFO
[OGL LOG][Proc: 0]: global_index_init: 4.725 [ms]
[OGL LOG][Proc: 0]p_local_cols: call_init: 0.02 [ms]
[OGL LOG][Proc: 0]p_local_rows: call_init: 0.01 [ms]
[OGL LOG][Proc: 0]p_local_ldu_map: call_init: 0.008 [ms]
[OGL LOG][Proc: 0]p_local_coeffs: call_init: 0.121 [ms]
[OGL LOG][Proc: 0]p_non_local_cols: call_init: 0.006 [ms]
[OGL LOG][Proc: 0]p_non_local_rows: call_init: 0.003 [ms]
[OGL LOG][Proc: 0]p_non_local_ldu_map: call_init: 0.003 [ms]
[OGL LOG][Proc: 0]p_non_local_coeffs: call_init: 0.003 [ms]
[OGL LOG][Proc: 0]p: init_local_sparsity_pattern: 92.199 [ms]
[OGL LOG][Proc: 0]p: init_non_local_sparsity_pattern: 1.525 [ms]
[OGL LOG][Proc: 0]p: update_local_matrix_data: 75.403 [ms]
[OGL LOG][Proc: 0]p: update_non_local_matrix_data: 0.06 [ms]
[OGL LOG][Proc: 0]device_partition: call_init: 0.06 [ms]
[OGL LOG][Proc: 0]p_matrix: call_init: 43.385 [ms]
[OGL LOG][Proc: 0]p_rhs: call_init: 3.137 [ms]
[OGL LOG][Proc: 0]p_solution: call_init: 1.344 [ms]
[OGL LOG][Preconditioner.H:121] Generate preconditioner BJ MaxBlockSize 1
[OGL LOG][Proc: 0]p: init_precond: 5.131 [ms]
[OGL LOG][StoppingCriterion.H:237] Creating stopping criterion with minIter 0 frequency 1
[OGL LOG][Proc: 0]p: generate_solver: 0.019 [ms]
[OGL LOG][Proc: 0]p: solve: 5303.33 [ms]
[OGL LOG][Proc: 0]p: copy_x_back: 1.239 [ms]
[OGL LOG][lduLduBase.H:330] 
Statistics:
	Time per iteration: 3320 [mu s]
	Time per residual norm calculation: 1379.000000 [mu s]
	Time per iteration and DOF: 0.415000 [ns]
	Retrieve results bandwidth 1.614000 [GByte/s]
[OGL LOG][Proc: 0]p: solve_multi_gpu: 5358.91 [ms]
BJhipGKOCG:  Solving for p, Initial residual = 1, Final residual = 9.81733e-05, No Iterations 1597
[INFO] SolveP: 5893.28 [ms]
time step continuity errors : sum local = 7.53636e-09, global = -2.91616e-21, cumulative = -2.91616e-21
[INFO] ContinuityError: 12.269 [ms]
[INFO] CorrectBoundary: 0.229 [ms]
[INFO] PISOStep: 6023.23 [ms]
[INFO] MatrixAssemblyPI: 68.053 [ms]
[INFO] AdjustPhi: 4.337 [ms]
[INFO] ConstrainPressure: 0.003 [ms]
[INFO] MatrixAssemblyPII: 16.747 [ms]
[OGL LOG][Proc: 0]: global_index_init: 0.197 [ms]
[OGL LOG][Proc: 0]p_local_coeffs: call_update: 0 [ms]
[OGL LOG][Proc: 0]p_non_local_coeffs: call_update: 0 [ms]
[OGL LOG][Proc: 0]p: update_local_matrix_data: 15.542 [ms]
[OGL LOG][Proc: 0]p: update_non_local_matrix_data: 0.086 [ms]
[OGL LOG][Proc: 0]p_matrix: call_update: 0.556 [ms]
[OGL LOG][Proc: 0]p_rhs: call_update: 0.903 [ms]
[OGL LOG][Preconditioner.H:121] Generate preconditioner BJ MaxBlockSize 1
[OGL LOG][Proc: 0]p: init_precond: 0.299 [ms]
[OGL LOG][StoppingCriterion.H:237] Creating stopping criterion with minIter 958 frequency 17
[OGL LOG][Proc: 0]p: generate_solver: 0.001 [ms]
[OGL LOG][Proc: 0]p: solve: 2993.51 [ms]
[OGL LOG][Proc: 0]p: copy_x_back: 1.248 [ms]
[OGL LOG][lduLduBase.H:330] 
Statistics:
	Time per iteration: 1892 [mu s]
	Time per residual norm calculation: 230.000000 [mu s]
	Time per iteration and DOF: 0.236500 [ns]
	Retrieve results bandwidth 1.602000 [GByte/s]
[OGL LOG][Proc: 0]p: solve_multi_gpu: 2999.99 [ms]
BJhipGKOCG:  Solving for p, Initial residual = 0.786384, Final residual = 9.25612e-05, No Iterations 1582
[INFO] SolveP: 3018.13 [ms]
time step continuity errors : sum local = 8.88187e-09, global = 2.93184e-22, cumulative = -2.62298e-21
[INFO] ContinuityError: 9.248 [ms]
[INFO] CorrectBoundary: 0.862 [ms]
[INFO] PISOStep: 3147.25 [ms]
[INFO] TimeStep: 9495.01 [ms]
ExecutionTime = 10.01 s  ClockTime = 11 s

Time = 0.0005

Courant Number mean: 0.0159459 max: 0.412549
[INFO] MatrixAssemblyU: 60.223 [ms]
DILUPBiCGStab:  Solving for Ux, Initial residual = 0.129572, Final residual = 0.00567035, No Iterations 5
DILUPBiCGStab:  Solving for Uy, Initial residual = 0.426965, Final residual = 0.015007, No Iterations 5
DILUPBiCGStab:  Solving for Uz, Initial residual = 0.987073, Final residual = 0.0372872, No Iterations 5
[INFO] MomentumPredictor: 484.42 [ms]
[INFO] MatrixAssemblyPI: 63.273 [ms]
[INFO] AdjustPhi: 9.361 [ms]
[INFO] ConstrainPressure: 0.003 [ms]
[INFO] MatrixAssemblyPII: 19.475 [ms]
[OGL LOG][Proc: 0]: global_index_init: 0.055 [ms]
[OGL LOG][Proc: 0]p_local_coeffs: call_update: 0 [ms]
[OGL LOG][Proc: 0]p_non_local_coeffs: call_update: 0 [ms]
[OGL LOG][Proc: 0]p: update_local_matrix_data: 17.005 [ms]
[OGL LOG][Proc: 0]p: update_non_local_matrix_data: 0.089 [ms]
[OGL LOG][Proc: 0]p_matrix: call_update: 0.642 [ms]
[OGL LOG][Proc: 0]p_rhs: call_update: 2.957 [ms]
[OGL LOG][Preconditioner.H:121] Generate preconditioner BJ MaxBlockSize 1
[OGL LOG][Proc: 0]p: init_precond: 0.384 [ms]
[OGL LOG][StoppingCriterion.H:237] Creating stopping criterion with minIter 949 frequency 8
[OGL LOG][Proc: 0]p: generate_solver: 0.001 [ms]
[OGL LOG][Proc: 0]p: solve: 2881.32 [ms]
[OGL LOG][Proc: 0]p: copy_x_back: 1.109 [ms]
[OGL LOG][lduLduBase.H:330] 
Statistics:
	Time per iteration: 1836 [mu s]
	Time per residual norm calculation: 228.000000 [mu s]
	Time per iteration and DOF: 0.229500 [ns]
	Retrieve results bandwidth 1.803000 [GByte/s]
[OGL LOG][Proc: 0]p: solve_multi_gpu: 2889.99 [ms]
BJhipGKOCG:  Solving for p, Initial residual = 0.827603, Final residual = 9.64162e-05, No Iterations 1569
[INFO] SolveP: 2909.3 [ms]
time step continuity errors : sum local = 1.44052e-08, global = -1.64932e-21, cumulative = -4.2723e-21
[INFO] ContinuityError: 6.751 [ms]
[INFO] CorrectBoundary: 0.322 [ms]
[INFO] PISOStep: 3033.94 [ms]
[INFO] MatrixAssemblyPI: 63.681 [ms]
[INFO] AdjustPhi: 3.974 [ms]
[INFO] ConstrainPressure: 0.006 [ms]
[INFO] MatrixAssemblyPII: 18.903 [ms]
[OGL LOG][Proc: 0]: global_index_init: 0.147 [ms]
[OGL LOG][Proc: 0]p_local_coeffs: call_update: 0 [ms]
[OGL LOG][Proc: 0]p_non_local_coeffs: call_update: 0 [ms]
[OGL LOG][Proc: 0]p: update_local_matrix_data: 14.504 [ms]
[OGL LOG][Proc: 0]p: update_non_local_matrix_data: 0.09 [ms]
[OGL LOG][Proc: 0]p_matrix: call_update: 0.589 [ms]
[OGL LOG][Proc: 0]p_rhs: call_update: 0.733 [ms]
[OGL LOG][Preconditioner.H:121] Generate preconditioner BJ MaxBlockSize 1
[OGL LOG][Proc: 0]p: init_precond: 0.29 [ms]
[OGL LOG][StoppingCriterion.H:237] Creating stopping criterion with minIter 941 frequency 8
[OGL LOG][Proc: 0]p: generate_solver: 0.002 [ms]
[OGL LOG][Proc: 0]p: solve: 2740.81 [ms]
[OGL LOG][Proc: 0]p: copy_x_back: 1.384 [ms]
[OGL LOG][lduLduBase.H:330] 
Statistics:
	Time per iteration: 1755 [mu s]
	Time per residual norm calculation: 228.000000 [mu s]
	Time per iteration and DOF: 0.219375 [ns]
	Retrieve results bandwidth 1.445000 [GByte/s]
[OGL LOG][Proc: 0]p: solve_multi_gpu: 2745.28 [ms]
BJhipGKOCG:  Solving for p, Initial residual = 0.77057, Final residual = 9.68583e-05, No Iterations 1561
[INFO] SolveP: 2762.41 [ms]
time step continuity errors : sum local = 1.47372e-08, global = -2.43338e-21, cumulative = -6.70569e-21
[INFO] ContinuityError: 7.026 [ms]
[INFO] CorrectBoundary: 0.619 [ms]
[INFO] PISOStep: 2881.24 [ms]
[INFO] TimeStep: 6470.57 [ms]
ExecutionTime = 16.43 s  ClockTime = 17 s

Time = 0.00075

Courant Number mean: 0.0243223 max: 0.472078
[INFO] MatrixAssemblyU: 58.25 [ms]
DILUPBiCGStab:  Solving for Ux, Initial residual = 0.0547802, Final residual = 0.0019422, No Iterations 5
DILUPBiCGStab:  Solving for Uy, Initial residual = 0.182463, Final residual = 0.00797721, No Iterations 5
DILUPBiCGStab:  Solving for Uz, Initial residual = 0.809494, Final residual = 0.0257568, No Iterations 5
[INFO] MomentumPredictor: 488.209 [ms]
[INFO] MatrixAssemblyPI: 66.887 [ms]
[INFO] AdjustPhi: 4.876 [ms]
[INFO] ConstrainPressure: 0.003 [ms]
[INFO] MatrixAssemblyPII: 19.422 [ms]
[OGL LOG][Proc: 0]: global_index_init: 0.133 [ms]
[OGL LOG][Proc: 0]p_local_coeffs: call_update: 0 [ms]
[OGL LOG][Proc: 0]p_non_local_coeffs: call_update: 0 [ms]
[OGL LOG][Proc: 0]p: update_local_matrix_data: 14.761 [ms]
[OGL LOG][Proc: 0]p: update_non_local_matrix_data: 0.091 [ms]
[OGL LOG][Proc: 0]p_matrix: call_update: 0.595 [ms]
[OGL LOG][Proc: 0]p_rhs: call_update: 0.743 [ms]
[OGL LOG][Preconditioner.H:121] Generate preconditioner BJ MaxBlockSize 1
[OGL LOG][Proc: 0]p: init_precond: 0.289 [ms]
[OGL LOG][StoppingCriterion.H:237] Creating stopping criterion with minIter 936 frequency 9
[OGL LOG][Proc: 0]p: generate_solver: 0.001 [ms]
[OGL LOG][Proc: 0]p: solve: 2758.54 [ms]
[OGL LOG][Proc: 0]p: copy_x_back: 1.157 [ms]
[OGL LOG][lduLduBase.H:330] 
Statistics:
	Time per iteration: 1760 [mu s]
	Time per residual norm calculation: 225.000000 [mu s]
	Time per iteration and DOF: 0.220000 [ns]
	Retrieve results bandwidth 1.728000 [GByte/s]
[OGL LOG][Proc: 0]p: solve_multi_gpu: 2762.54 [ms]
BJhipGKOCG:  Solving for p, Initial residual = 0.849879, Final residual = 9.02162e-05, No Iterations 1567
[INFO] SolveP: 2780.16 [ms]
time step continuity errors : sum local = 1.21903e-08, global = -1.75803e-21, cumulative = -8.46372e-21
[INFO] ContinuityError: 6.259 [ms]
[INFO] CorrectBoundary: 0.958 [ms]
[INFO] PISOStep: 2902.69 [ms]
[INFO] MatrixAssemblyPI: 64.403 [ms]
[INFO] AdjustPhi: 7.511 [ms]
[INFO] ConstrainPressure: 0.004 [ms]
[INFO] MatrixAssemblyPII: 18.632 [ms]
[OGL LOG][Proc: 0]: global_index_init: 0.175 [ms]
[OGL LOG][Proc: 0]p_local_coeffs: call_update: 0 [ms]
[OGL LOG][Proc: 0]p_non_local_coeffs: call_update: 0 [ms]
[OGL LOG][Proc: 0]p: update_local_matrix_data: 14.889 [ms]
[OGL LOG][Proc: 0]p: update_non_local_matrix_data: 0.1 [ms]
[OGL LOG][Proc: 0]p_matrix: call_update: 0.599 [ms]
[OGL LOG][Proc: 0]p_rhs: call_update: 0.821 [ms]
[OGL LOG][Preconditioner.H:121] Generate preconditioner BJ MaxBlockSize 1
[OGL LOG][Proc: 0]p: init_precond: 0.283 [ms]
[OGL LOG][StoppingCriterion.H:237] Creating stopping criterion with minIter 940 frequency 9
[OGL LOG][Proc: 0]p: generate_solver: 0.001 [ms]
[OGL LOG][Proc: 0]p: solve: 2709.3 [ms]
[OGL LOG][Proc: 0]p: copy_x_back: 1.23 [ms]
[OGL LOG][lduLduBase.H:330] 
Statistics:
	Time per iteration: 1728 [mu s]
	Time per residual norm calculation: 226.000000 [mu s]
	Time per iteration and DOF: 0.216000 [ns]
	Retrieve results bandwidth 1.626000 [GByte/s]
[OGL LOG][Proc: 0]p: solve_multi_gpu: 2713.38 [ms]
BJhipGKOCG:  Solving for p, Initial residual = 0.816072, Final residual = 8.32012e-05, No Iterations 1567
[INFO] SolveP: 2731.17 [ms]
time step continuity errors : sum local = 1.09965e-08, global = -1.97133e-21, cumulative = -1.04351e-20
[INFO] ContinuityError: 7.174 [ms]
[INFO] CorrectBoundary: 0.235 [ms]
[INFO] PISOStep: 2854.17 [ms]
[INFO] TimeStep: 6311.01 [ms]
ExecutionTime = 22.7 s  ClockTime = 23 s

Time = 0.001

Courant Number mean: 0.0291859 max: 0.467741
[INFO] MatrixAssemblyU: 62.77 [ms]
DILUPBiCGStab:  Solving for Ux, Initial residual = 0.0347117, Final residual = 0.00129447, No Iterations 5
DILUPBiCGStab:  Solving for Uy, Initial residual = 0.129212, Final residual = 0.00499183, No Iterations 5
DILUPBiCGStab:  Solving for Uz, Initial residual = 0.612029, Final residual = 0.015887, No Iterations 5
[INFO] MomentumPredictor: 481.308 [ms]
[INFO] MatrixAssemblyPI: 66.411 [ms]
[INFO] AdjustPhi: 6.89 [ms]
[INFO] ConstrainPressure: 0.003 [ms]
[INFO] MatrixAssemblyPII: 19.387 [ms]
[OGL LOG][Proc: 0]: global_index_init: 0.121 [ms]
[OGL LOG][Proc: 0]p_local_coeffs: call_update: 0 [ms]
[OGL LOG][Proc: 0]p_non_local_coeffs: call_update: 0 [ms]
[OGL LOG][Proc: 0]p: update_local_matrix_data: 14.577 [ms]
[OGL LOG][Proc: 0]p: update_non_local_matrix_data: 0.081 [ms]
[OGL LOG][Proc: 0]p_matrix: call_update: 0.548 [ms]
[OGL LOG][Proc: 0]p_rhs: call_update: 0.79 [ms]
[OGL LOG][Preconditioner.H:121] Generate preconditioner BJ MaxBlockSize 1
[OGL LOG][Proc: 0]p: init_precond: 0.261 [ms]
[OGL LOG][StoppingCriterion.H:237] Creating stopping criterion with minIter 940 frequency 9
[OGL LOG][Proc: 0]p: generate_solver: 0.004 [ms]
[OGL LOG][Proc: 0]p: solve: 1639.14 [ms]
[OGL LOG][Proc: 0]p: copy_x_back: 1.24 [ms]
[OGL LOG][lduLduBase.H:330] 
Statistics:
	Time per iteration: 1732 [mu s]
	Time per residual norm calculation: 238.000000 [mu s]
	Time per iteration and DOF: 0.216500 [ns]
	Retrieve results bandwidth 1.612000 [GByte/s]
[OGL LOG][Proc: 0]p: solve_multi_gpu: 1643.68 [ms]
BJhipGKOCG:  Solving for p, Initial residual = 0.772776, Final residual = 4.5514e-05, No Iterations 946
[INFO] SolveP: 1660.82 [ms]
time step continuity errors : sum local = 6.06524e-09, global = -4.30175e-21, cumulative = -1.47368e-20
[INFO] ContinuityError: 6.31 [ms]
[INFO] CorrectBoundary: 0.294 [ms]
[INFO] PISOStep: 1785.33 [ms]
[INFO] MatrixAssemblyPI: 63.133 [ms]
[INFO] AdjustPhi: 4.185 [ms]
[INFO] ConstrainPressure: 0.003 [ms]
[INFO] MatrixAssemblyPII: 18.729 [ms]
[OGL LOG][Proc: 0]: global_index_init: 0.038 [ms]
[OGL LOG][Proc: 0]p_local_coeffs: call_update: 0 [ms]
[OGL LOG][Proc: 0]p_non_local_coeffs: call_update: 0 [ms]
[OGL LOG][Proc: 0]p: update_local_matrix_data: 14.245 [ms]
[OGL LOG][Proc: 0]p: update_non_local_matrix_data: 0.085 [ms]
[OGL LOG][Proc: 0]p_matrix: call_update: 0.574 [ms]
[OGL LOG][Proc: 0]p_rhs: call_update: 0.759 [ms]
[OGL LOG][Preconditioner.H:121] Generate preconditioner BJ MaxBlockSize 1
[OGL LOG][Proc: 0]p: init_precond: 0.286 [ms]
[OGL LOG][StoppingCriterion.H:237] Creating stopping criterion with minIter 567 frequency 7
[OGL LOG][Proc: 0]p: generate_solver: 0.011 [ms]
[OGL LOG][Proc: 0]p: solve: 1301.7 [ms]
[OGL LOG][Proc: 0]p: copy_x_back: 1.224 [ms]
[OGL LOG][lduLduBase.H:330] 
Statistics:
	Time per iteration: 1719 [mu s]
	Time per residual norm calculation: 227.000000 [mu s]
	Time per iteration and DOF: 0.214875 [ns]
	Retrieve results bandwidth 1.633000 [GByte/s]
[OGL LOG][Proc: 0]p: solve_multi_gpu: 1306.03 [ms]
BJhipGKOCG:  Solving for p, Initial residual = 0.709972, Final residual = 9.57379e-05, No Iterations 757
[INFO] SolveP: 1322.77 [ms]
time step continuity errors : sum local = 1.21076e-08, global = -2.60381e-22, cumulative = -1.49972e-20
[INFO] ContinuityError: 10.553 [ms]
[INFO] CorrectBoundary: 0.273 [ms]
[INFO] PISOStep: 1444.93 [ms]
[INFO] TimeStep: 3782.01 [ms]
ExecutionTime = 26.45 s  ClockTime = 27 s

Time = 0.00125

Courant Number mean: 0.0333261 max: 0.47298
[INFO] MatrixAssemblyU: 61.105 [ms]
DILUPBiCGStab:  Solving for Ux, Initial residual = 0.0271459, Final residual = 0.00094853, No Iterations 5
DILUPBiCGStab:  Solving for Uy, Initial residual = 0.081545, Final residual = 0.00370092, No Iterations 5
DILUPBiCGStab:  Solving for Uz, Initial residual = 0.464461, Final residual = 0.0121743, No Iterations 5
[INFO] MomentumPredictor: 450.078 [ms]
[INFO] MatrixAssemblyPI: 66.599 [ms]
[INFO] AdjustPhi: 3.876 [ms]
[INFO] ConstrainPressure: 0.004 [ms]
[INFO] MatrixAssemblyPII: 19.374 [ms]
[OGL LOG][Proc: 0]: global_index_init: 0.093 [ms]
[OGL LOG][Proc: 0]p_local_coeffs: call_update: 0 [ms]
[OGL LOG][Proc: 0]p_non_local_coeffs: call_update: 0 [ms]
[OGL LOG][Proc: 0]p: update_local_matrix_data: 15.235 [ms]
[OGL LOG][Proc: 0]p: update_non_local_matrix_data: 0.08 [ms]
[OGL LOG][Proc: 0]p_matrix: call_update: 0.634 [ms]
[OGL LOG][Proc: 0]p_rhs: call_update: 0.697 [ms]
[OGL LOG][Preconditioner.H:121] Generate preconditioner BJ MaxBlockSize 1
[OGL LOG][Proc: 0]p: init_precond: 0.29 [ms]
[OGL LOG][StoppingCriterion.H:237] Creating stopping criterion with minIter 454 frequency 6
[OGL LOG][Proc: 0]p: generate_solver: 0.001 [ms]
[OGL LOG][Proc: 0]p: solve: 1284.65 [ms]
[OGL LOG][Proc: 0]p: copy_x_back: 1.219 [ms]
[OGL LOG][lduLduBase.H:330] 
Statistics:
	Time per iteration: 1724 [mu s]
	Time per residual norm calculation: 223.000000 [mu s]
	Time per iteration and DOF: 0.215500 [ns]
	Retrieve results bandwidth 1.640000 [GByte/s]
[OGL LOG][Proc: 0]p: solve_multi_gpu: 1288.24 [ms]
BJhipGKOCG:  Solving for p, Initial residual = 0.777224, Final residual = 8.1003e-05, No Iterations 745
[INFO] SolveP: 1305.95 [ms]
time step continuity errors : sum local = 8.42566e-09, global = 1.29026e-21, cumulative = -1.37069e-20
[INFO] ContinuityError: 6.854 [ms]
[INFO] CorrectBoundary: 0.279 [ms]
[INFO] PISOStep: 1430.51 [ms]
[INFO] MatrixAssemblyPI: 64.447 [ms]
[INFO] AdjustPhi: 4.603 [ms]
[INFO] ConstrainPressure: 0.005 [ms]
[INFO] MatrixAssemblyPII: 19.626 [ms]
[OGL LOG][Proc: 0]: global_index_init: 0.095 [ms]
[OGL LOG][Proc: 0]p_local_coeffs: call_update: 0 [ms]
[OGL LOG][Proc: 0]p_non_local_coeffs: call_update: 0 [ms]
[OGL LOG][Proc: 0]p: update_local_matrix_data: 14.194 [ms]
[OGL LOG][Proc: 0]p: update_non_local_matrix_data: 0.063 [ms]
[OGL LOG][Proc: 0]p_matrix: call_update: 0.541 [ms]
[OGL LOG][Proc: 0]p_rhs: call_update: 0.831 [ms]
[OGL LOG][Preconditioner.H:121] Generate preconditioner BJ MaxBlockSize 1
[OGL LOG][Proc: 0]p: init_precond: 0.269 [ms]
[OGL LOG][StoppingCriterion.H:237] Creating stopping criterion with minIter 447 frequency 6
[OGL LOG][Proc: 0]p: generate_solver: 0.002 [ms]
[OGL LOG][Proc: 0]p: solve: 1298.82 [ms]
[OGL LOG][Proc: 0]p: copy_x_back: 1.042 [ms]
[OGL LOG][lduLduBase.H:330] 
Statistics:
	Time per iteration: 1757 [mu s]
	Time per residual norm calculation: 222.000000 [mu s]
	Time per iteration and DOF: 0.219625 [ns]
	Retrieve results bandwidth 1.919000 [GByte/s]
[OGL LOG][Proc: 0]p: solve_multi_gpu: 1303.7 [ms]
BJhipGKOCG:  Solving for p, Initial residual = 0.726177, Final residual = 9.34883e-05, No Iterations 739
[INFO] SolveP: 1320.53 [ms]
time step continuity errors : sum local = 9.42972e-09, global = -2.13423e-21, cumulative = -1.58412e-20
[INFO] ContinuityError: 8.047 [ms]
[INFO] CorrectBoundary: 1.101 [ms]
[INFO] PISOStep: 1440.68 [ms]
[INFO] TimeStep: 3390.09 [ms]
ExecutionTime = 29.82 s  ClockTime = 31 s

Time = 0.0015

Courant Number mean: 0.0366253 max: 0.475543
[INFO] MatrixAssemblyU: 61.152 [ms]
DILUPBiCGStab:  Solving for Ux, Initial residual = 0.0204496, Final residual = 0.000684041, No Iterations 5
DILUPBiCGStab:  Solving for Uy, Initial residual = 0.0659572, Final residual = 0.00256698, No Iterations 5
DILUPBiCGStab:  Solving for Uz, Initial residual = 0.337397, Final residual = 0.0088408, No Iterations 5
[INFO] MomentumPredictor: 465.558 [ms]
[INFO] MatrixAssemblyPI: 65.979 [ms]
[INFO] AdjustPhi: 4.2 [ms]
[INFO] ConstrainPressure: 0.003 [ms]
[INFO] MatrixAssemblyPII: 19.565 [ms]
[OGL LOG][Proc: 0]: global_index_init: 0.21 [ms]
[OGL LOG][Proc: 0]p_local_coeffs: call_update: 0 [ms]
[OGL LOG][Proc: 0]p_non_local_coeffs: call_update: 0 [ms]
[OGL LOG][Proc: 0]p: update_local_matrix_data: 13.971 [ms]
[OGL LOG][Proc: 0]p: update_non_local_matrix_data: 0.064 [ms]
[OGL LOG][Proc: 0]p_matrix: call_update: 0.809 [ms]
[OGL LOG][Proc: 0]p_rhs: call_update: 0.721 [ms]
[OGL LOG][Preconditioner.H:121] Generate preconditioner BJ MaxBlockSize 1
[OGL LOG][Proc: 0]p: init_precond: 0.272 [ms]
[OGL LOG][StoppingCriterion.H:237] Creating stopping criterion with minIter 443 frequency 6
[OGL LOG][Proc: 0]p: generate_solver: 0.001 [ms]
[OGL LOG][Proc: 0]p: solve: 1302.39 [ms]
[OGL LOG][Proc: 0]p: copy_x_back: 1.168 [ms]
[OGL LOG][lduLduBase.H:330] 
Statistics:
	Time per iteration: 1748 [mu s]
	Time per residual norm calculation: 226.000000 [mu s]
	Time per iteration and DOF: 0.218500 [ns]
	Retrieve results bandwidth 1.712000 [GByte/s]
[OGL LOG][Proc: 0]p: solve_multi_gpu: 1307.1 [ms]
BJhipGKOCG:  Solving for p, Initial residual = 0.685897, Final residual = 9.2876e-05, No Iterations 745
[INFO] SolveP: 1324.02 [ms]
time step continuity errors : sum local = 9.73963e-09, global = -2.09556e-21, cumulative = -1.79367e-20
[INFO] ContinuityError: 5.285 [ms]
[INFO] CorrectBoundary: 0.258 [ms]
[INFO] PISOStep: 1444.63 [ms]
[INFO] MatrixAssemblyPI: 64.001 [ms]
[INFO] AdjustPhi: 6.204 [ms]
[INFO] ConstrainPressure: 0.003 [ms]
[INFO] MatrixAssemblyPII: 19.607 [ms]
[OGL LOG][Proc: 0]: global_index_init: 0.097 [ms]
[OGL LOG][Proc: 0]p_local_coeffs: call_update: 0 [ms]
[OGL LOG][Proc: 0]p_non_local_coeffs: call_update: 0 [ms]
[OGL LOG][Proc: 0]p: update_local_matrix_data: 14.497 [ms]
[OGL LOG][Proc: 0]p: update_non_local_matrix_data: 0.085 [ms]
[OGL LOG][Proc: 0]p_matrix: call_update: 0.586 [ms]
[OGL LOG][Proc: 0]p_rhs: call_update: 0.756 [ms]
[OGL LOG][Preconditioner.H:121] Generate preconditioner BJ MaxBlockSize 1
[OGL LOG][Proc: 0]p: init_precond: 0.293 [ms]
[OGL LOG][StoppingCriterion.H:237] Creating stopping criterion with minIter 447 frequency 6
[OGL LOG][Proc: 0]p: generate_solver: 0.001 [ms]
[OGL LOG][Proc: 0]p: solve: 1239.58 [ms]
[OGL LOG][Proc: 0]p: copy_x_back: 1 [ms]
[OGL LOG][lduLduBase.H:330] 
Statistics:
	Time per iteration: 1677 [mu s]
	Time per residual norm calculation: 219.000000 [mu s]
	Time per iteration and DOF: 0.209625 [ns]
	Retrieve results bandwidth 2.000000 [GByte/s]
[OGL LOG][Proc: 0]p: solve_multi_gpu: 1244.03 [ms]
BJhipGKOCG:  Solving for p, Initial residual = 0.625425, Final residual = 8.55603e-05, No Iterations 739
[INFO] SolveP: 1261.83 [ms]
time step continuity errors : sum local = 8.39089e-09, global = -2.08532e-21, cumulative = -2.0022e-20
[INFO] ContinuityError: 7.295 [ms]
[INFO] CorrectBoundary: 0.53 [ms]
[INFO] PISOStep: 1382.76 [ms]
[INFO] TimeStep: 3365.34 [ms]
ExecutionTime = 33.17 s  ClockTime = 34 s

Time = 0.00175

Courant Number mean: 0.0395403 max: 0.477486
[INFO] MatrixAssemblyU: 56.583 [ms]
DILUPBiCGStab:  Solving for Ux, Initial residual = 0.0174576, Final residual = 0.000549117, No Iterations 5
DILUPBiCGStab:  Solving for Uy, Initial residual = 0.0491773, Final residual = 0.00187714, No Iterations 5
DILUPBiCGStab:  Solving for Uz, Initial residual = 0.26326, Final residual = 0.00817429, No Iterations 5
[INFO] MomentumPredictor: 482.797 [ms]
[INFO] MatrixAssemblyPI: 65.233 [ms]
[INFO] AdjustPhi: 5.256 [ms]
[INFO] ConstrainPressure: 0.003 [ms]
[INFO] MatrixAssemblyPII: 19.443 [ms]
[OGL LOG][Proc: 0]: global_index_init: 0.341 [ms]
[OGL LOG][Proc: 0]p_local_coeffs: call_update: 0 [ms]
[OGL LOG][Proc: 0]p_non_local_coeffs: call_update: 0 [ms]
[OGL LOG][Proc: 0]p: update_local_matrix_data: 13.834 [ms]
[OGL LOG][Proc: 0]p: update_non_local_matrix_data: 0.067 [ms]
[OGL LOG][Proc: 0]p_matrix: call_update: 0.627 [ms]
[OGL LOG][Proc: 0]p_rhs: call_update: 0.697 [ms]
[OGL LOG][Preconditioner.H:121] Generate preconditioner BJ MaxBlockSize 1
[OGL LOG][Proc: 0]p: init_precond: 0.285 [ms]
[OGL LOG][StoppingCriterion.H:237] Creating stopping criterion with minIter 443 frequency 6
[OGL LOG][Proc: 0]p: generate_solver: 0.003 [ms]
[OGL LOG][Proc: 0]p: solve: 2597.55 [ms]
[OGL LOG][Proc: 0]p: copy_x_back: 1.268 [ms]
[OGL LOG][lduLduBase.H:330] 
Statistics:
	Time per iteration: 1723 [mu s]
	Time per residual norm calculation: 222.000000 [mu s]
	Time per iteration and DOF: 0.215375 [ns]
	Retrieve results bandwidth 1.577000 [GByte/s]
[OGL LOG][Proc: 0]p: solve_multi_gpu: 2602.95 [ms]
BJhipGKOCG:  Solving for p, Initial residual = 0.681201, Final residual = 9.42269e-05, No Iterations 1507
[INFO] SolveP: 2619.27 [ms]
time step continuity errors : sum local = 7.37743e-09, global = -1.62937e-21, cumulative = -2.16514e-20
[INFO] ContinuityError: 4.44 [ms]
[INFO] CorrectBoundary: 0.502 [ms]
[INFO] PISOStep: 2742.73 [ms]
[INFO] MatrixAssemblyPI: 63.68 [ms]
[INFO] AdjustPhi: 4.1 [ms]
[INFO] ConstrainPressure: 0.004 [ms]
[INFO] MatrixAssemblyPII: 19.557 [ms]
[OGL LOG][Proc: 0]: global_index_init: 0.389 [ms]
[OGL LOG][Proc: 0]p_local_coeffs: call_update: 0 [ms]
[OGL LOG][Proc: 0]p_non_local_coeffs: call_update: 0 [ms]
[OGL LOG][Proc: 0]p: update_local_matrix_data: 14.041 [ms]
[OGL LOG][Proc: 0]p: update_non_local_matrix_data: 0.09 [ms]
[OGL LOG][Proc: 0]p_matrix: call_update: 0.59 [ms]
[OGL LOG][Proc: 0]p_rhs: call_update: 0.731 [ms]
[OGL LOG][Preconditioner.H:121] Generate preconditioner BJ MaxBlockSize 1
[OGL LOG][Proc: 0]p: init_precond: 0.28 [ms]
[OGL LOG][StoppingCriterion.H:237] Creating stopping criterion with minIter 904 frequency 9
[OGL LOG][Proc: 0]p: generate_solver: 0.002 [ms]
[OGL LOG][Proc: 0]p: solve: 2557.17 [ms]
[OGL LOG][Proc: 0]p: copy_x_back: 1.052 [ms]
[OGL LOG][lduLduBase.H:330] 
Statistics:
	Time per iteration: 1700 [mu s]
	Time per residual norm calculation: 220.000000 [mu s]
	Time per iteration and DOF: 0.212500 [ns]
	Retrieve results bandwidth 1.901000 [GByte/s]
[OGL LOG][Proc: 0]p: solve_multi_gpu: 2561.95 [ms]
BJhipGKOCG:  Solving for p, Initial residual = 0.621979, Final residual = 9.66392e-05, No Iterations 1504
[INFO] SolveP: 2579.04 [ms]
time step continuity errors : sum local = 7.52502e-09, global = -1.78848e-21, cumulative = -2.34399e-20
[INFO] ContinuityError: 7.859 [ms]
[INFO] CorrectBoundary: 0.256 [ms]
[INFO] PISOStep: 2698.76 [ms]
[INFO] TimeStep: 5988.36 [ms]
ExecutionTime = 39.12 s  ClockTime = 40 s

Time = 0.002

Courant Number mean: 0.0420648 max: 0.479193
[INFO] MatrixAssemblyU: 61.086 [ms]
DILUPBiCGStab:  Solving for Ux, Initial residual = 0.0143191, Final residual = 0.000425589, No Iterations 5
DILUPBiCGStab:  Solving for Uy, Initial residual = 0.0418612, Final residual = 0.00146374, No Iterations 5
DILUPBiCGStab:  Solving for Uz, Initial residual = 0.205463, Final residual = 0.00627368, No Iterations 5
[INFO] MomentumPredictor: 464.027 [ms]
[INFO] MatrixAssemblyPI: 66.118 [ms]
[INFO] AdjustPhi: 4.206 [ms]
[INFO] ConstrainPressure: 0.003 [ms]
[INFO] MatrixAssemblyPII: 19.462 [ms]
[OGL LOG][Proc: 0]: global_index_init: 0.117 [ms]
[OGL LOG][Proc: 0]p_local_coeffs: call_update: 0 [ms]
[OGL LOG][Proc: 0]p_non_local_coeffs: call_update: 0 [ms]
[OGL LOG][Proc: 0]p: update_local_matrix_data: 14.663 [ms]
[OGL LOG][Proc: 0]p: update_non_local_matrix_data: 0.064 [ms]
[OGL LOG][Proc: 0]p_matrix: call_update: 0.524 [ms]
[OGL LOG][Proc: 0]p_rhs: call_update: 0.837 [ms]
[OGL LOG][Preconditioner.H:121] Generate preconditioner BJ MaxBlockSize 1
[OGL LOG][Proc: 0]p: init_precond: 0.281 [ms]
[OGL LOG][StoppingCriterion.H:237] Creating stopping criterion with minIter 902 frequency 9
[OGL LOG][Proc: 0]p: generate_solver: 0.001 [ms]
[OGL LOG][Proc: 0]p: solve: 2598.26 [ms]
[OGL LOG][Proc: 0]p: copy_x_back: 1.123 [ms]
[OGL LOG][lduLduBase.H:330] 
Statistics:
	Time per iteration: 1717 [mu s]
	Time per residual norm calculation: 228.000000 [mu s]
	Time per iteration and DOF: 0.214625 [ns]
	Retrieve results bandwidth 1.780000 [GByte/s]
[OGL LOG][Proc: 0]p: solve_multi_gpu: 2602.91 [ms]
BJhipGKOCG:  Solving for p, Initial residual = 0.591253, Final residual = 9.0347e-05, No Iterations 1513
[INFO] SolveP: 2620.21 [ms]
time step continuity errors : sum local = 6.7415e-09, global = -3.36046e-21, cumulative = -2.68003e-20
[INFO] ContinuityError: 6.275 [ms]
[INFO] CorrectBoundary: 0.631 [ms]
[INFO] PISOStep: 2741.21 [ms]
[INFO] MatrixAssemblyPI: 64.392 [ms]
[INFO] AdjustPhi: 3.355 [ms]
[INFO] ConstrainPressure: 0.003 [ms]
[INFO] MatrixAssemblyPII: 18.719 [ms]
[OGL LOG][Proc: 0]: global_index_init: 0.271 [ms]
[OGL LOG][Proc: 0]p_local_coeffs: call_update: 0 [ms]
[OGL LOG][Proc: 0]p_non_local_coeffs: call_update: 0 [ms]
[OGL LOG][Proc: 0]p: update_local_matrix_data: 14.132 [ms]
[OGL LOG][Proc: 0]p: update_non_local_matrix_data: 0.084 [ms]
[OGL LOG][Proc: 0]p_matrix: call_update: 0.576 [ms]
[OGL LOG][Proc: 0]p_rhs: call_update: 0.851 [ms]
[OGL LOG][Preconditioner.H:121] Generate preconditioner BJ MaxBlockSize 1
[OGL LOG][Proc: 0]p: init_precond: 0.283 [ms]
[OGL LOG][StoppingCriterion.H:237] Creating stopping criterion with minIter 907 frequency 9
[OGL LOG][Proc: 0]p: generate_solver: 0.001 [ms]
[OGL LOG][Proc: 0]p: solve: 2519.76 [ms]
[OGL LOG][Proc: 0]p: copy_x_back: 1.202 [ms]
[OGL LOG][lduLduBase.H:330] 
Statistics:
	Time per iteration: 1665 [mu s]
	Time per residual norm calculation: 218.000000 [mu s]
	Time per iteration and DOF: 0.208125 [ns]
	Retrieve results bandwidth 1.663000 [GByte/s]
[OGL LOG][Proc: 0]p: solve_multi_gpu: 2524.64 [ms]
BJhipGKOCG:  Solving for p, Initial residual = 0.53406, Final residual = 8.32552e-05, No Iterations 1513
[INFO] SolveP: 2541.6 [ms]
time step continuity errors : sum local = 6.19875e-09, global = -3.8357e-21, cumulative = -3.0636e-20
[INFO] ContinuityError: 7.45 [ms]
[INFO] CorrectBoundary: 1.551 [ms]
[INFO] PISOStep: 2662.06 [ms]
[INFO] TimeStep: 5936.35 [ms]
ExecutionTime = 45.01 s  ClockTime = 46 s

Time = 0.00225

Courant Number mean: 0.0443504 max: 0.480341
[INFO] MatrixAssemblyU: 61.05 [ms]
DILUPBiCGStab:  Solving for Ux, Initial residual = 0.012598, Final residual = 0.000352227, No Iterations 5
DILUPBiCGStab:  Solving for Uy, Initial residual = 0.0337396, Final residual = 0.00103741, No Iterations 5
DILUPBiCGStab:  Solving for Uz, Initial residual = 0.165871, Final residual = 0.00585778, No Iterations 5
[INFO] MomentumPredictor: 456.493 [ms]
[INFO] MatrixAssemblyPI: 65.619 [ms]
[INFO] AdjustPhi: 8.63 [ms]
[INFO] ConstrainPressure: 0.003 [ms]
[INFO] MatrixAssemblyPII: 19.532 [ms]
[OGL LOG][Proc: 0]: global_index_init: 0.176 [ms]
[OGL LOG][Proc: 0]p_local_coeffs: call_update: 0 [ms]
[OGL LOG][Proc: 0]p_non_local_coeffs: call_update: 0 [ms]
[OGL LOG][Proc: 0]p: update_local_matrix_data: 14.257 [ms]
[OGL LOG][Proc: 0]p: update_non_local_matrix_data: 0.069 [ms]
[OGL LOG][Proc: 0]p_matrix: call_update: 0.533 [ms]
[OGL LOG][Proc: 0]p_rhs: call_update: 0.839 [ms]
[OGL LOG][Preconditioner.H:121] Generate preconditioner BJ MaxBlockSize 1
[OGL LOG][Proc: 0]p: init_precond: 0.282 [ms]
[OGL LOG][StoppingCriterion.H:237] Creating stopping criterion with minIter 907 frequency 9
[OGL LOG][Proc: 0]p: generate_solver: 0.003 [ms]
[OGL LOG][Proc: 0]p: solve: 2560.12 [ms]
[OGL LOG][Proc: 0]p: copy_x_back: 1.239 [ms]
[OGL LOG][lduLduBase.H:330] 
Statistics:
	Time per iteration: 1712 [mu s]
	Time per residual norm calculation: 223.000000 [mu s]
	Time per iteration and DOF: 0.214000 [ns]
	Retrieve results bandwidth 1.614000 [GByte/s]
[OGL LOG][Proc: 0]p: solve_multi_gpu: 2565.11 [ms]
BJhipGKOCG:  Solving for p, Initial residual = 0.577976, Final residual = 9.20202e-05, No Iterations 1495
[INFO] SolveP: 2581.96 [ms]
time step continuity errors : sum local = 5.93484e-09, global = -5.05558e-21, cumulative = -3.56916e-20
[INFO] ContinuityError: 7.726 [ms]
[INFO] CorrectBoundary: 0.247 [ms]
[INFO] PISOStep: 2708.51 [ms]
[INFO] MatrixAssemblyPI: 64.481 [ms]
[INFO] AdjustPhi: 3.416 [ms]
[INFO] ConstrainPressure: 0.01 [ms]
[INFO] MatrixAssemblyPII: 19.483 [ms]
[OGL LOG][Proc: 0]: global_index_init: 0.359 [ms]
[OGL LOG][Proc: 0]p_local_coeffs: call_update: 0 [ms]
[OGL LOG][Proc: 0]p_non_local_coeffs: call_update: 0 [ms]
[OGL LOG][Proc: 0]p: update_local_matrix_data: 14.005 [ms]
[OGL LOG][Proc: 0]p: update_non_local_matrix_data: 0.067 [ms]
[OGL LOG][Proc: 0]p_matrix: call_update: 0.64 [ms]
[OGL LOG][Proc: 0]p_rhs: call_update: 0.777 [ms]
[OGL LOG][Preconditioner.H:121] Generate preconditioner BJ MaxBlockSize 1
[OGL LOG][Proc: 0]p: init_precond: 0.295 [ms]
[OGL LOG][StoppingCriterion.H:237] Creating stopping criterion with minIter 897 frequency 9
[OGL LOG][Proc: 0]p: generate_solver: 0.001 [ms]
[OGL LOG][Proc: 0]p: solve: 2501.64 [ms]
[OGL LOG][Proc: 0]p: copy_x_back: 1.16 [ms]
[OGL LOG][lduLduBase.H:330] 
Statistics:
	Time per iteration: 1673 [mu s]
	Time per residual norm calculation: 217.000000 [mu s]
	Time per iteration and DOF: 0.209125 [ns]
	Retrieve results bandwidth 1.724000 [GByte/s]
[OGL LOG][Proc: 0]p: solve_multi_gpu: 2506.83 [ms]
BJhipGKOCG:  Solving for p, Initial residual = 0.51764, Final residual = 8.63587e-05, No Iterations 1495
[INFO] SolveP: 2524.03 [ms]
time step continuity errors : sum local = 5.56641e-09, global = -3.03088e-21, cumulative = -3.87225e-20
[INFO] ContinuityError: 6.617 [ms]
[INFO] CorrectBoundary: 0.147 [ms]
[INFO] PISOStep: 2642.61 [ms]
[INFO] TimeStep: 5877.91 [ms]
ExecutionTime = 50.86 s  ClockTime = 52 s

Time = 0.0025

Courant Number mean: 0.0464048 max: 0.481448
[INFO] MatrixAssemblyU: 61.23 [ms]
DILUPBiCGStab:  Solving for Ux, Initial residual = 0.0108448, Final residual = 0.000285375, No Iterations 5
DILUPBiCGStab:  Solving for Uy, Initial residual = 0.0295424, Final residual = 0.000851926, No Iterations 5
DILUPBiCGStab:  Solving for Uz, Initial residual = 0.134186, Final residual = 0.00481745, No Iterations 5
[INFO] MomentumPredictor: 449.942 [ms]
[INFO] MatrixAssemblyPI: 65.861 [ms]
[INFO] AdjustPhi: 4.296 [ms]
[INFO] ConstrainPressure: 0.003 [ms]
[INFO] MatrixAssemblyPII: 19.482 [ms]
[OGL LOG][Proc: 0]: global_index_init: 0.279 [ms]
[OGL LOG][Proc: 0]p_local_coeffs: call_update: 0 [ms]
[OGL LOG][Proc: 0]p_non_local_coeffs: call_update: 0 [ms]
[OGL LOG][Proc: 0]p: update_local_matrix_data: 14.435 [ms]
[OGL LOG][Proc: 0]p: update_non_local_matrix_data: 0.067 [ms]
[OGL LOG][Proc: 0]p_matrix: call_update: 0.564 [ms]
[OGL LOG][Proc: 0]p_rhs: call_update: 0.842 [ms]
[OGL LOG][Preconditioner.H:121] Generate preconditioner BJ MaxBlockSize 1
[OGL LOG][Proc: 0]p: init_precond: 0.279 [ms]
[OGL LOG][StoppingCriterion.H:237] Creating stopping criterion with minIter 897 frequency 9
[OGL LOG][Proc: 0]p: generate_solver: 0.002 [ms]
[OGL LOG][Proc: 0]p: solve: 2575.02 [ms]
[OGL LOG][Proc: 0]p: copy_x_back: 1.193 [ms]
[OGL LOG][lduLduBase.H:330] 
Statistics:
	Time per iteration: 1722 [mu s]
	Time per residual norm calculation: 232.000000 [mu s]
	Time per iteration and DOF: 0.215250 [ns]
	Retrieve results bandwidth 1.676000 [GByte/s]
[OGL LOG][Proc: 0]p: solve_multi_gpu: 2580.14 [ms]
BJhipGKOCG:  Solving for p, Initial residual = 0.501982, Final residual = 8.94928e-05, No Iterations 1495
[INFO] SolveP: 2597.04 [ms]
time step continuity errors : sum local = 5.60765e-09, global = -3.41e-21, cumulative = -4.21325e-20
[INFO] ContinuityError: 5.927 [ms]
[INFO] CorrectBoundary: 0.242 [ms]
[INFO] PISOStep: 2718.02 [ms]
[INFO] MatrixAssemblyPI: 64.193 [ms]
[INFO] AdjustPhi: 4.249 [ms]
[INFO] ConstrainPressure: 0.007 [ms]
[INFO] MatrixAssemblyPII: 18.793 [ms]
[OGL LOG][Proc: 0]: global_index_init: 0.099 [ms]
[OGL LOG][Proc: 0]p_local_coeffs: call_update: 0 [ms]
[OGL LOG][Proc: 0]p_non_local_coeffs: call_update: 0 [ms]
[OGL LOG][Proc: 0]p: update_local_matrix_data: 14.114 [ms]
[OGL LOG][Proc: 0]p: update_non_local_matrix_data: 0.088 [ms]
[OGL LOG][Proc: 0]p_matrix: call_update: 0.659 [ms]
[OGL LOG][Proc: 0]p_rhs: call_update: 3.703 [ms]
[OGL LOG][Preconditioner.H:121] Generate preconditioner BJ MaxBlockSize 1
[OGL LOG][Proc: 0]p: init_precond: 0.366 [ms]
[OGL LOG][StoppingCriterion.H:237] Creating stopping criterion with minIter 897 frequency 9
[OGL LOG][Proc: 0]p: generate_solver: 0.002 [ms]
[OGL LOG][Proc: 0]p: solve: 2488.9 [ms]
[OGL LOG][Proc: 0]p: copy_x_back: 1.209 [ms]
[OGL LOG][lduLduBase.H:330] 
Statistics:
	Time per iteration: 1674 [mu s]
	Time per residual norm calculation: 222.000000 [mu s]
	Time per iteration and DOF: 0.209250 [ns]
	Retrieve results bandwidth 1.654000 [GByte/s]
[OGL LOG][Proc: 0]p: solve_multi_gpu: 2499.19 [ms]
BJhipGKOCG:  Solving for p, Initial residual = 0.449521, Final residual = 9.74781e-05, No Iterations 1486
[INFO] SolveP: 2516.15 [ms]
time step continuity errors : sum local = 6.08263e-09, global = -2.37504e-21, cumulative = -4.45076e-20
[INFO] ContinuityError: 7.532 [ms]
[INFO] CorrectBoundary: 0.375 [ms]
[INFO] PISOStep: 2639.28 [ms]
[INFO] TimeStep: 5875.67 [ms]
ExecutionTime = 56.69 s  ClockTime = 58 s

Time = 0.00275

Courant Number mean: 0.0482937 max: 0.48222
[INFO] MatrixAssemblyU: 61.262 [ms]
DILUPBiCGStab:  Solving for Ux, Initial residual = 0.009714, Final residual = 0.000240579, No Iterations 5
DILUPBiCGStab:  Solving for Uy, Initial residual = 0.0250187, Final residual = 0.000620306, No Iterations 5
DILUPBiCGStab:  Solving for Uz, Initial residual = 0.112083, Final residual = 0.0045077, No Iterations 5
[INFO] MomentumPredictor: 458.028 [ms]
[INFO] MatrixAssemblyPI: 67.081 [ms]
[INFO] AdjustPhi: 3.036 [ms]
[INFO] ConstrainPressure: 0.003 [ms]
[INFO] MatrixAssemblyPII: 19.559 [ms]
[OGL LOG][Proc: 0]: global_index_init: 0.089 [ms]
[OGL LOG][Proc: 0]p_local_coeffs: call_update: 0 [ms]
[OGL LOG][Proc: 0]p_non_local_coeffs: call_update: 0 [ms]
[OGL LOG][Proc: 0]p: update_local_matrix_data: 17.798 [ms]
[OGL LOG][Proc: 0]p: update_non_local_matrix_data: 0.111 [ms]
[OGL LOG][Proc: 0]p_matrix: call_update: 0.521 [ms]
[OGL LOG][Proc: 0]p_rhs: call_update: 2.09 [ms]
[OGL LOG][Preconditioner.H:121] Generate preconditioner BJ MaxBlockSize 1
[OGL LOG][Proc: 0]p: init_precond: 0.428 [ms]
[OGL LOG][StoppingCriterion.H:237] Creating stopping criterion with minIter 891 frequency 9
[OGL LOG][Proc: 0]p: generate_solver: 0.001 [ms]
[OGL LOG][Proc: 0]p: solve: 2534.05 [ms]
[OGL LOG][Proc: 0]p: copy_x_back: 1.221 [ms]
[OGL LOG][lduLduBase.H:330] 
Statistics:
	Time per iteration: 1705 [mu s]
	Time per residual norm calculation: 219.000000 [mu s]
	Time per iteration and DOF: 0.213125 [ns]
	Retrieve results bandwidth 1.638000 [GByte/s]
[OGL LOG][Proc: 0]p: solve_multi_gpu: 2541.29 [ms]
BJhipGKOCG:  Solving for p, Initial residual = 0.477366, Final residual = 7.95522e-05, No Iterations 1486
[INFO] SolveP: 2561.62 [ms]
time step continuity errors : sum local = 4.49638e-09, global = -3.77709e-21, cumulative = -4.82846e-20
[INFO] ContinuityError: 7.436 [ms]
[INFO] CorrectBoundary: 0.254 [ms]
[INFO] PISOStep: 2682.77 [ms]
[INFO] MatrixAssemblyPI: 64.475 [ms]
[INFO] AdjustPhi: 3.337 [ms]
[INFO] ConstrainPressure: 0.004 [ms]
[INFO] MatrixAssemblyPII: 19.706 [ms]
[OGL LOG][Proc: 0]: global_index_init: 0.103 [ms]
[OGL LOG][Proc: 0]p_local_coeffs: call_update: 0 [ms]
[OGL LOG][Proc: 0]p_non_local_coeffs: call_update: 0 [ms]
[OGL LOG][Proc: 0]p: update_local_matrix_data: 14.235 [ms]
[OGL LOG][Proc: 0]p: update_non_local_matrix_data: 0.086 [ms]
[OGL LOG][Proc: 0]p_matrix: call_update: 0.607 [ms]
[OGL LOG][Proc: 0]p_rhs: call_update: 0.732 [ms]
[OGL LOG][Preconditioner.H:121] Generate preconditioner BJ MaxBlockSize 1
[OGL LOG][Proc: 0]p: init_precond: 0.267 [ms]
[OGL LOG][StoppingCriterion.H:237] Creating stopping criterion with minIter 891 frequency 9
[OGL LOG][Proc: 0]p: generate_solver: 0.002 [ms]
[OGL LOG][Proc: 0]p: solve: 2473.35 [ms]
[OGL LOG][Proc: 0]p: copy_x_back: 1.172 [ms]
[OGL LOG][lduLduBase.H:330] 
Statistics:
	Time per iteration: 1674 [mu s]
	Time per residual norm calculation: 221.000000 [mu s]
	Time per iteration and DOF: 0.209250 [ns]
	Retrieve results bandwidth 1.706000 [GByte/s]
[OGL LOG][Proc: 0]p: solve_multi_gpu: 2478.47 [ms]
BJhipGKOCG:  Solving for p, Initial residual = 0.423493, Final residual = 9.62279e-05, No Iterations 1477
[INFO] SolveP: 2495.28 [ms]
time step continuity errors : sum local = 5.44352e-09, global = -5.3118e-21, cumulative = -5.35964e-20
[INFO] ContinuityError: 7.298 [ms]
[INFO] CorrectBoundary: 0.253 [ms]
[INFO] PISOStep: 2614.84 [ms]
[INFO] TimeStep: 5824.58 [ms]
ExecutionTime = 62.47 s  ClockTime = 63 s

Time = 0.003

Courant Number mean: 0.0500276 max: 0.483011
[INFO] MatrixAssemblyU: 61.029 [ms]
DILUPBiCGStab:  Solving for Ux, Initial residual = 0.0086248, Final residual = 0.000201573, No Iterations 5
DILUPBiCGStab:  Solving for Uy, Initial residual = 0.0223387, Final residual = 0.000512261, No Iterations 5
DILUPBiCGStab:  Solving for Uz, Initial residual = 0.0940082, Final residual = 0.00385317, No Iterations 5
[INFO] MomentumPredictor: 481.714 [ms]
[INFO] MatrixAssemblyPI: 65.708 [ms]
[INFO] AdjustPhi: 4.575 [ms]
[INFO] ConstrainPressure: 0.004 [ms]
[INFO] MatrixAssemblyPII: 19.471 [ms]
[OGL LOG][Proc: 0]: global_index_init: 0.196 [ms]
[OGL LOG][Proc: 0]p_local_coeffs: call_update: 0 [ms]
[OGL LOG][Proc: 0]p_non_local_coeffs: call_update: 0 [ms]
[OGL LOG][Proc: 0]p: update_local_matrix_data: 16.042 [ms]
[OGL LOG][Proc: 0]p: update_non_local_matrix_data: 0.097 [ms]
[OGL LOG][Proc: 0]p_matrix: call_update: 0.576 [ms]
[OGL LOG][Proc: 0]p_rhs: call_update: 0.747 [ms]
[OGL LOG][Preconditioner.H:121] Generate preconditioner BJ MaxBlockSize 1
[OGL LOG][Proc: 0]p: init_precond: 0.281 [ms]
[OGL LOG][StoppingCriterion.H:237] Creating stopping criterion with minIter 886 frequency 9
[OGL LOG][Proc: 0]p: generate_solver: 0.001 [ms]
[OGL LOG][Proc: 0]p: solve: 2571.54 [ms]
[OGL LOG][Proc: 0]p: copy_x_back: 1.193 [ms]
[OGL LOG][lduLduBase.H:330] 
Statistics:
	Time per iteration: 1730 [mu s]
	Time per residual norm calculation: 231.000000 [mu s]
	Time per iteration and DOF: 0.216250 [ns]
	Retrieve results bandwidth 1.676000 [GByte/s]
[OGL LOG][Proc: 0]p: solve_multi_gpu: 2579.22 [ms]
BJhipGKOCG:  Solving for p, Initial residual = 0.420475, Final residual = 8.01695e-05, No Iterations 1486
[INFO] SolveP: 2598.13 [ms]
time step continuity errors : sum local = 4.40444e-09, global = -1.63433e-21, cumulative = -5.52308e-20
[INFO] ContinuityError: 8.088 [ms]
[INFO] CorrectBoundary: 0.228 [ms]
[INFO] PISOStep: 2720.95 [ms]
[INFO] MatrixAssemblyPI: 64.203 [ms]
[INFO] AdjustPhi: 3.431 [ms]
[INFO] ConstrainPressure: 0.003 [ms]
[INFO] MatrixAssemblyPII: 18.709 [ms]
[OGL LOG][Proc: 0]: global_index_init: 0.113 [ms]
[OGL LOG][Proc: 0]p_local_coeffs: call_update: 0 [ms]
[OGL LOG][Proc: 0]p_non_local_coeffs: call_update: 0 [ms]
[OGL LOG][Proc: 0]p: update_local_matrix_data: 17.192 [ms]
[OGL LOG][Proc: 0]p: update_non_local_matrix_data: 0.1 [ms]
[OGL LOG][Proc: 0]p_matrix: call_update: 0.669 [ms]
[OGL LOG][Proc: 0]p_rhs: call_update: 1.485 [ms]
[OGL LOG][Preconditioner.H:121] Generate preconditioner BJ MaxBlockSize 1
[OGL LOG][Proc: 0]p: init_precond: 0.308 [ms]
[OGL LOG][StoppingCriterion.H:237] Creating stopping criterion with minIter 891 frequency 9
[OGL LOG][Proc: 0]p: generate_solver: 0.003 [ms]
[OGL LOG][Proc: 0]p: solve: 2440.74 [ms]
[OGL LOG][Proc: 0]p: copy_x_back: 1.257 [ms]
[OGL LOG][lduLduBase.H:330] 
Statistics:
	Time per iteration: 1652 [mu s]
	Time per residual norm calculation: 226.000000 [mu s]
	Time per iteration and DOF: 0.206500 [ns]
	Retrieve results bandwidth 1.591000 [GByte/s]
[OGL LOG][Proc: 0]p: solve_multi_gpu: 2449.14 [ms]
BJhipGKOCG:  Solving for p, Initial residual = 0.374116, Final residual = 9.90577e-05, No Iterations 1477
[INFO] SolveP: 2468.84 [ms]
time step continuity errors : sum local = 5.41854e-09, global = -3.25198e-21, cumulative = -5.84828e-20
[INFO] ContinuityError: 6.97 [ms]
[INFO] CorrectBoundary: 0.236 [ms]
[INFO] PISOStep: 2588.07 [ms]
[INFO] TimeStep: 5859.21 [ms]
ExecutionTime = 68.3 s  ClockTime = 69 s

Time = 0.00325

Courant Number mean: 0.0516386 max: 0.483576
[INFO] MatrixAssemblyU: 60.984 [ms]
DILUPBiCGStab:  Solving for Ux, Initial residual = 0.007827, Final residual = 0.000172167, No Iterations 5
DILUPBiCGStab:  Solving for Uy, Initial residual = 0.0195573, Final residual = 0.000402597, No Iterations 5
DILUPBiCGStab:  Solving for Uz, Initial residual = 0.0801633, Final residual = 0.00356561, No Iterations 5
[INFO] MomentumPredictor: 468.007 [ms]
[INFO] MatrixAssemblyPI: 66.587 [ms]
[INFO] AdjustPhi: 5.39 [ms]
[INFO] ConstrainPressure: 0.004 [ms]
[INFO] MatrixAssemblyPII: 19.426 [ms]
[OGL LOG][Proc: 0]: global_index_init: 0.261 [ms]
[OGL LOG][Proc: 0]p_local_coeffs: call_update: 0 [ms]
[OGL LOG][Proc: 0]p_non_local_coeffs: call_update: 0 [ms]
[OGL LOG][Proc: 0]p: update_local_matrix_data: 15.007 [ms]
[OGL LOG][Proc: 0]p: update_non_local_matrix_data: 0.062 [ms]
[OGL LOG][Proc: 0]p_matrix: call_update: 0.54 [ms]
[OGL LOG][Proc: 0]p_rhs: call_update: 0.781 [ms]
[OGL LOG][Preconditioner.H:121] Generate preconditioner BJ MaxBlockSize 1
[OGL LOG][Proc: 0]p: init_precond: 0.276 [ms]
[OGL LOG][StoppingCriterion.H:237] Creating stopping criterion with minIter 886 frequency 9
[OGL LOG][Proc: 0]p: generate_solver: 0.001 [ms]
[OGL LOG][Proc: 0]p: solve: 2526.14 [ms]
[OGL LOG][Proc: 0]p: copy_x_back: 1.019 [ms]
[OGL LOG][lduLduBase.H:330] 
Statistics:
	Time per iteration: 1710 [mu s]
	Time per residual norm calculation: 219.000000 [mu s]
	Time per iteration and DOF: 0.213750 [ns]
	Retrieve results bandwidth 1.962000 [GByte/s]
[OGL LOG][Proc: 0]p: solve_multi_gpu: 2529.82 [ms]
BJhipGKOCG:  Solving for p, Initial residual = 0.389683, Final residual = 9.93205e-05, No Iterations 1477
[INFO] SolveP: 2547.32 [ms]
time step continuity errors : sum local = 5.09408e-09, global = -2.83994e-21, cumulative = -6.13227e-20
[INFO] ContinuityError: 8.503 [ms]
[INFO] CorrectBoundary: 0.242 [ms]
[INFO] PISOStep: 2670.87 [ms]
[INFO] MatrixAssemblyPI: 63.903 [ms]
[INFO] AdjustPhi: 4.312 [ms]
[INFO] ConstrainPressure: 0.005 [ms]
[INFO] MatrixAssemblyPII: 19.601 [ms]
[OGL LOG][Proc: 0]: global_index_init: 0.318 [ms]
[OGL LOG][Proc: 0]p_local_coeffs: call_update: 0 [ms]
[OGL LOG][Proc: 0]p_non_local_coeffs: call_update: 0 [ms]
[OGL LOG][Proc: 0]p: update_local_matrix_data: 14.069 [ms]
[OGL LOG][Proc: 0]p: update_non_local_matrix_data: 0.078 [ms]
[OGL LOG][Proc: 0]p_matrix: call_update: 0.594 [ms]
[OGL LOG][Proc: 0]p_rhs: call_update: 0.742 [ms]
[OGL LOG][Preconditioner.H:121] Generate preconditioner BJ MaxBlockSize 1
[OGL LOG][Proc: 0]p: init_precond: 0.267 [ms]
[OGL LOG][StoppingCriterion.H:237] Creating stopping criterion with minIter 886 frequency 9
[OGL LOG][Proc: 0]p: generate_solver: 0.003 [ms]
[OGL LOG][Proc: 0]p: solve: 2476.01 [ms]
[OGL LOG][Proc: 0]p: copy_x_back: 1.297 [ms]
[OGL LOG][lduLduBase.H:330] 
Statistics:
	Time per iteration: 1676 [mu s]
	Time per residual norm calculation: 226.000000 [mu s]
	Time per iteration and DOF: 0.209500 [ns]
	Retrieve results bandwidth 1.542000 [GByte/s]
[OGL LOG][Proc: 0]p: solve_multi_gpu: 2481.02 [ms]
BJhipGKOCG:  Solving for p, Initial residual = 0.343648, Final residual = 9.07199e-05, No Iterations 1477
[INFO] SolveP: 2497.61 [ms]
time step continuity errors : sum local = 4.65823e-09, global = -3.31888e-21, cumulative = -6.46416e-20
[INFO] ContinuityError: 11.557 [ms]
[INFO] CorrectBoundary: 0.287 [ms]
[INFO] PISOStep: 2621.04 [ms]
[INFO] TimeStep: 5828.08 [ms]
ExecutionTime = 74.08 s  ClockTime = 75 s

Time = 0.0035

Courant Number mean: 0.0531349 max: 0.484172
[INFO] MatrixAssemblyU: 61.214 [ms]
DILUPBiCGStab:  Solving for Ux, Initial residual = 0.00709436, Final residual = 0.000147615, No Iterations 5
DILUPBiCGStab:  Solving for Uy, Initial residual = 0.0177264, Final residual = 0.000334359, No Iterations 5
DILUPBiCGStab:  Solving for Uz, Initial residual = 0.0692035, Final residual = 0.00311515, No Iterations 5
[INFO] MomentumPredictor: 463.888 [ms]
[INFO] MatrixAssemblyPI: 66.305 [ms]
[INFO] AdjustPhi: 3.844 [ms]
[INFO] ConstrainPressure: 0.004 [ms]
[INFO] MatrixAssemblyPII: 19.45 [ms]
[OGL LOG][Proc: 0]: global_index_init: 0.288 [ms]
[OGL LOG][Proc: 0]p_local_coeffs: call_update: 0 [ms]
[OGL LOG][Proc: 0]p_non_local_coeffs: call_update: 0 [ms]
[OGL LOG][Proc: 0]p: update_local_matrix_data: 13.981 [ms]
[OGL LOG][Proc: 0]p: update_non_local_matrix_data: 0.087 [ms]
[OGL LOG][Proc: 0]p_matrix: call_update: 0.743 [ms]
[OGL LOG][Proc: 0]p_rhs: call_update: 0.682 [ms]
[OGL LOG][Preconditioner.H:121] Generate preconditioner BJ MaxBlockSize 1
[OGL LOG][Proc: 0]p: init_precond: 0.283 [ms]
[OGL LOG][StoppingCriterion.H:237] Creating stopping criterion with minIter 886 frequency 9
[OGL LOG][Proc: 0]p: generate_solver: 0.001 [ms]
[OGL LOG][Proc: 0]p: solve: 2503.18 [ms]
[OGL LOG][Proc: 0]p: copy_x_back: 0.997 [ms]
[OGL LOG][lduLduBase.H:330] 
Statistics:
	Time per iteration: 1694 [mu s]
	Time per residual norm calculation: 226.000000 [mu s]
	Time per iteration and DOF: 0.211750 [ns]
	Retrieve results bandwidth 2.006000 [GByte/s]
[OGL LOG][Proc: 0]p: solve_multi_gpu: 2509.35 [ms]
BJhipGKOCG:  Solving for p, Initial residual = 0.347799, Final residual = 9.65876e-05, No Iterations 1477
[INFO] SolveP: 2525.77 [ms]
time step continuity errors : sum local = 4.79384e-09, global = -5.39306e-21, cumulative = -7.00346e-20
[INFO] ContinuityError: 7.523 [ms]
[INFO] CorrectBoundary: 0.558 [ms]
[INFO] PISOStep: 2646.78 [ms]
[INFO] MatrixAssemblyPI: 61.804 [ms]
[INFO] AdjustPhi: 6.432 [ms]
[INFO] ConstrainPressure: 0.003 [ms]
[INFO] MatrixAssemblyPII: 18.57 [ms]
[OGL LOG][Proc: 0]: global_index_init: 0.133 [ms]
[OGL LOG][Proc: 0]p_local_coeffs: call_update: 0 [ms]
[OGL LOG][Proc: 0]p_non_local_coeffs: call_update: 0 [ms]
[OGL LOG][Proc: 0]p: update_local_matrix_data: 13.362 [ms]
[OGL LOG][Proc: 0]p: update_non_local_matrix_data: 0.069 [ms]
[OGL LOG][Proc: 0]p_matrix: call_update: 0.651 [ms]
[OGL LOG][Proc: 0]p_rhs: call_update: 0.727 [ms]
[OGL LOG][Preconditioner.H:121] Generate preconditioner BJ MaxBlockSize 1
[OGL LOG][Proc: 0]p: init_precond: 0.286 [ms]
[OGL LOG][StoppingCriterion.H:237] Creating stopping criterion with minIter 886 frequency 9
[OGL LOG][Proc: 0]p: generate_solver: 0.001 [ms]
[OGL LOG][Proc: 0]p: solve: 2479.7 [ms]
[OGL LOG][Proc: 0]p: copy_x_back: 1.258 [ms]
[OGL LOG][lduLduBase.H:330] 
Statistics:
	Time per iteration: 1678 [mu s]
	Time per residual norm calculation: 223.000000 [mu s]
	Time per iteration and DOF: 0.209750 [ns]
	Retrieve results bandwidth 1.589000 [GByte/s]
[OGL LOG][Proc: 0]p: solve_multi_gpu: 2487.97 [ms]
BJhipGKOCG:  Solving for p, Initial residual = 0.308349, Final residual = 8.92262e-05, No Iterations 1477
[INFO] SolveP: 2504.05 [ms]
time step continuity errors : sum local = 4.41131e-09, global = -4.0777e-21, cumulative = -7.41123e-20
[INFO] ContinuityError: 6.536 [ms]
[INFO] CorrectBoundary: 0.266 [ms]
[INFO] PISOStep: 2623.56 [ms]
[INFO] TimeStep: 5808.08 [ms]
ExecutionTime = 79.86 s  ClockTime = 81 s

Time = 0.00375

Courant Number mean: 0.054538 max: 0.484612
[INFO] MatrixAssemblyU: 61.968 [ms]
DILUPBiCGStab:  Solving for Ux, Initial residual = 0.00650464, Final residual = 0.000127383, No Iterations 5
DILUPBiCGStab:  Solving for Uy, Initial residual = 0.0158807, Final residual = 0.000287394, No Iterations 5
DILUPBiCGStab:  Solving for Uz, Initial residual = 0.0598276, Final residual = 0.00283722, No Iterations 5
[INFO] MomentumPredictor: 453.773 [ms]
[INFO] MatrixAssemblyPI: 65.203 [ms]
[INFO] AdjustPhi: 4.933 [ms]
[INFO] ConstrainPressure: 0.003 [ms]
[INFO] MatrixAssemblyPII: 19.502 [ms]
[OGL LOG][Proc: 0]: global_index_init: 0.27 [ms]
[OGL LOG][Proc: 0]p_local_coeffs: call_update: 0 [ms]
[OGL LOG][Proc: 0]p_non_local_coeffs: call_update: 0 [ms]
[OGL LOG][Proc: 0]p: update_local_matrix_data: 14.581 [ms]
[OGL LOG][Proc: 0]p: update_non_local_matrix_data: 0.071 [ms]
[OGL LOG][Proc: 0]p_matrix: call_update: 0.585 [ms]
[OGL LOG][Proc: 0]p_rhs: call_update: 0.75 [ms]
[OGL LOG][Preconditioner.H:121] Generate preconditioner BJ MaxBlockSize 1
[OGL LOG][Proc: 0]p: init_precond: 0.278 [ms]
[OGL LOG][StoppingCriterion.H:237] Creating stopping criterion with minIter 886 frequency 9
[OGL LOG][Proc: 0]p: generate_solver: 0.002 [ms]
[OGL LOG][Proc: 0]p: solve: 2547.48 [ms]
[OGL LOG][Proc: 0]p: copy_x_back: 1.025 [ms]
[OGL LOG][lduLduBase.H:330] 
Statistics:
	Time per iteration: 1724 [mu s]
	Time per residual norm calculation: 223.000000 [mu s]
	Time per iteration and DOF: 0.215500 [ns]
	Retrieve results bandwidth 1.951000 [GByte/s]
[OGL LOG][Proc: 0]p: solve_multi_gpu: 2551.51 [ms]
BJhipGKOCG:  Solving for p, Initial residual = 0.315216, Final residual = 8.60492e-05, No Iterations 1477
[INFO] SolveP: 2568.67 [ms]
time step continuity errors : sum local = 4.0942e-09, global = -6.08913e-22, cumulative = -7.47213e-20
[INFO] ContinuityError: 8.673 [ms]
[INFO] CorrectBoundary: 0.245 [ms]
[INFO] PISOStep: 2690.6 [ms]
[INFO] MatrixAssemblyPI: 63.847 [ms]
[INFO] AdjustPhi: 5.139 [ms]
[INFO] ConstrainPressure: 0.003 [ms]
[INFO] MatrixAssemblyPII: 19.73 [ms]
[OGL LOG][Proc: 0]: global_index_init: 0.411 [ms]
[OGL LOG][Proc: 0]p_local_coeffs: call_update: 0 [ms]
[OGL LOG][Proc: 0]p_non_local_coeffs: call_update: 0 [ms]
[OGL LOG][Proc: 0]p: update_local_matrix_data: 14.491 [ms]
[OGL LOG][Proc: 0]p: update_non_local_matrix_data: 0.065 [ms]
[OGL LOG][Proc: 0]p_matrix: call_update: 0.521 [ms]
[OGL LOG][Proc: 0]p_rhs: call_update: 0.862 [ms]
[OGL LOG][Preconditioner.H:121] Generate preconditioner BJ MaxBlockSize 1
[OGL LOG][Proc: 0]p: init_precond: 0.273 [ms]
[OGL LOG][StoppingCriterion.H:237] Creating stopping criterion with minIter 886 frequency 9
[OGL LOG][Proc: 0]p: generate_solver: 0.003 [ms]
[OGL LOG][Proc: 0]p: solve: 2484.27 [ms]
[OGL LOG][Proc: 0]p: copy_x_back: 1.344 [ms]
[OGL LOG][lduLduBase.H:330] 
Statistics:
	Time per iteration: 1681 [mu s]
	Time per residual norm calculation: 228.000000 [mu s]
	Time per iteration and DOF: 0.210125 [ns]
	Retrieve results bandwidth 1.488000 [GByte/s]
[OGL LOG][Proc: 0]p: solve_multi_gpu: 2489.12 [ms]
BJhipGKOCG:  Solving for p, Initial residual = 0.277299, Final residual = 7.85664e-05, No Iterations 1477
[INFO] SolveP: 2506.17 [ms]
time step continuity errors : sum local = 3.74189e-09, global = -4.14036e-21, cumulative = -7.88616e-20
[INFO] ContinuityError: 5.798 [ms]
[INFO] CorrectBoundary: 0.236 [ms]
[INFO] PISOStep: 2628.04 [ms]
[INFO] TimeStep: 5841.8 [ms]
ExecutionTime = 85.66 s  ClockTime = 87 s

Time = 0.004

Courant Number mean: 0.0558523 max: 0.485076
[INFO] MatrixAssemblyU: 63.324 [ms]
DILUPBiCGStab:  Solving for Ux, Initial residual = 0.00598196, Final residual = 0.000111135, No Iterations 5
DILUPBiCGStab:  Solving for Uy, Initial residual = 0.0145694, Final residual = 0.00024369, No Iterations 5
DILUPBiCGStab:  Solving for Uz, Initial residual = 0.0527836, Final residual = 0.00249758, No Iterations 5
[INFO] MomentumPredictor: 464.492 [ms]
[INFO] MatrixAssemblyPI: 67.461 [ms]
[INFO] AdjustPhi: 3.058 [ms]
[INFO] ConstrainPressure: 0.003 [ms]
[INFO] MatrixAssemblyPII: 19.565 [ms]
[OGL LOG][Proc: 0]: global_index_init: 0.241 [ms]
[OGL LOG][Proc: 0]p_local_coeffs: call_update: 0 [ms]
[OGL LOG][Proc: 0]p_non_local_coeffs: call_update: 0 [ms]
[OGL LOG][Proc: 0]p: update_local_matrix_data: 14.649 [ms]
[OGL LOG][Proc: 0]p: update_non_local_matrix_data: 0.093 [ms]
[OGL LOG][Proc: 0]p_matrix: call_update: 0.735 [ms]
[OGL LOG][Proc: 0]p_rhs: call_update: 0.818 [ms]
[OGL LOG][Preconditioner.H:121] Generate preconditioner BJ MaxBlockSize 1
[OGL LOG][Proc: 0]p: init_precond: 0.289 [ms]
[OGL LOG][StoppingCriterion.H:237] Creating stopping criterion with minIter 886 frequency 9
[OGL LOG][Proc: 0]p: generate_solver: 0.001 [ms]
[OGL LOG][Proc: 0]p: solve: 2363.66 [ms]
[OGL LOG][Proc: 0]p: copy_x_back: 0.85 [ms]
[OGL LOG][lduLduBase.H:330] 
Statistics:
	Time per iteration: 1693 [mu s]
	Time per residual norm calculation: 225.000000 [mu s]
	Time per iteration and DOF: 0.211625 [ns]
	Retrieve results bandwidth 2.352000 [GByte/s]
[OGL LOG][Proc: 0]p: solve_multi_gpu: 2367.5 [ms]
BJhipGKOCG:  Solving for p, Initial residual = 0.284462, Final residual = 9.18921e-05, No Iterations 1396
[INFO] SolveP: 2385.86 [ms]
time step continuity errors : sum local = 4.21399e-09, global = -4.26557e-21, cumulative = -8.31272e-20
[INFO] ContinuityError: 9.205 [ms]
[INFO] CorrectBoundary: 0.524 [ms]
[INFO] PISOStep: 2508.76 [ms]
[INFO] MatrixAssemblyPI: 63.655 [ms]
[INFO] AdjustPhi: 4.636 [ms]
[INFO] ConstrainPressure: 0.006 [ms]
[INFO] MatrixAssemblyPII: 18.728 [ms]
[OGL LOG][Proc: 0]: global_index_init: 0.092 [ms]
[OGL LOG][Proc: 0]p_local_coeffs: call_update: 0 [ms]
[OGL LOG][Proc: 0]p_non_local_coeffs: call_update: 0 [ms]
[OGL LOG][Proc: 0]p: update_local_matrix_data: 14.692 [ms]
[OGL LOG][Proc: 0]p: update_non_local_matrix_data: 0.075 [ms]
[OGL LOG][Proc: 0]p_matrix: call_update: 0.53 [ms]
[OGL LOG][Proc: 0]p_rhs: call_update: 0.905 [ms]
[OGL LOG][Preconditioner.H:121] Generate preconditioner BJ MaxBlockSize 1
[OGL LOG][Proc: 0]p: init_precond: 0.288 [ms]
[OGL LOG][StoppingCriterion.H:237] Creating stopping criterion with minIter 837 frequency 8
[OGL LOG][Proc: 0]p: generate_solver: 0.003 [ms]
[OGL LOG][Proc: 0]p: solve: 1386.55 [ms]
[OGL LOG][Proc: 0]p: copy_x_back: 1.232 [ms]
[OGL LOG][lduLduBase.H:330] 
Statistics:
	Time per iteration: 1648 [mu s]
	Time per residual norm calculation: 227.000000 [mu s]
	Time per iteration and DOF: 0.206000 [ns]
	Retrieve results bandwidth 1.623000 [GByte/s]
[OGL LOG][Proc: 0]p: solve_multi_gpu: 1390.74 [ms]
BJhipGKOCG:  Solving for p, Initial residual = 0.25147, Final residual = 9.6017e-05, No Iterations 841
[INFO] SolveP: 1408.04 [ms]
time step continuity errors : sum local = 4.6288e-09, global = -5.83369e-21, cumulative = -8.89609e-20
[INFO] ContinuityError: 6.676 [ms]
[INFO] CorrectBoundary: 0.312 [ms]
[INFO] PISOStep: 1527.88 [ms]
[INFO] TimeStep: 4572.1 [ms]
ExecutionTime = 90.2 s  ClockTime = 91 s

Time = 0.00425

Courant Number mean: 0.0570919 max: 0.485433
[INFO] MatrixAssemblyU: 58.389 [ms]
DILUPBiCGStab:  Solving for Ux, Initial residual = 0.00552856, Final residual = 9.67918e-05, No Iterations 5
DILUPBiCGStab:  Solving for Uy, Initial residual = 0.0132839, Final residual = 0.000222523, No Iterations 5
DILUPBiCGStab:  Solving for Uz, Initial residual = 0.0469853, Final residual = 0.00228318, No Iterations 5
[INFO] MomentumPredictor: 472.719 [ms]
[INFO] MatrixAssemblyPI: 66.024 [ms]
[INFO] AdjustPhi: 5.026 [ms]
[INFO] ConstrainPressure: 0.004 [ms]
[INFO] MatrixAssemblyPII: 19.424 [ms]
[OGL LOG][Proc: 0]: global_index_init: 0.212 [ms]
[OGL LOG][Proc: 0]p_local_coeffs: call_update: 0 [ms]
[OGL LOG][Proc: 0]p_non_local_coeffs: call_update: 0 [ms]
[OGL LOG][Proc: 0]p: update_local_matrix_data: 15.66 [ms]
[OGL LOG][Proc: 0]p: update_non_local_matrix_data: 0.062 [ms]
[OGL LOG][Proc: 0]p_matrix: call_update: 0.572 [ms]
[OGL LOG][Proc: 0]p_rhs: call_update: 0.786 [ms]
[OGL LOG][Preconditioner.H:121] Generate preconditioner BJ MaxBlockSize 1
[OGL LOG][Proc: 0]p: init_precond: 0.289 [ms]
[OGL LOG][StoppingCriterion.H:237] Creating stopping criterion with minIter 504 frequency 6
[OGL LOG][Proc: 0]p: generate_solver: 0.003 [ms]
[OGL LOG][Proc: 0]p: solve: 2480.12 [ms]
[OGL LOG][Proc: 0]p: copy_x_back: 1.194 [ms]
[OGL LOG][lduLduBase.H:330] 
Statistics:
	Time per iteration: 1686 [mu s]
	Time per residual norm calculation: 216.000000 [mu s]
	Time per iteration and DOF: 0.210750 [ns]
	Retrieve results bandwidth 1.675000 [GByte/s]
[OGL LOG][Proc: 0]p: solve_multi_gpu: 2483.6 [ms]
BJhipGKOCG:  Solving for p, Initial residual = 0.253957, Final residual = 9.13275e-05, No Iterations 1471
[INFO] SolveP: 2502.02 [ms]
time step continuity errors : sum local = 4.09142e-09, global = -7.52134e-21, cumulative = -9.64822e-20
[INFO] ContinuityError: 6.273 [ms]
[INFO] CorrectBoundary: 0.256 [ms]
[INFO] PISOStep: 2623.54 [ms]
[INFO] MatrixAssemblyPI: 64.357 [ms]
[INFO] AdjustPhi: 7.113 [ms]
[INFO] ConstrainPressure: 0.004 [ms]
[INFO] MatrixAssemblyPII: 19.611 [ms]
[OGL LOG][Proc: 0]: global_index_init: 0.164 [ms]
[OGL LOG][Proc: 0]p_local_coeffs: call_update: 0 [ms]
[OGL LOG][Proc: 0]p_non_local_coeffs: call_update: 0 [ms]
[OGL LOG][Proc: 0]p: update_local_matrix_data: 13.756 [ms]
[OGL LOG][Proc: 0]p: update_non_local_matrix_data: 0.064 [ms]
[OGL LOG][Proc: 0]p_matrix: call_update: 0.533 [ms]
[OGL LOG][Proc: 0]p_rhs: call_update: 0.838 [ms]
[OGL LOG][Preconditioner.H:121] Generate preconditioner BJ MaxBlockSize 1
[OGL LOG][Proc: 0]p: init_precond: 0.283 [ms]
[OGL LOG][StoppingCriterion.H:237] Creating stopping criterion with minIter 882 frequency 9
[OGL LOG][Proc: 0]p: generate_solver: 0.001 [ms]
[OGL LOG][Proc: 0]p: solve: 2501.69 [ms]
[OGL LOG][Proc: 0]p: copy_x_back: 1.025 [ms]
[OGL LOG][lduLduBase.H:330] 
Statistics:
	Time per iteration: 1704 [mu s]
	Time per residual norm calculation: 224.000000 [mu s]
	Time per iteration and DOF: 0.213000 [ns]
	Retrieve results bandwidth 1.951000 [GByte/s]
[OGL LOG][Proc: 0]p: solve_multi_gpu: 2506.79 [ms]
BJhipGKOCG:  Solving for p, Initial residual = 0.222952, Final residual = 9.51645e-05, No Iterations 1468
[INFO] SolveP: 2523.55 [ms]
time step continuity errors : sum local = 4.26647e-09, global = -4.98395e-21, cumulative = -1.01466e-19
[INFO] ContinuityError: 7.882 [ms]
[INFO] CorrectBoundary: 0.487 [ms]
[INFO] PISOStep: 2646.05 [ms]
[INFO] TimeStep: 5808.14 [ms]
ExecutionTime = 95.97 s  ClockTime = 97 s

Time = 0.0045

Courant Number mean: 0.0582616 max: 0.485805
[INFO] MatrixAssemblyU: 60.589 [ms]
DILUPBiCGStab:  Solving for Ux, Initial residual = 0.00514325, Final residual = 8.57427e-05, No Iterations 5
DILUPBiCGStab:  Solving for Uy, Initial residual = 0.012305, Final residual = 0.000193036, No Iterations 5
DILUPBiCGStab:  Solving for Uz, Initial residual = 0.0418967, Final residual = 0.00197779, No Iterations 5
[INFO] MomentumPredictor: 480.752 [ms]
[INFO] MatrixAssemblyPI: 65.603 [ms]
[INFO] AdjustPhi: 9.107 [ms]
[INFO] ConstrainPressure: 0.004 [ms]
[INFO] MatrixAssemblyPII: 19.46 [ms]
[OGL LOG][Proc: 0]: global_index_init: 0.151 [ms]
[OGL LOG][Proc: 0]p_local_coeffs: call_update: 0 [ms]
[OGL LOG][Proc: 0]p_non_local_coeffs: call_update: 0 [ms]
[OGL LOG][Proc: 0]p: update_local_matrix_data: 14.182 [ms]
[OGL LOG][Proc: 0]p: update_non_local_matrix_data: 0.083 [ms]
[OGL LOG][Proc: 0]p_matrix: call_update: 0.585 [ms]
[OGL LOG][Proc: 0]p_rhs: call_update: 0.756 [ms]
[OGL LOG][Preconditioner.H:121] Generate preconditioner BJ MaxBlockSize 1
[OGL LOG][Proc: 0]p: init_precond: 0.291 [ms]
[OGL LOG][StoppingCriterion.H:237] Creating stopping criterion with minIter 880 frequency 9
[OGL LOG][Proc: 0]p: generate_solver: 0.001 [ms]
[OGL LOG][Proc: 0]p: solve: 2434.66 [ms]
[OGL LOG][Proc: 0]p: copy_x_back: 1.219 [ms]
[OGL LOG][lduLduBase.H:330] 
Statistics:
	Time per iteration: 1658 [mu s]
	Time per residual norm calculation: 231.000000 [mu s]
	Time per iteration and DOF: 0.207250 [ns]
	Retrieve results bandwidth 1.640000 [GByte/s]
[OGL LOG][Proc: 0]p: solve_multi_gpu: 2439.49 [ms]
BJhipGKOCG:  Solving for p, Initial residual = 0.230626, Final residual = 9.40487e-05, No Iterations 1468
[INFO] SolveP: 2456.58 [ms]
time step continuity errors : sum local = 4.06014e-09, global = -6.14085e-21, cumulative = -1.07607e-19
[INFO] ContinuityError: 7.153 [ms]
[INFO] CorrectBoundary: 0.418 [ms]
[INFO] PISOStep: 2582.04 [ms]
[INFO] MatrixAssemblyPI: 64.401 [ms]
[INFO] AdjustPhi: 3.461 [ms]
[INFO] ConstrainPressure: 0.004 [ms]
[INFO] MatrixAssemblyPII: 19.599 [ms]
[OGL LOG][Proc: 0]: global_index_init: 0.073 [ms]
[OGL LOG][Proc: 0]p_local_coeffs: call_update: 0 [ms]
[OGL LOG][Proc: 0]p_non_local_coeffs: call_update: 0 [ms]
[OGL LOG][Proc: 0]p: update_local_matrix_data: 13.787 [ms]
[OGL LOG][Proc: 0]p: update_non_local_matrix_data: 0.064 [ms]
[OGL LOG][Proc: 0]p_matrix: call_update: 0.581 [ms]
[OGL LOG][Proc: 0]p_rhs: call_update: 0.751 [ms]
[OGL LOG][Preconditioner.H:121] Generate preconditioner BJ MaxBlockSize 1
[OGL LOG][Proc: 0]p: init_precond: 0.299 [ms]
[OGL LOG][StoppingCriterion.H:237] Creating stopping criterion with minIter 880 frequency 9
[OGL LOG][Proc: 0]p: generate_solver: 0.002 [ms]
[OGL LOG][Proc: 0]p: solve: 2506.08 [ms]
[OGL LOG][Proc: 0]p: copy_x_back: 1.02 [ms]
[OGL LOG][lduLduBase.H:330] 
Statistics:
	Time per iteration: 1707 [mu s]
	Time per residual norm calculation: 226.000000 [mu s]
	Time per iteration and DOF: 0.213375 [ns]
	Retrieve results bandwidth 1.960000 [GByte/s]
[OGL LOG][Proc: 0]p: solve_multi_gpu: 2510.95 [ms]
BJhipGKOCG:  Solving for p, Initial residual = 0.203329, Final residual = 8.86926e-05, No Iterations 1468
[INFO] SolveP: 2528.61 [ms]
time step continuity errors : sum local = 3.81999e-09, global = -2.97987e-21, cumulative = -1.10587e-19
[INFO] ContinuityError: 7.013 [ms]
[INFO] CorrectBoundary: 0.873 [ms]
[INFO] PISOStep: 2647.21 [ms]
[INFO] TimeStep: 5777.9 [ms]
ExecutionTime = 101.71 s  ClockTime = 103 s

Time = 0.00475

Courant Number mean: 0.0593699 max: 0.486103
[INFO] MatrixAssemblyU: 59.144 [ms]
DILUPBiCGStab:  Solving for Ux, Initial residual = 0.00478908, Final residual = 7.55078e-05, No Iterations 5
DILUPBiCGStab:  Solving for Uy, Initial residual = 0.0113364, Final residual = 0.000180093, No Iterations 5
DILUPBiCGStab:  Solving for Uz, Initial residual = 0.0369464, Final residual = 0.00173012, No Iterations 5
[INFO] MomentumPredictor: 471.193 [ms]
[INFO] MatrixAssemblyPI: 64.969 [ms]
[INFO] AdjustPhi: 3.508 [ms]
[INFO] ConstrainPressure: 0.004 [ms]
[INFO] MatrixAssemblyPII: 19.413 [ms]
[OGL LOG][Proc: 0]: global_index_init: 0.308 [ms]
[OGL LOG][Proc: 0]p_local_coeffs: call_update: 0 [ms]
[OGL LOG][Proc: 0]p_non_local_coeffs: call_update: 0 [ms]
[OGL LOG][Proc: 0]p: update_local_matrix_data: 13.877 [ms]
[OGL LOG][Proc: 0]p: update_non_local_matrix_data: 0.059 [ms]
[OGL LOG][Proc: 0]p_matrix: call_update: 0.584 [ms]
[OGL LOG][Proc: 0]p_rhs: call_update: 0.785 [ms]
[OGL LOG][Preconditioner.H:121] Generate preconditioner BJ MaxBlockSize 1
[OGL LOG][Proc: 0]p: init_precond: 0.276 [ms]
[OGL LOG][StoppingCriterion.H:237] Creating stopping criterion with minIter 880 frequency 9
[OGL LOG][Proc: 0]p: generate_solver: 0.001 [ms]
[OGL LOG][Proc: 0]p: solve: 2454.03 [ms]
[OGL LOG][Proc: 0]p: copy_x_back: 1.043 [ms]
[OGL LOG][lduLduBase.H:330] 
Statistics:
	Time per iteration: 1671 [mu s]
	Time per residual norm calculation: 222.000000 [mu s]
	Time per iteration and DOF: 0.208875 [ns]
	Retrieve results bandwidth 1.917000 [GByte/s]
[OGL LOG][Proc: 0]p: solve_multi_gpu: 2458.75 [ms]
BJhipGKOCG:  Solving for p, Initial residual = 0.204234, Final residual = 7.88168e-05, No Iterations 1468
[INFO] SolveP: 2475.35 [ms]
time step continuity errors : sum local = 3.36549e-09, global = -2.37421e-21, cumulative = -1.12961e-19
[INFO] ContinuityError: 7.127 [ms]
[INFO] CorrectBoundary: 0.251 [ms]
[INFO] PISOStep: 2595.08 [ms]
[INFO] MatrixAssemblyPI: 64.295 [ms]
[INFO] AdjustPhi: 3.412 [ms]
[INFO] ConstrainPressure: 0.004 [ms]
[INFO] MatrixAssemblyPII: 19.877 [ms]
[OGL LOG][Proc: 0]: global_index_init: 0.189 [ms]
[OGL LOG][Proc: 0]p_local_coeffs: call_update: 0 [ms]
[OGL LOG][Proc: 0]p_non_local_coeffs: call_update: 0 [ms]
[OGL LOG][Proc: 0]p: update_local_matrix_data: 13.057 [ms]
[OGL LOG][Proc: 0]p: update_non_local_matrix_data: 0.073 [ms]
[OGL LOG][Proc: 0]p_matrix: call_update: 0.591 [ms]
[OGL LOG][Proc: 0]p_rhs: call_update: 0.772 [ms]
[OGL LOG][Preconditioner.H:121] Generate preconditioner BJ MaxBlockSize 1
[OGL LOG][Proc: 0]p: init_precond: 0.279 [ms]
[OGL LOG][StoppingCriterion.H:237] Creating stopping criterion with minIter 880 frequency 9
[OGL LOG][Proc: 0]p: generate_solver: 0.002 [ms]
[OGL LOG][Proc: 0]p: solve: 2510.49 [ms]
[OGL LOG][Proc: 0]p: copy_x_back: 1.033 [ms]
[OGL LOG][lduLduBase.H:330] 
Statistics:
	Time per iteration: 1710 [mu s]
	Time per residual norm calculation: 221.000000 [mu s]
	Time per iteration and DOF: 0.213750 [ns]
	Retrieve results bandwidth 1.936000 [GByte/s]
[OGL LOG][Proc: 0]p: solve_multi_gpu: 2515.96 [ms]
BJhipGKOCG:  Solving for p, Initial residual = 0.179031, Final residual = 7.35689e-05, No Iterations 1468
[INFO] SolveP: 2531.34 [ms]
time step continuity errors : sum local = 3.14254e-09, global = -6.05479e-21, cumulative = -1.19016e-19
[INFO] ContinuityError: 9.59 [ms]
[INFO] CorrectBoundary: 0.464 [ms]
[INFO] PISOStep: 2651.51 [ms]
[INFO] TimeStep: 5784.4 [ms]
ExecutionTime = 107.46 s  ClockTime = 109 s

Time = 0.005

Courant Number mean: 0.060421 max: 0.486409
[INFO] MatrixAssemblyU: 67.752 [ms]
DILUPBiCGStab:  Solving for Ux, Initial residual = 0.00448555, Final residual = 6.78175e-05, No Iterations 5
DILUPBiCGStab:  Solving for Uy, Initial residual = 0.0105931, Final residual = 0.000158824, No Iterations 5
DILUPBiCGStab:  Solving for Uz, Initial residual = 0.0335503, Final residual = 0.00151452, No Iterations 5
[INFO] MomentumPredictor: 448.54 [ms]
[INFO] MatrixAssemblyPI: 66.888 [ms]
[INFO] AdjustPhi: 3.184 [ms]
[INFO] ConstrainPressure: 0.003 [ms]
[INFO] MatrixAssemblyPII: 19.559 [ms]
[OGL LOG][Proc: 0]: global_index_init: 0.046 [ms]
[OGL LOG][Proc: 0]p_local_coeffs: call_update: 0 [ms]
[OGL LOG][Proc: 0]p_non_local_coeffs: call_update: 0 [ms]
[OGL LOG][Proc: 0]p: update_local_matrix_data: 13.847 [ms]
[OGL LOG][Proc: 0]p: update_non_local_matrix_data: 0.091 [ms]
[OGL LOG][Proc: 0]p_matrix: call_update: 0.634 [ms]
[OGL LOG][Proc: 0]p_rhs: call_update: 0.707 [ms]
[OGL LOG][Preconditioner.H:121] Generate preconditioner BJ MaxBlockSize 1
[OGL LOG][Proc: 0]p: init_precond: 0.28 [ms]
[OGL LOG][StoppingCriterion.H:237] Creating stopping criterion with minIter 880 frequency 9
[OGL LOG][Proc: 0]p: generate_solver: 0.001 [ms]
[OGL LOG][Proc: 0]p: solve: 2434 [ms]
[OGL LOG][Proc: 0]p: copy_x_back: 1.243 [ms]
[OGL LOG][lduLduBase.H:330] 
Statistics:
	Time per iteration: 1668 [mu s]
	Time per residual norm calculation: 229.000000 [mu s]
	Time per iteration and DOF: 0.208500 [ns]
	Retrieve results bandwidth 1.609000 [GByte/s]
[OGL LOG][Proc: 0]p: solve_multi_gpu: 2439.33 [ms]
BJhipGKOCG:  Solving for p, Initial residual = 0.185653, Final residual = 9.96772e-05, No Iterations 1459
[INFO] SolveP: 2456.08 [ms]
time step continuity errors : sum local = 4.11195e-09, global = -3.92922e-21, cumulative = -1.22945e-19
[INFO] ContinuityError: 7.486 [ms]
[INFO] CorrectBoundary: 0.201 [ms]
[INFO] PISOStep: 2577.2 [ms]
[INFO] MatrixAssemblyPI: 64.25 [ms]
[INFO] AdjustPhi: 7.183 [ms]
[INFO] ConstrainPressure: 0.004 [ms]
[INFO] MatrixAssemblyPII: 19.377 [ms]
[OGL LOG][Proc: 0]: global_index_init: 0.218 [ms]
[OGL LOG][Proc: 0]p_local_coeffs: call_update: 0 [ms]
[OGL LOG][Proc: 0]p_non_local_coeffs: call_update: 0 [ms]
[OGL LOG][Proc: 0]p: update_local_matrix_data: 14.648 [ms]
[OGL LOG][Proc: 0]p: update_non_local_matrix_data: 0.073 [ms]
[OGL LOG][Proc: 0]p_matrix: call_update: 0.565 [ms]
[OGL LOG][Proc: 0]p_rhs: call_update: 0.989 [ms]
[OGL LOG][Preconditioner.H:121] Generate preconditioner BJ MaxBlockSize 1
[OGL LOG][Proc: 0]p: init_precond: 0.281 [ms]
[OGL LOG][StoppingCriterion.H:237] Creating stopping criterion with minIter 875 frequency 9
[OGL LOG][Proc: 0]p: generate_solver: 0.001 [ms]
[OGL LOG][Proc: 0]p: solve: 2514.61 [ms]
[OGL LOG][Proc: 0]p: copy_x_back: 0.99 [ms]
[OGL LOG][lduLduBase.H:330] 
Statistics:
	Time per iteration: 1723 [mu s]
	Time per residual norm calculation: 220.000000 [mu s]
	Time per iteration and DOF: 0.215375 [ns]
	Retrieve results bandwidth 2.020000 [GByte/s]
[OGL LOG][Proc: 0]p: solve_multi_gpu: 2519.01 [ms]
BJhipGKOCG:  Solving for p, Initial residual = 0.163349, Final residual = 9.18813e-05, No Iterations 1459
[INFO] SolveP: 2536.68 [ms]
time step continuity errors : sum local = 3.78396e-09, global = -7.22058e-21, cumulative = -1.30166e-19
[INFO] ContinuityError: 7.246 [ms]
[INFO] CorrectBoundary: 0.87 [ms]
[INFO] PISOStep: 2659.98 [ms]
[INFO] TimeStep: 5761.04 [ms]
ExecutionTime = 113.17 s  ClockTime = 114 s

End

Finalising parallel run
