/*---------------------------------------------------------------------------*\
| =========                 |                                                 |
| \\      /  F ield         | OpenFOAM: The Open Source CFD Toolbox           |
|  \\    /   O peration     | Version:  2306                                  |
|   \\  /    A nd           | Website:  www.openfoam.com                      |
|    \\/     M anipulation  |                                                 |
\*---------------------------------------------------------------------------*/
Build  : c423ebec-20231012 OPENFOAM=2306 version=v2306
Arch   : "LSB;label=32;scalar=64"
Exec   : decomposePar -force
Date   : Feb 16 2024
Time   : 09:05:05
Host   : hkn0248.localdomain
PID    : 634692
--> FOAM Warning : 
    From Foam::fileName Foam::cwd_L()
    in file POSIX.C at line 552
    PWD is not the cwd() - reverting to physical description
I/O    : uncollated
--> FOAM Warning : 
    From Foam::fileName Foam::cwd_L()
    in file POSIX.C at line 552
    PWD is not the cwd() - reverting to physical description
Case   : /hkfs/work/workspace/scratch/eq4036-windsorbody_setup/workspace/ee8d814cfe0fb8cbe30e3535dc261691/case
nProcs : 1
trapFpe: Floating point exception trapping enabled (FOAM_SIGFPE).
fileModificationChecking : Monitoring run-time modified files using timeStampMaster (fileModificationSkew 5, maxFileModificationPolls 20)
allowSystemOperations : Allowing user-supplied system call operations

// * * * * * * * * * * * * * * * * * * * * * * * * * * * * * * * * * * * * * //
Create time

--> FOAM Warning : 
    From void* Foam::dlLibraryTable::openLibrary(const Foam::fileName&, bool)
    in file db/dynamicLibrary/dlLibraryTable/dlLibraryTable.C at line 188
    Could not load "libpetscFoam.so"
libpetscFoam.so: cannot open shared object file: No such file or directory


Decomposing mesh

Create mesh

Calculating distribution of cells
Decomposition method simple [152] (region region0)

Finished decomposition in 16.86 s

Calculating original mesh data

Distributing cells to processors

Distributing faces to processors

Distributing points to processors

Constructing processor meshes

Processor 0
    Number of cells = 57429
    Number of points = 98421
    Number of faces shared with processor 1 = 136
    Number of faces shared with processor 4 = 197
    Number of faces shared with processor 8 = 42473
    Number of faces shared with processor 9 = 2
    Number of processor patches = 4
    Number of processor faces = 42808
    Number of boundary faces = 40569

Processor 1
    Number of cells = 10835
    Number of points = 21945
    Number of faces shared with processor 0 = 136
    Number of faces shared with processor 2 = 59
    Number of faces shared with processor 5 = 11
    Number of faces shared with processor 9 = 11052
    Number of faces shared with processor 10 = 1
    Number of processor patches = 5
    Number of processor faces = 11259
    Number of boundary faces = 10829

Processor 2
    Number of cells = 1442
    Number of points = 3054
    Number of faces shared with processor 1 = 59
    Number of faces shared with processor 3 = 8
    Number of faces shared with processor 6 = 8
    Number of faces shared with processor 10 = 1625
    Number of processor patches = 4
    Number of processor faces = 1700
    Number of boundary faces = 1442

Processor 3
    Number of cells = 43
    Number of points = 130
    Number of faces shared with processor 2 = 8
    Number of faces shared with processor 7 = 7
    Number of faces shared with processor 11 = 63
    Number of processor patches = 3
    Number of processor faces = 78
    Number of boundary faces = 43

Processor 4
    Number of cells = 467607
    Number of points = 555863
    Number of faces shared with processor 0 = 197
    Number of faces shared with processor 5 = 1890
    Number of faces shared with processor 8 = 2
    Number of faces shared with processor 12 = 94552
    Number of faces shared with processor 13 = 1
    Number of faces shared with processor 20 = 37
    Number of processor patches = 6
    Number of processor faces = 96679
    Number of boundary faces = 89238

Processor 5
    Number of cells = 232333
    Number of points = 282338
    Number of faces shared with processor 1 = 11
    Number of faces shared with processor 4 = 1890
    Number of faces shared with processor 6 = 1780
    Number of faces shared with processor 9 = 1
    Number of faces shared with processor 13 = 50328
    Number of faces shared with processor 14 = 2
    Number of processor patches = 6
    Number of processor faces = 54012
    Number of boundary faces = 48764

Processor 6
    Number of cells = 207120
    Number of points = 255968
    Number of faces shared with processor 2 = 8
    Number of faces shared with processor 5 = 1780
    Number of faces shared with processor 7 = 1624
    Number of faces shared with processor 13 = 1
    Number of faces shared with processor 14 = 49288
    Number of faces shared with processor 15 = 4
    Number of processor patches = 6
    Number of processor faces = 52705
    Number of boundary faces = 47774

Processor 7
    Number of cells = 351010
    Number of points = 447857
    Number of faces shared with processor 3 = 7
    Number of faces shared with processor 6 = 1624
    Number of faces shared with processor 11 = 1
    Number of faces shared with processor 14 = 1
    Number of faces shared with processor 15 = 102201
    Number of processor patches = 5
    Number of processor faces = 103834
    Number of boundary faces = 99310

Processor 8
    Number of cells = 238289
    Number of points = 328258
    Number of faces shared with processor 0 = 42473
    Number of faces shared with processor 4 = 2
    Number of faces shared with processor 9 = 986
    Number of faces shared with processor 12 = 112
    Number of faces shared with processor 16 = 93743
    Number of faces shared with processor 17 = 8
    Number of processor patches = 6
    Number of processor faces = 137324
    Number of boundary faces = 47895

Processor 9
    Number of cells = 117351
    Number of points = 164581
    Number of faces shared with processor 0 = 2
    Number of faces shared with processor 1 = 11052
    Number of faces shared with processor 5 = 1
    Number of faces shared with processor 8 = 986
    Number of faces shared with processor 10 = 864
    Number of faces shared with processor 13 = 15
    Number of faces shared with processor 16 = 1
    Number of faces shared with processor 17 = 47553
    Number of faces shared with processor 18 = 3
    Number of processor patches = 9
    Number of processor faces = 60477
    Number of boundary faces = 35391

Processor 10
    Number of cells = 99045
    Number of points = 136046
    Number of faces shared with processor 1 = 1
    Number of faces shared with processor 2 = 1625
    Number of faces shared with processor 9 = 864
    Number of faces shared with processor 11 = 746
    Number of faces shared with processor 14 = 16
    Number of faces shared with processor 17 = 1
    Number of faces shared with processor 18 = 37121
    Number of faces shared with processor 19 = 1
    Number of processor patches = 8
    Number of processor faces = 40375
    Number of boundary faces = 34897

Processor 11
    Number of cells = 143540
    Number of points = 195082
    Number of faces shared with processor 3 = 63
    Number of faces shared with processor 7 = 1
    Number of faces shared with processor 10 = 746
    Number of faces shared with processor 15 = 112
    Number of faces shared with processor 19 = 53881
    Number of processor patches = 5
    Number of processor faces = 54803
    Number of boundary faces = 52187

Processor 12
    Number of cells = 197093
    Number of points = 289733
    Number of faces shared with processor 4 = 94552
    Number of faces shared with processor 8 = 112
    Number of faces shared with processor 13 = 927
    Number of faces shared with processor 16 = 1
    Number of faces shared with processor 20 = 93296
    Number of faces shared with processor 21 = 1
    Number of faces shared with processor 28 = 1315
    Number of processor patches = 7
    Number of processor faces = 190204
    Number of boundary faces = 570

Processor 13
    Number of cells = 128767
    Number of points = 179971
    Number of faces shared with processor 4 = 1
    Number of faces shared with processor 5 = 50328
    Number of faces shared with processor 6 = 1
    Number of faces shared with processor 9 = 15
    Number of faces shared with processor 12 = 927
    Number of faces shared with processor 14 = 1051
    Number of faces shared with processor 17 = 1
    Number of faces shared with processor 21 = 50985
    Number of faces shared with processor 22 = 1
    Number of faces shared with processor 29 = 15
    Number of processor patches = 10
    Number of processor faces = 103325
    Number of boundary faces = 12

Processor 14
    Number of cells = 127482
    Number of points = 177646
    Number of faces shared with processor 5 = 2
    Number of faces shared with processor 6 = 49288
    Number of faces shared with processor 7 = 1
    Number of faces shared with processor 10 = 16
    Number of faces shared with processor 13 = 1051
    Number of faces shared with processor 15 = 1059
    Number of faces shared with processor 21 = 2
    Number of faces shared with processor 22 = 50190
    Number of faces shared with processor 23 = 5
    Number of faces shared with processor 30 = 5
    Number of processor patches = 10
    Number of processor faces = 101619
    Number of boundary faces = 8

Processor 15
    Number of cells = 276252
    Number of points = 377336
    Number of faces shared with processor 6 = 4
    Number of faces shared with processor 7 = 102201
    Number of faces shared with processor 11 = 112
    Number of faces shared with processor 14 = 1059
    Number of faces shared with processor 19 = 2
    Number of faces shared with processor 22 = 1
    Number of faces shared with processor 23 = 104899
    Number of faces shared with processor 31 = 15
    Number of processor patches = 8
    Number of processor faces = 208293
    Number of boundary faces = 1035

Processor 16
    Number of cells = 248881
    Number of points = 341924
    Number of faces shared with processor 8 = 93743
    Number of faces shared with processor 9 = 1
    Number of faces shared with processor 12 = 1
    Number of faces shared with processor 17 = 1132
    Number of faces shared with processor 20 = 74
    Number of faces shared with processor 24 = 94899
    Number of faces shared with processor 25 = 5
    Number of processor patches = 7
    Number of processor faces = 189855
    Number of boundary faces = 1063

Processor 17
    Number of cells = 147419
    Number of points = 198226
    Number of faces shared with processor 8 = 8
    Number of faces shared with processor 9 = 47553
    Number of faces shared with processor 10 = 1
    Number of faces shared with processor 13 = 1
    Number of faces shared with processor 16 = 1132
    Number of faces shared with processor 18 = 1243
    Number of faces shared with processor 21 = 17
    Number of faces shared with processor 25 = 50542
    Number of faces shared with processor 26 = 3
    Number of processor patches = 9
    Number of processor faces = 100500
    Number of boundary faces = 2445

Processor 18
    Number of cells = 152796
    Number of points = 202304
    Number of faces shared with processor 9 = 3
    Number of faces shared with processor 10 = 37121
    Number of faces shared with processor 17 = 1243
    Number of faces shared with processor 19 = 1243
    Number of faces shared with processor 22 = 14
    Number of faces shared with processor 25 = 4
    Number of faces shared with processor 26 = 49545
    Number of faces shared with processor 27 = 2
    Number of processor patches = 8
    Number of processor faces = 89175
    Number of boundary faces = 11453

Processor 19
    Number of cells = 304951
    Number of points = 403823
    Number of faces shared with processor 10 = 1
    Number of faces shared with processor 11 = 53881
    Number of faces shared with processor 15 = 2
    Number of faces shared with processor 18 = 1243
    Number of faces shared with processor 23 = 88
    Number of faces shared with processor 27 = 103378
    Number of processor patches = 6
    Number of processor faces = 158593
    Number of boundary faces = 47377

Processor 20
    Number of cells = 117741
    Number of points = 209265
    Number of faces shared with processor 4 = 37
    Number of faces shared with processor 12 = 93296
    Number of faces shared with processor 16 = 74
    Number of faces shared with processor 21 = 551
    Number of faces shared with processor 24 = 1
    Number of faces shared with processor 28 = 92367
    Number of faces shared with processor 29 = 4
    Number of processor patches = 7
    Number of processor faces = 186330
    Number of boundary faces = 557

Processor 21
    Number of cells = 74406
    Number of points = 125560
    Number of faces shared with processor 12 = 1
    Number of faces shared with processor 13 = 50985
    Number of faces shared with processor 14 = 2
    Number of faces shared with processor 17 = 17
    Number of faces shared with processor 20 = 551
    Number of faces shared with processor 22 = 681
    Number of faces shared with processor 29 = 50985
    Number of faces shared with processor 30 = 2
    Number of processor patches = 8
    Number of processor faces = 103224
    Number of boundary faces = 8

Processor 22
    Number of cells = 90049
    Number of points = 140432
    Number of faces shared with processor 13 = 1
    Number of faces shared with processor 14 = 50190
    Number of faces shared with processor 15 = 1
    Number of faces shared with processor 18 = 14
    Number of faces shared with processor 21 = 681
    Number of faces shared with processor 23 = 801
    Number of faces shared with processor 26 = 1
    Number of faces shared with processor 29 = 1
    Number of faces shared with processor 30 = 50083
    Number of faces shared with processor 31 = 6
    Number of processor patches = 10
    Number of processor faces = 101779
    Number of boundary faces = 8

Processor 23
    Number of cells = 191575
    Number of points = 295140
    Number of faces shared with processor 14 = 5
    Number of faces shared with processor 15 = 104899
    Number of faces shared with processor 19 = 88
    Number of faces shared with processor 22 = 801
    Number of faces shared with processor 27 = 1
    Number of faces shared with processor 30 = 2
    Number of faces shared with processor 31 = 106455
    Number of processor patches = 7
    Number of processor faces = 212251
    Number of boundary faces = 136

Processor 24
    Number of cells = 233578
    Number of points = 325217
    Number of faces shared with processor 16 = 94899
    Number of faces shared with processor 20 = 1
    Number of faces shared with processor 25 = 1144
    Number of faces shared with processor 28 = 91
    Number of faces shared with processor 32 = 93809
    Number of faces shared with processor 33 = 6
    Number of processor patches = 6
    Number of processor faces = 189950
    Number of boundary faces = 904

Processor 25
    Number of cells = 156116
    Number of points = 207451
    Number of faces shared with processor 16 = 5
    Number of faces shared with processor 17 = 50542
    Number of faces shared with processor 18 = 4
    Number of faces shared with processor 24 = 1144
    Number of faces shared with processor 26 = 1313
    Number of faces shared with processor 29 = 9
    Number of faces shared with processor 33 = 51064
    Number of faces shared with processor 34 = 3
    Number of processor patches = 8
    Number of processor faces = 104084
    Number of boundary faces = 24

Processor 26
    Number of cells = 159011
    Number of points = 209473
    Number of faces shared with processor 17 = 3
    Number of faces shared with processor 18 = 49545
    Number of faces shared with processor 22 = 1
    Number of faces shared with processor 25 = 1313
    Number of faces shared with processor 27 = 1315
    Number of faces shared with processor 30 = 9
    Number of faces shared with processor 33 = 3
    Number of faces shared with processor 34 = 50483
    Number of faces shared with processor 35 = 7
    Number of processor patches = 9
    Number of processor faces = 102679
    Number of boundary faces = 16

Processor 27
    Number of cells = 332715
    Number of points = 434231
    Number of faces shared with processor 18 = 2
    Number of faces shared with processor 19 = 103378
    Number of faces shared with processor 23 = 1
    Number of faces shared with processor 26 = 1315
    Number of faces shared with processor 31 = 102
    Number of faces shared with processor 34 = 1
    Number of faces shared with processor 35 = 105733
    Number of processor patches = 7
    Number of processor faces = 210532
    Number of boundary faces = 529

Processor 28
    Number of cells = 158111
    Number of points = 250461
    Number of faces shared with processor 12 = 1315
    Number of faces shared with processor 20 = 92367
    Number of faces shared with processor 24 = 91
    Number of faces shared with processor 29 = 635
    Number of faces shared with processor 32 = 1
    Number of faces shared with processor 36 = 92025
    Number of faces shared with processor 37 = 1
    Number of processor patches = 7
    Number of processor faces = 186435
    Number of boundary faces = 753

Processor 29
    Number of cells = 76266
    Number of points = 127125
    Number of faces shared with processor 13 = 15
    Number of faces shared with processor 20 = 4
    Number of faces shared with processor 21 = 50985
    Number of faces shared with processor 22 = 1
    Number of faces shared with processor 25 = 9
    Number of faces shared with processor 28 = 635
    Number of faces shared with processor 30 = 567
    Number of faces shared with processor 37 = 50469
    Number of faces shared with processor 38 = 2
    Number of processor patches = 9
    Number of processor faces = 102687
    Number of boundary faces = 10

Processor 30
    Number of cells = 61812
    Number of points = 111507
    Number of faces shared with processor 14 = 5
    Number of faces shared with processor 21 = 2
    Number of faces shared with processor 22 = 50083
    Number of faces shared with processor 23 = 2
    Number of faces shared with processor 26 = 9
    Number of faces shared with processor 29 = 567
    Number of faces shared with processor 31 = 542
    Number of faces shared with processor 37 = 1
    Number of faces shared with processor 38 = 49257
    Number of faces shared with processor 39 = 5
    Number of processor patches = 10
    Number of processor faces = 100473
    Number of boundary faces = 8

Processor 31
    Number of cells = 150209
    Number of points = 252313
    Number of faces shared with processor 15 = 15
    Number of faces shared with processor 22 = 6
    Number of faces shared with processor 23 = 106455
    Number of faces shared with processor 27 = 102
    Number of faces shared with processor 30 = 542
    Number of faces shared with processor 35 = 1
    Number of faces shared with processor 38 = 2
    Number of faces shared with processor 39 = 103674
    Number of processor patches = 8
    Number of processor faces = 210797
    Number of boundary faces = 152

Processor 32
    Number of cells = 201256
    Number of points = 293016
    Number of faces shared with processor 24 = 93809
    Number of faces shared with processor 28 = 1
    Number of faces shared with processor 33 = 834
    Number of faces shared with processor 36 = 89
    Number of faces shared with processor 40 = 91033
    Number of faces shared with processor 41 = 6
    Number of processor patches = 6
    Number of processor faces = 185772
    Number of boundary faces = 1231

Processor 33
    Number of cells = 101576
    Number of points = 151921
    Number of faces shared with processor 24 = 6
    Number of faces shared with processor 25 = 51064
    Number of faces shared with processor 26 = 3
    Number of faces shared with processor 32 = 834
    Number of faces shared with processor 34 = 900
    Number of faces shared with processor 37 = 18
    Number of faces shared with processor 40 = 1
    Number of faces shared with processor 41 = 49336
    Number of faces shared with processor 42 = 2
    Number of processor patches = 9
    Number of processor faces = 102164
    Number of boundary faces = 21

Processor 34
    Number of cells = 110179
    Number of points = 159795
    Number of faces shared with processor 25 = 3
    Number of faces shared with processor 26 = 50483
    Number of faces shared with processor 27 = 1
    Number of faces shared with processor 33 = 900
    Number of faces shared with processor 35 = 1027
    Number of faces shared with processor 38 = 16
    Number of faces shared with processor 41 = 3
    Number of faces shared with processor 42 = 48523
    Number of faces shared with processor 43 = 2
    Number of processor patches = 9
    Number of processor faces = 100958
    Number of boundary faces = 24

Processor 35
    Number of cells = 274962
    Number of points = 375779
    Number of faces shared with processor 26 = 7
    Number of faces shared with processor 27 = 105733
    Number of faces shared with processor 31 = 1
    Number of faces shared with processor 34 = 1027
    Number of faces shared with processor 39 = 97
    Number of faces shared with processor 42 = 1
    Number of faces shared with processor 43 = 102759
    Number of processor patches = 7
    Number of processor faces = 209625
    Number of boundary faces = 268

Processor 36
    Number of cells = 181220
    Number of points = 272931
    Number of faces shared with processor 28 = 92025
    Number of faces shared with processor 32 = 89
    Number of faces shared with processor 37 = 841
    Number of faces shared with processor 44 = 86195
    Number of faces shared with processor 45 = 2
    Number of faces shared with processor 60 = 2521
    Number of processor patches = 6
    Number of processor faces = 181673
    Number of boundary faces = 1171

Processor 37
    Number of cells = 114251
    Number of points = 165199
    Number of faces shared with processor 28 = 1
    Number of faces shared with processor 29 = 50469
    Number of faces shared with processor 30 = 1
    Number of faces shared with processor 33 = 18
    Number of faces shared with processor 36 = 841
    Number of faces shared with processor 38 = 971
    Number of faces shared with processor 45 = 48902
    Number of faces shared with processor 46 = 3
    Number of faces shared with processor 61 = 135
    Number of processor patches = 9
    Number of processor faces = 101341
    Number of boundary faces = 19

Processor 38
    Number of cells = 119935
    Number of points = 169865
    Number of faces shared with processor 29 = 2
    Number of faces shared with processor 30 = 49257
    Number of faces shared with processor 31 = 2
    Number of faces shared with processor 34 = 16
    Number of faces shared with processor 37 = 971
    Number of faces shared with processor 39 = 978
    Number of faces shared with processor 45 = 1
    Number of faces shared with processor 46 = 48210
    Number of faces shared with processor 47 = 3
    Number of faces shared with processor 62 = 135
    Number of processor patches = 10
    Number of processor faces = 99575
    Number of boundary faces = 17

Processor 39
    Number of cells = 224439
    Number of points = 326313
    Number of faces shared with processor 30 = 5
    Number of faces shared with processor 31 = 103674
    Number of faces shared with processor 35 = 97
    Number of faces shared with processor 38 = 978
    Number of faces shared with processor 43 = 1
    Number of faces shared with processor 47 = 101552
    Number of faces shared with processor 63 = 79
    Number of processor patches = 7
    Number of processor faces = 206386
    Number of boundary faces = 157

Processor 40
    Number of cells = 221147
    Number of points = 313450
    Number of faces shared with processor 32 = 91033
    Number of faces shared with processor 33 = 1
    Number of faces shared with processor 41 = 1018
    Number of faces shared with processor 44 = 71
    Number of faces shared with processor 48 = 86356
    Number of faces shared with processor 49 = 4
    Number of faces shared with processor 56 = 1715
    Number of faces shared with processor 64 = 2307
    Number of processor patches = 8
    Number of processor faces = 182505
    Number of boundary faces = 1178

Processor 41
    Number of cells = 115391
    Number of points = 166266
    Number of faces shared with processor 32 = 6
    Number of faces shared with processor 33 = 49336
    Number of faces shared with processor 34 = 3
    Number of faces shared with processor 40 = 1018
    Number of faces shared with processor 42 = 862
    Number of faces shared with processor 45 = 9
    Number of faces shared with processor 48 = 1
    Number of faces shared with processor 49 = 48940
    Number of faces shared with processor 50 = 3
    Number of faces shared with processor 57 = 378
    Number of faces shared with processor 65 = 27
    Number of processor patches = 11
    Number of processor faces = 100583
    Number of boundary faces = 9

Processor 42
    Number of cells = 98651
    Number of points = 148177
    Number of faces shared with processor 33 = 2
    Number of faces shared with processor 34 = 48523
    Number of faces shared with processor 35 = 1
    Number of faces shared with processor 41 = 862
    Number of faces shared with processor 43 = 776
    Number of faces shared with processor 46 = 8
    Number of faces shared with processor 49 = 2
    Number of faces shared with processor 50 = 47580
    Number of faces shared with processor 51 = 1
    Number of faces shared with processor 58 = 336
    Number of faces shared with processor 66 = 24
    Number of processor patches = 11
    Number of processor faces = 98115
    Number of boundary faces = 8

Processor 43
    Number of cells = 191135
    Number of points = 292539
    Number of faces shared with processor 34 = 2
    Number of faces shared with processor 35 = 102759
    Number of faces shared with processor 39 = 1
    Number of faces shared with processor 42 = 776
    Number of faces shared with processor 47 = 88
    Number of faces shared with processor 50 = 2
    Number of faces shared with processor 51 = 99030
    Number of faces shared with processor 59 = 573
    Number of faces shared with processor 67 = 226
    Number of processor patches = 9
    Number of processor faces = 203457
    Number of boundary faces = 182

Processor 44
    Number of cells = 268850
    Number of points = 359921
    Number of faces shared with processor 36 = 86195
    Number of faces shared with processor 40 = 71
    Number of faces shared with processor 45 = 1179
    Number of faces shared with processor 52 = 90333
    Number of faces shared with processor 60 = 2488
    Number of faces shared with processor 68 = 113
    Number of processor patches = 6
    Number of processor faces = 180379
    Number of boundary faces = 1157

Processor 45
    Number of cells = 103583
    Number of points = 154760
    Number of faces shared with processor 36 = 2
    Number of faces shared with processor 37 = 48902
    Number of faces shared with processor 38 = 1
    Number of faces shared with processor 41 = 9
    Number of faces shared with processor 44 = 1179
    Number of faces shared with processor 46 = 738
    Number of faces shared with processor 53 = 49092
    Number of faces shared with processor 54 = 1
    Number of faces shared with processor 61 = 711
    Number of faces shared with processor 69 = 10
    Number of processor patches = 10
    Number of processor faces = 100645
    Number of boundary faces = 0

Processor 46
    Number of cells = 97586
    Number of points = 147203
    Number of faces shared with processor 37 = 3
    Number of faces shared with processor 38 = 48210
    Number of faces shared with processor 42 = 8
    Number of faces shared with processor 45 = 738
    Number of faces shared with processor 47 = 832
    Number of faces shared with processor 53 = 2
    Number of faces shared with processor 54 = 46861
    Number of faces shared with processor 55 = 2
    Number of faces shared with processor 62 = 541
    Number of faces shared with processor 70 = 24
    Number of processor patches = 10
    Number of processor faces = 97221
    Number of boundary faces = 0

Processor 47
    Number of cells = 231475
    Number of points = 333955
    Number of faces shared with processor 38 = 3
    Number of faces shared with processor 39 = 101552
    Number of faces shared with processor 43 = 88
    Number of faces shared with processor 46 = 832
    Number of faces shared with processor 51 = 1
    Number of faces shared with processor 54 = 20
    Number of faces shared with processor 55 = 95280
    Number of faces shared with processor 63 = 2705
    Number of faces shared with processor 71 = 1602
    Number of processor patches = 9
    Number of processor faces = 202083
    Number of boundary faces = 115

Processor 48
    Number of cells = 331999
    Number of points = 423561
    Number of faces shared with processor 40 = 86356
    Number of faces shared with processor 41 = 1
    Number of faces shared with processor 49 = 1523
    Number of faces shared with processor 56 = 69900
    Number of faces shared with processor 57 = 93
    Number of faces shared with processor 64 = 42
    Number of processor patches = 6
    Number of processor faces = 157915
    Number of boundary faces = 18802

Processor 49
    Number of cells = 127121
    Number of points = 178668
    Number of faces shared with processor 40 = 4
    Number of faces shared with processor 41 = 48940
    Number of faces shared with processor 42 = 2
    Number of faces shared with processor 48 = 1523
    Number of faces shared with processor 50 = 902
    Number of faces shared with processor 56 = 1
    Number of faces shared with processor 57 = 48543
    Number of faces shared with processor 58 = 21
    Number of faces shared with processor 65 = 9
    Number of processor patches = 9
    Number of processor faces = 99945
    Number of boundary faces = 1749

Processor 50
    Number of cells = 121587
    Number of points = 170983
    Number of faces shared with processor 41 = 3
    Number of faces shared with processor 42 = 47580
    Number of faces shared with processor 43 = 2
    Number of faces shared with processor 49 = 902
    Number of faces shared with processor 51 = 965
    Number of faces shared with processor 57 = 61
    Number of faces shared with processor 58 = 47001
    Number of faces shared with processor 59 = 40
    Number of faces shared with processor 66 = 8
    Number of processor patches = 9
    Number of processor faces = 96562
    Number of boundary faces = 8

Processor 51
    Number of cells = 225525
    Number of points = 326589
    Number of faces shared with processor 42 = 1
    Number of faces shared with processor 43 = 99030
    Number of faces shared with processor 47 = 1
    Number of faces shared with processor 50 = 965
    Number of faces shared with processor 55 = 3
    Number of faces shared with processor 59 = 96377
    Number of faces shared with processor 67 = 1486
    Number of processor patches = 7
    Number of processor faces = 197863
    Number of boundary faces = 108

Processor 52
    Number of cells = 240090
    Number of points = 332622
    Number of faces shared with processor 44 = 90333
    Number of faces shared with processor 53 = 1165
    Number of faces shared with processor 60 = 31331
    Number of faces shared with processor 61 = 2
    Number of processor patches = 4
    Number of processor faces = 122831
    Number of boundary faces = 38009

Processor 53
    Number of cells = 106310
    Number of points = 158115
    Number of faces shared with processor 45 = 49092
    Number of faces shared with processor 46 = 2
    Number of faces shared with processor 52 = 1165
    Number of faces shared with processor 54 = 711
    Number of faces shared with processor 60 = 1
    Number of faces shared with processor 61 = 37871
    Number of processor patches = 6
    Number of processor faces = 88842
    Number of boundary faces = 4202

Processor 54
    Number of cells = 79918
    Number of points = 128949
    Number of faces shared with processor 45 = 1
    Number of faces shared with processor 46 = 46861
    Number of faces shared with processor 47 = 20
    Number of faces shared with processor 53 = 711
    Number of faces shared with processor 55 = 605
    Number of faces shared with processor 61 = 1
    Number of faces shared with processor 62 = 38665
    Number of faces shared with processor 63 = 3
    Number of processor patches = 8
    Number of processor faces = 86867
    Number of boundary faces = 0

Processor 55
    Number of cells = 95268
    Number of points = 192582
    Number of faces shared with processor 46 = 2
    Number of faces shared with processor 47 = 95280
    Number of faces shared with processor 51 = 3
    Number of faces shared with processor 54 = 605
    Number of faces shared with processor 62 = 3
    Number of faces shared with processor 63 = 40403
    Number of faces shared with processor 71 = 5
    Number of processor patches = 7
    Number of processor faces = 136301
    Number of boundary faces = 2

Processor 56
    Number of cells = 185704
    Number of points = 260446
    Number of faces shared with processor 40 = 1715
    Number of faces shared with processor 48 = 69900
    Number of faces shared with processor 49 = 1
    Number of faces shared with processor 57 = 986
    Number of faces shared with processor 60 = 29
    Number of faces shared with processor 64 = 31387
    Number of faces shared with processor 72 = 1012
    Number of faces shared with processor 80 = 239
    Number of processor patches = 8
    Number of processor faces = 105269
    Number of boundary faces = 25188

Processor 57
    Number of cells = 182912
    Number of points = 236326
    Number of faces shared with processor 41 = 378
    Number of faces shared with processor 48 = 93
    Number of faces shared with processor 49 = 48543
    Number of faces shared with processor 50 = 61
    Number of faces shared with processor 56 = 986
    Number of faces shared with processor 58 = 1439
    Number of faces shared with processor 64 = 5
    Number of faces shared with processor 65 = 38109
    Number of faces shared with processor 66 = 5
    Number of faces shared with processor 73 = 432
    Number of processor patches = 10
    Number of processor faces = 90051
    Number of boundary faces = 3418

Processor 58
    Number of cells = 176250
    Number of points = 227631
    Number of faces shared with processor 42 = 336
    Number of faces shared with processor 49 = 21
    Number of faces shared with processor 50 = 47001
    Number of faces shared with processor 57 = 1439
    Number of faces shared with processor 59 = 1452
    Number of faces shared with processor 65 = 4
    Number of faces shared with processor 66 = 38927
    Number of faces shared with processor 67 = 5
    Number of faces shared with processor 74 = 432
    Number of processor patches = 9
    Number of processor faces = 89617
    Number of boundary faces = 0

Processor 59
    Number of cells = 138844
    Number of points = 239997
    Number of faces shared with processor 43 = 573
    Number of faces shared with processor 50 = 40
    Number of faces shared with processor 51 = 96377
    Number of faces shared with processor 58 = 1452
    Number of faces shared with processor 66 = 5
    Number of faces shared with processor 67 = 41048
    Number of faces shared with processor 75 = 1832
    Number of processor patches = 7
    Number of processor faces = 141327
    Number of boundary faces = 0

Processor 60
    Number of cells = 117375
    Number of points = 157756
    Number of faces shared with processor 36 = 2521
    Number of faces shared with processor 44 = 2488
    Number of faces shared with processor 52 = 31331
    Number of faces shared with processor 53 = 1
    Number of faces shared with processor 56 = 29
    Number of faces shared with processor 61 = 597
    Number of faces shared with processor 64 = 1
    Number of faces shared with processor 68 = 31369
    Number of faces shared with processor 84 = 2472
    Number of processor patches = 9
    Number of processor faces = 70809
    Number of boundary faces = 6699

Processor 61
    Number of cells = 187088
    Number of points = 229709
    Number of faces shared with processor 37 = 135
    Number of faces shared with processor 45 = 711
    Number of faces shared with processor 52 = 2
    Number of faces shared with processor 53 = 37871
    Number of faces shared with processor 54 = 1
    Number of faces shared with processor 60 = 597
    Number of faces shared with processor 62 = 1577
    Number of faces shared with processor 68 = 4
    Number of faces shared with processor 69 = 38058
    Number of faces shared with processor 70 = 3
    Number of faces shared with processor 85 = 28
    Number of processor patches = 11
    Number of processor faces = 78987
    Number of boundary faces = 1579

Processor 62
    Number of cells = 202427
    Number of points = 245516
    Number of faces shared with processor 38 = 135
    Number of faces shared with processor 46 = 541
    Number of faces shared with processor 54 = 38665
    Number of faces shared with processor 55 = 3
    Number of faces shared with processor 61 = 1577
    Number of faces shared with processor 63 = 1654
    Number of faces shared with processor 69 = 4
    Number of faces shared with processor 70 = 39092
    Number of faces shared with processor 71 = 6
    Number of faces shared with processor 86 = 9
    Number of processor patches = 10
    Number of processor faces = 81686
    Number of boundary faces = 9

Processor 63
    Number of cells = 137218
    Number of points = 184279
    Number of faces shared with processor 39 = 79
    Number of faces shared with processor 47 = 2705
    Number of faces shared with processor 54 = 3
    Number of faces shared with processor 55 = 40403
    Number of faces shared with processor 62 = 1654
    Number of faces shared with processor 70 = 1
    Number of faces shared with processor 71 = 42395
    Number of faces shared with processor 79 = 9
    Number of faces shared with processor 87 = 105
    Number of processor patches = 9
    Number of processor faces = 87354
    Number of boundary faces = 41

Processor 64
    Number of cells = 114512
    Number of points = 154174
    Number of faces shared with processor 40 = 2307
    Number of faces shared with processor 48 = 42
    Number of faces shared with processor 56 = 31387
    Number of faces shared with processor 57 = 5
    Number of faces shared with processor 60 = 1
    Number of faces shared with processor 65 = 619
    Number of faces shared with processor 68 = 41
    Number of faces shared with processor 72 = 28784
    Number of faces shared with processor 73 = 3
    Number of faces shared with processor 80 = 3337
    Number of faces shared with processor 88 = 16
    Number of processor patches = 11
    Number of processor faces = 66542
    Number of boundary faces = 6153

Processor 65
    Number of cells = 198454
    Number of points = 240896
    Number of faces shared with processor 41 = 27
    Number of faces shared with processor 49 = 9
    Number of faces shared with processor 57 = 38109
    Number of faces shared with processor 58 = 4
    Number of faces shared with processor 64 = 619
    Number of faces shared with processor 66 = 1667
    Number of faces shared with processor 69 = 9
    Number of faces shared with processor 72 = 2
    Number of faces shared with processor 73 = 37664
    Number of faces shared with processor 74 = 5
    Number of faces shared with processor 81 = 171
    Number of faces shared with processor 89 = 9
    Number of processor patches = 12
    Number of processor faces = 78295
    Number of boundary faces = 1457

Processor 66
    Number of cells = 207612
    Number of points = 250562
    Number of faces shared with processor 42 = 24
    Number of faces shared with processor 50 = 8
    Number of faces shared with processor 57 = 5
    Number of faces shared with processor 58 = 38927
    Number of faces shared with processor 59 = 5
    Number of faces shared with processor 65 = 1667
    Number of faces shared with processor 67 = 1642
    Number of faces shared with processor 70 = 8
    Number of faces shared with processor 74 = 38587
    Number of faces shared with processor 75 = 2
    Number of faces shared with processor 82 = 168
    Number of faces shared with processor 90 = 8
    Number of processor patches = 12
    Number of processor faces = 81051
    Number of boundary faces = 8

Processor 67
    Number of cells = 145163
    Number of points = 191930
    Number of faces shared with processor 43 = 226
    Number of faces shared with processor 51 = 1486
    Number of faces shared with processor 58 = 5
    Number of faces shared with processor 59 = 41048
    Number of faces shared with processor 66 = 1642
    Number of faces shared with processor 71 = 56
    Number of faces shared with processor 74 = 5
    Number of faces shared with processor 75 = 40486
    Number of faces shared with processor 83 = 732
    Number of faces shared with processor 91 = 1228
    Number of processor patches = 10
    Number of processor faces = 86914
    Number of boundary faces = 108

Processor 68
    Number of cells = 111646
    Number of points = 149982
    Number of faces shared with processor 44 = 113
    Number of faces shared with processor 60 = 31369
    Number of faces shared with processor 61 = 4
    Number of faces shared with processor 64 = 41
    Number of faces shared with processor 69 = 611
    Number of faces shared with processor 76 = 30147
    Number of faces shared with processor 84 = 1328
    Number of processor patches = 7
    Number of processor faces = 63613
    Number of boundary faces = 6027

Processor 69
    Number of cells = 200225
    Number of points = 242722
    Number of faces shared with processor 45 = 10
    Number of faces shared with processor 61 = 38058
    Number of faces shared with processor 62 = 4
    Number of faces shared with processor 65 = 9
    Number of faces shared with processor 68 = 611
    Number of faces shared with processor 70 = 1637
    Number of faces shared with processor 77 = 37857
    Number of faces shared with processor 78 = 2
    Number of faces shared with processor 85 = 442
    Number of processor patches = 9
    Number of processor faces = 78630
    Number of boundary faces = 1512

Processor 70
    Number of cells = 204770
    Number of points = 247951
    Number of faces shared with processor 46 = 24
    Number of faces shared with processor 61 = 3
    Number of faces shared with processor 62 = 39092
    Number of faces shared with processor 63 = 1
    Number of faces shared with processor 66 = 8
    Number of faces shared with processor 69 = 1637
    Number of faces shared with processor 71 = 1620
    Number of faces shared with processor 78 = 39016
    Number of faces shared with processor 79 = 7
    Number of faces shared with processor 86 = 456
    Number of processor patches = 10
    Number of processor faces = 81864
    Number of boundary faces = 0

Processor 71
    Number of cells = 145436
    Number of points = 193265
    Number of faces shared with processor 47 = 1602
    Number of faces shared with processor 55 = 5
    Number of faces shared with processor 62 = 6
    Number of faces shared with processor 63 = 42395
    Number of faces shared with processor 67 = 56
    Number of faces shared with processor 70 = 1620
    Number of faces shared with processor 79 = 40685
    Number of faces shared with processor 87 = 3542
    Number of processor patches = 8
    Number of processor faces = 89911
    Number of boundary faces = 67

Processor 72
    Number of cells = 109750
    Number of points = 147574
    Number of faces shared with processor 56 = 1012
    Number of faces shared with processor 64 = 28784
    Number of faces shared with processor 65 = 2
    Number of faces shared with processor 73 = 638
    Number of faces shared with processor 80 = 26020
    Number of faces shared with processor 81 = 8
    Number of processor patches = 6
    Number of processor faces = 56464
    Number of boundary faces = 6360

Processor 73
    Number of cells = 215965
    Number of points = 258723
    Number of faces shared with processor 57 = 432
    Number of faces shared with processor 64 = 3
    Number of faces shared with processor 65 = 37664
    Number of faces shared with processor 72 = 638
    Number of faces shared with processor 74 = 1733
    Number of faces shared with processor 80 = 8
    Number of faces shared with processor 81 = 37252
    Number of faces shared with processor 82 = 23
    Number of processor patches = 8
    Number of processor faces = 77753
    Number of boundary faces = 1669

Processor 74
    Number of cells = 212462
    Number of points = 255630
    Number of faces shared with processor 58 = 432
    Number of faces shared with processor 65 = 5
    Number of faces shared with processor 66 = 38587
    Number of faces shared with processor 67 = 5
    Number of faces shared with processor 73 = 1733
    Number of faces shared with processor 75 = 1671
    Number of faces shared with processor 81 = 1
    Number of faces shared with processor 82 = 38143
    Number of faces shared with processor 83 = 2
    Number of processor patches = 9
    Number of processor faces = 80579
    Number of boundary faces = 0

Processor 75
    Number of cells = 146102
    Number of points = 191865
    Number of faces shared with processor 59 = 1832
    Number of faces shared with processor 66 = 2
    Number of faces shared with processor 67 = 40486
    Number of faces shared with processor 74 = 1671
    Number of faces shared with processor 82 = 23
    Number of faces shared with processor 83 = 40550
    Number of processor patches = 6
    Number of processor faces = 84564
    Number of boundary faces = 0

Processor 76
    Number of cells = 97630
    Number of points = 135070
    Number of faces shared with processor 68 = 30147
    Number of faces shared with processor 77 = 567
    Number of faces shared with processor 84 = 21798
    Number of faces shared with processor 85 = 1
    Number of faces shared with processor 92 = 801
    Number of processor patches = 5
    Number of processor faces = 53314
    Number of boundary faces = 5875

Processor 77
    Number of cells = 197236
    Number of points = 239487
    Number of faces shared with processor 69 = 37857
    Number of faces shared with processor 76 = 567
    Number of faces shared with processor 78 = 1614
    Number of faces shared with processor 85 = 35335
    Number of faces shared with processor 86 = 1
    Number of faces shared with processor 93 = 144
    Number of processor patches = 6
    Number of processor faces = 75518
    Number of boundary faces = 1512

Processor 78
    Number of cells = 206537
    Number of points = 249567
    Number of faces shared with processor 69 = 2
    Number of faces shared with processor 70 = 39016
    Number of faces shared with processor 77 = 1614
    Number of faces shared with processor 79 = 1720
    Number of faces shared with processor 85 = 2
    Number of faces shared with processor 86 = 36420
    Number of faces shared with processor 87 = 4
    Number of faces shared with processor 94 = 144
    Number of processor patches = 8
    Number of processor faces = 78922
    Number of boundary faces = 0

Processor 79
    Number of cells = 142136
    Number of points = 186487
    Number of faces shared with processor 63 = 9
    Number of faces shared with processor 70 = 7
    Number of faces shared with processor 71 = 40685
    Number of faces shared with processor 78 = 1720
    Number of faces shared with processor 86 = 3
    Number of faces shared with processor 87 = 34649
    Number of faces shared with processor 95 = 136
    Number of processor patches = 7
    Number of processor faces = 77209
    Number of boundary faces = 0

Processor 80
    Number of cells = 93639
    Number of points = 130817
    Number of faces shared with processor 56 = 239
    Number of faces shared with processor 64 = 3337
    Number of faces shared with processor 72 = 26020
    Number of faces shared with processor 73 = 8
    Number of faces shared with processor 81 = 578
    Number of faces shared with processor 84 = 71
    Number of faces shared with processor 88 = 24327
    Number of faces shared with processor 89 = 4
    Number of faces shared with processor 104 = 1052
    Number of faces shared with processor 112 = 1520
    Number of processor patches = 10
    Number of processor faces = 57156
    Number of boundary faces = 6231

Processor 81
    Number of cells = 207381
    Number of points = 249226
    Number of faces shared with processor 65 = 171
    Number of faces shared with processor 72 = 8
    Number of faces shared with processor 73 = 37252
    Number of faces shared with processor 74 = 1
    Number of faces shared with processor 80 = 578
    Number of faces shared with processor 82 = 1733
    Number of faces shared with processor 85 = 9
    Number of faces shared with processor 88 = 7
    Number of faces shared with processor 89 = 35989
    Number of faces shared with processor 90 = 4
    Number of faces shared with processor 105 = 27
    Number of processor patches = 11
    Number of processor faces = 75779
    Number of boundary faces = 1568

Processor 82
    Number of cells = 225236
    Number of points = 267572
    Number of faces shared with processor 66 = 168
    Number of faces shared with processor 73 = 23
    Number of faces shared with processor 74 = 38143
    Number of faces shared with processor 75 = 23
    Number of faces shared with processor 81 = 1733
    Number of faces shared with processor 83 = 1799
    Number of faces shared with processor 86 = 8
    Number of faces shared with processor 89 = 2
    Number of faces shared with processor 90 = 36881
    Number of faces shared with processor 91 = 1
    Number of faces shared with processor 106 = 24
    Number of processor patches = 11
    Number of processor faces = 78805
    Number of boundary faces = 0

Processor 83
    Number of cells = 139881
    Number of points = 184920
    Number of faces shared with processor 67 = 732
    Number of faces shared with processor 74 = 2
    Number of faces shared with processor 75 = 40550
    Number of faces shared with processor 82 = 1799
    Number of faces shared with processor 87 = 56
    Number of faces shared with processor 90 = 3
    Number of faces shared with processor 91 = 36021
    Number of faces shared with processor 107 = 304
    Number of faces shared with processor 115 = 180
    Number of processor patches = 9
    Number of processor faces = 79647
    Number of boundary faces = 6

Processor 84
    Number of cells = 100867
    Number of points = 134232
    Number of faces shared with processor 60 = 2472
    Number of faces shared with processor 68 = 1328
    Number of faces shared with processor 76 = 21798
    Number of faces shared with processor 80 = 71
    Number of faces shared with processor 85 = 553
    Number of faces shared with processor 92 = 24265
    Number of faces shared with processor 93 = 9
    Number of faces shared with processor 100 = 278
    Number of faces shared with processor 108 = 787
    Number of faces shared with processor 116 = 1520
    Number of processor patches = 10
    Number of processor faces = 53081
    Number of boundary faces = 6979

Processor 85
    Number of cells = 213659
    Number of points = 254169
    Number of faces shared with processor 61 = 28
    Number of faces shared with processor 69 = 442
    Number of faces shared with processor 76 = 1
    Number of faces shared with processor 77 = 35335
    Number of faces shared with processor 78 = 2
    Number of faces shared with processor 81 = 9
    Number of faces shared with processor 84 = 553
    Number of faces shared with processor 86 = 1677
    Number of faces shared with processor 92 = 11
    Number of faces shared with processor 93 = 36108
    Number of faces shared with processor 94 = 4
    Number of faces shared with processor 109 = 38
    Number of processor patches = 12
    Number of processor faces = 74208
    Number of boundary faces = 1720

Processor 86
    Number of cells = 210529
    Number of points = 251675
    Number of faces shared with processor 62 = 9
    Number of faces shared with processor 70 = 456
    Number of faces shared with processor 77 = 1
    Number of faces shared with processor 78 = 36420
    Number of faces shared with processor 79 = 3
    Number of faces shared with processor 82 = 8
    Number of faces shared with processor 85 = 1677
    Number of faces shared with processor 87 = 1628
    Number of faces shared with processor 93 = 2
    Number of faces shared with processor 94 = 37116
    Number of faces shared with processor 95 = 4
    Number of faces shared with processor 110 = 33
    Number of processor patches = 12
    Number of processor faces = 77357
    Number of boundary faces = 9

Processor 87
    Number of cells = 136626
    Number of points = 179028
    Number of faces shared with processor 63 = 105
    Number of faces shared with processor 71 = 3542
    Number of faces shared with processor 78 = 4
    Number of faces shared with processor 79 = 34649
    Number of faces shared with processor 83 = 56
    Number of faces shared with processor 86 = 1628
    Number of faces shared with processor 94 = 8
    Number of faces shared with processor 95 = 36902
    Number of faces shared with processor 111 = 912
    Number of faces shared with processor 119 = 800
    Number of processor patches = 10
    Number of processor faces = 78606
    Number of boundary faces = 108

Processor 88
    Number of cells = 107036
    Number of points = 138000
    Number of faces shared with processor 64 = 16
    Number of faces shared with processor 80 = 24327
    Number of faces shared with processor 81 = 7
    Number of faces shared with processor 89 = 636
    Number of faces shared with processor 96 = 25395
    Number of faces shared with processor 97 = 10
    Number of faces shared with processor 104 = 16
    Number of processor patches = 7
    Number of processor faces = 50407
    Number of boundary faces = 7583

Processor 89
    Number of cells = 210883
    Number of points = 251901
    Number of faces shared with processor 65 = 9
    Number of faces shared with processor 80 = 4
    Number of faces shared with processor 81 = 35989
    Number of faces shared with processor 82 = 2
    Number of faces shared with processor 88 = 636
    Number of faces shared with processor 90 = 1707
    Number of faces shared with processor 96 = 1
    Number of faces shared with processor 97 = 36359
    Number of faces shared with processor 98 = 2
    Number of faces shared with processor 105 = 9
    Number of processor patches = 10
    Number of processor faces = 74718
    Number of boundary faces = 1665

Processor 90
    Number of cells = 207776
    Number of points = 249244
    Number of faces shared with processor 66 = 8
    Number of faces shared with processor 81 = 4
    Number of faces shared with processor 82 = 36881
    Number of faces shared with processor 83 = 3
    Number of faces shared with processor 89 = 1707
    Number of faces shared with processor 91 = 1628
    Number of faces shared with processor 97 = 4
    Number of faces shared with processor 98 = 37309
    Number of faces shared with processor 99 = 4
    Number of faces shared with processor 106 = 8
    Number of processor patches = 10
    Number of processor faces = 77556
    Number of boundary faces = 8

Processor 91
    Number of cells = 135761
    Number of points = 177423
    Number of faces shared with processor 67 = 1228
    Number of faces shared with processor 82 = 1
    Number of faces shared with processor 83 = 36021
    Number of faces shared with processor 90 = 1628
    Number of faces shared with processor 99 = 36457
    Number of faces shared with processor 107 = 624
    Number of faces shared with processor 115 = 620
    Number of processor patches = 7
    Number of processor faces = 76579
    Number of boundary faces = 102

Processor 92
    Number of cells = 100991
    Number of points = 131977
    Number of faces shared with processor 76 = 801
    Number of faces shared with processor 84 = 24265
    Number of faces shared with processor 85 = 11
    Number of faces shared with processor 93 = 541
    Number of faces shared with processor 100 = 25651
    Number of processor patches = 5
    Number of processor faces = 51269
    Number of boundary faces = 7274

Processor 93
    Number of cells = 203723
    Number of points = 244296
    Number of faces shared with processor 77 = 144
    Number of faces shared with processor 84 = 9
    Number of faces shared with processor 85 = 36108
    Number of faces shared with processor 86 = 2
    Number of faces shared with processor 92 = 541
    Number of faces shared with processor 94 = 1688
    Number of faces shared with processor 100 = 6
    Number of faces shared with processor 101 = 35822
    Number of processor patches = 8
    Number of processor faces = 74320
    Number of boundary faces = 1565

Processor 94
    Number of cells = 222163
    Number of points = 263324
    Number of faces shared with processor 78 = 144
    Number of faces shared with processor 85 = 4
    Number of faces shared with processor 86 = 37116
    Number of faces shared with processor 87 = 8
    Number of faces shared with processor 93 = 1688
    Number of faces shared with processor 95 = 1781
    Number of faces shared with processor 102 = 36798
    Number of faces shared with processor 103 = 2
    Number of processor patches = 8
    Number of processor faces = 77541
    Number of boundary faces = 0

Processor 95
    Number of cells = 139485
    Number of points = 179723
    Number of faces shared with processor 79 = 136
    Number of faces shared with processor 86 = 4
    Number of faces shared with processor 87 = 36902
    Number of faces shared with processor 94 = 1781
    Number of faces shared with processor 102 = 1
    Number of faces shared with processor 103 = 35894
    Number of processor patches = 6
    Number of processor faces = 74718
    Number of boundary faces = 0

Processor 96
    Number of cells = 106290
    Number of points = 137690
    Number of faces shared with processor 88 = 25395
    Number of faces shared with processor 89 = 1
    Number of faces shared with processor 97 = 542
    Number of faces shared with processor 104 = 25536
    Number of faces shared with processor 105 = 1
    Number of faces shared with processor 112 = 1111
    Number of processor patches = 6
    Number of processor faces = 52586
    Number of boundary faces = 7299

Processor 97
    Number of cells = 208717
    Number of points = 249504
    Number of faces shared with processor 88 = 10
    Number of faces shared with processor 89 = 36359
    Number of faces shared with processor 90 = 4
    Number of faces shared with processor 96 = 542
    Number of faces shared with processor 98 = 1709
    Number of faces shared with processor 104 = 19
    Number of faces shared with processor 105 = 35881
    Number of faces shared with processor 106 = 1
    Number of faces shared with processor 113 = 432
    Number of processor patches = 9
    Number of processor faces = 74957
    Number of boundary faces = 1581

Processor 98
    Number of cells = 223646
    Number of points = 264972
    Number of faces shared with processor 89 = 2
    Number of faces shared with processor 90 = 37309
    Number of faces shared with processor 97 = 1709
    Number of faces shared with processor 99 = 1720
    Number of faces shared with processor 105 = 6
    Number of faces shared with processor 106 = 36978
    Number of faces shared with processor 107 = 7
    Number of faces shared with processor 114 = 432
    Number of processor patches = 8
    Number of processor faces = 78163
    Number of boundary faces = 0

Processor 99
    Number of cells = 135743
    Number of points = 175849
    Number of faces shared with processor 90 = 4
    Number of faces shared with processor 91 = 36457
    Number of faces shared with processor 98 = 1720
    Number of faces shared with processor 106 = 2
    Number of faces shared with processor 107 = 35080
    Number of faces shared with processor 115 = 1864
    Number of processor patches = 6
    Number of processor faces = 75127
    Number of boundary faces = 0

Processor 100
    Number of cells = 113333
    Number of points = 145538
    Number of faces shared with processor 84 = 278
    Number of faces shared with processor 92 = 25651
    Number of faces shared with processor 93 = 6
    Number of faces shared with processor 101 = 591
    Number of faces shared with processor 108 = 26634
    Number of faces shared with processor 109 = 11
    Number of faces shared with processor 116 = 77
    Number of faces shared with processor 124 = 278
    Number of processor patches = 8
    Number of processor faces = 53526
    Number of boundary faces = 7601

Processor 101
    Number of cells = 203951
    Number of points = 244694
    Number of faces shared with processor 93 = 35822
    Number of faces shared with processor 100 = 591
    Number of faces shared with processor 102 = 1639
    Number of faces shared with processor 108 = 1
    Number of faces shared with processor 109 = 36348
    Number of faces shared with processor 110 = 2
    Number of processor patches = 6
    Number of processor faces = 74403
    Number of boundary faces = 1624

Processor 102
    Number of cells = 203086
    Number of points = 244333
    Number of faces shared with processor 94 = 36798
    Number of faces shared with processor 95 = 1
    Number of faces shared with processor 101 = 1639
    Number of faces shared with processor 103 = 1631
    Number of faces shared with processor 109 = 3
    Number of faces shared with processor 110 = 37135
    Number of faces shared with processor 111 = 8
    Number of processor patches = 7
    Number of processor faces = 77215
    Number of boundary faces = 0

Processor 103
    Number of cells = 133052
    Number of points = 173440
    Number of faces shared with processor 94 = 2
    Number of faces shared with processor 95 = 35894
    Number of faces shared with processor 102 = 1631
    Number of faces shared with processor 110 = 3
    Number of faces shared with processor 111 = 37022
    Number of faces shared with processor 119 = 36
    Number of processor patches = 6
    Number of processor faces = 74588
    Number of boundary faces = 0

Processor 104
    Number of cells = 107648
    Number of points = 139838
    Number of faces shared with processor 80 = 1052
    Number of faces shared with processor 88 = 16
    Number of faces shared with processor 96 = 25536
    Number of faces shared with processor 97 = 19
    Number of faces shared with processor 105 = 574
    Number of faces shared with processor 108 = 71
    Number of faces shared with processor 112 = 24327
    Number of faces shared with processor 113 = 3
    Number of faces shared with processor 120 = 1973
    Number of processor patches = 9
    Number of processor faces = 53571
    Number of boundary faces = 7101

Processor 105
    Number of cells = 195060
    Number of points = 235487
    Number of faces shared with processor 129 = 9
    Number of faces shared with processor 81 = 27
    Number of faces shared with processor 89 = 9
    Number of faces shared with processor 96 = 1
    Number of faces shared with processor 97 = 35881
    Number of faces shared with processor 98 = 6
    Number of faces shared with processor 104 = 574
    Number of faces shared with processor 106 = 1616
    Number of faces shared with processor 109 = 9
    Number of faces shared with processor 112 = 2
    Number of faces shared with processor 113 = 35477
    Number of faces shared with processor 114 = 5
    Number of faces shared with processor 121 = 171
    Number of processor patches = 13
    Number of processor faces = 73787
    Number of boundary faces = 1503

Processor 106
    Number of cells = 204514
    Number of points = 245633
    Number of faces shared with processor 130 = 8
    Number of faces shared with processor 82 = 24
    Number of faces shared with processor 90 = 8
    Number of faces shared with processor 97 = 1
    Number of faces shared with processor 98 = 36978
    Number of faces shared with processor 99 = 2
    Number of faces shared with processor 105 = 1616
    Number of faces shared with processor 107 = 1646
    Number of faces shared with processor 110 = 8
    Number of faces shared with processor 114 = 36484
    Number of faces shared with processor 115 = 2
    Number of faces shared with processor 122 = 168
    Number of processor patches = 12
    Number of processor faces = 76945
    Number of boundary faces = 8

Processor 107
    Number of cells = 134268
    Number of points = 174529
    Number of faces shared with processor 131 = 492
    Number of faces shared with processor 83 = 304
    Number of faces shared with processor 91 = 624
    Number of faces shared with processor 98 = 7
    Number of faces shared with processor 99 = 35080
    Number of faces shared with processor 106 = 1646
    Number of faces shared with processor 111 = 56
    Number of faces shared with processor 114 = 4
    Number of faces shared with processor 115 = 34868
    Number of faces shared with processor 123 = 620
    Number of processor patches = 10
    Number of processor faces = 73701
    Number of boundary faces = 108

Processor 108
    Number of cells = 107132
    Number of points = 139922
    Number of faces shared with processor 84 = 787
    Number of faces shared with processor 100 = 26634
    Number of faces shared with processor 101 = 1
    Number of faces shared with processor 104 = 71
    Number of faces shared with processor 109 = 527
    Number of faces shared with processor 116 = 25626
    Number of faces shared with processor 124 = 1643
    Number of processor patches = 7
    Number of processor faces = 55289
    Number of boundary faces = 6959

Processor 109
    Number of cells = 213967
    Number of points = 254752
    Number of faces shared with processor 85 = 38
    Number of faces shared with processor 100 = 11
    Number of faces shared with processor 101 = 36348
    Number of faces shared with processor 102 = 3
    Number of faces shared with processor 105 = 9
    Number of faces shared with processor 108 = 527
    Number of faces shared with processor 110 = 1744
    Number of faces shared with processor 116 = 14
    Number of faces shared with processor 117 = 35680
    Number of faces shared with processor 118 = 2
    Number of faces shared with processor 125 = 468
    Number of processor patches = 11
    Number of processor faces = 74844
    Number of boundary faces = 1661

Processor 110
    Number of cells = 225538
    Number of points = 266858
    Number of faces shared with processor 86 = 33
    Number of faces shared with processor 101 = 2
    Number of faces shared with processor 102 = 37135
    Number of faces shared with processor 103 = 3
    Number of faces shared with processor 106 = 8
    Number of faces shared with processor 109 = 1744
    Number of faces shared with processor 111 = 1731
    Number of faces shared with processor 118 = 36904
    Number of faces shared with processor 119 = 7
    Number of faces shared with processor 126 = 465
    Number of processor patches = 10
    Number of processor faces = 78032
    Number of boundary faces = 9

Processor 111
    Number of cells = 139691
    Number of points = 181581
    Number of faces shared with processor 87 = 912
    Number of faces shared with processor 102 = 8
    Number of faces shared with processor 103 = 37022
    Number of faces shared with processor 107 = 56
    Number of faces shared with processor 110 = 1731
    Number of faces shared with processor 119 = 35345
    Number of faces shared with processor 127 = 2644
    Number of processor patches = 7
    Number of processor faces = 77718
    Number of boundary faces = 108

Processor 112
    Number of cells = 107006
    Number of points = 139551
    Number of faces shared with processor 144 = 380
    Number of faces shared with processor 80 = 1520
    Number of faces shared with processor 96 = 1111
    Number of faces shared with processor 104 = 24327
    Number of faces shared with processor 105 = 2
    Number of faces shared with processor 113 = 591
    Number of faces shared with processor 120 = 25887
    Number of faces shared with processor 121 = 15
    Number of processor patches = 8
    Number of processor faces = 53833
    Number of boundary faces = 7006

Processor 113
    Number of cells = 222407
    Number of points = 262984
    Number of faces shared with processor 97 = 432
    Number of faces shared with processor 104 = 3
    Number of faces shared with processor 105 = 35477
    Number of faces shared with processor 112 = 591
    Number of faces shared with processor 114 = 1753
    Number of faces shared with processor 120 = 2
    Number of faces shared with processor 121 = 36154
    Number of faces shared with processor 122 = 5
    Number of processor patches = 8
    Number of processor faces = 74417
    Number of boundary faces = 1743

Processor 114
    Number of cells = 221494
    Number of points = 262582
    Number of faces shared with processor 98 = 432
    Number of faces shared with processor 105 = 5
    Number of faces shared with processor 106 = 36484
    Number of faces shared with processor 107 = 4
    Number of faces shared with processor 113 = 1753
    Number of faces shared with processor 115 = 1673
    Number of faces shared with processor 121 = 1
    Number of faces shared with processor 122 = 37136
    Number of faces shared with processor 123 = 3
    Number of processor patches = 9
    Number of processor faces = 77491
    Number of boundary faces = 0

Processor 115
    Number of cells = 136060
    Number of points = 177316
    Number of faces shared with processor 131 = 105
    Number of faces shared with processor 147 = 200
    Number of faces shared with processor 83 = 180
    Number of faces shared with processor 91 = 620
    Number of faces shared with processor 99 = 1864
    Number of faces shared with processor 106 = 2
    Number of faces shared with processor 107 = 34868
    Number of faces shared with processor 114 = 1673
    Number of faces shared with processor 122 = 3
    Number of faces shared with processor 123 = 36365
    Number of processor patches = 10
    Number of processor faces = 75880
    Number of boundary faces = 0

Processor 116
    Number of cells = 103517
    Number of points = 135883
    Number of faces shared with processor 132 = 1514
    Number of faces shared with processor 148 = 380
    Number of faces shared with processor 84 = 1520
    Number of faces shared with processor 100 = 77
    Number of faces shared with processor 108 = 25626
    Number of faces shared with processor 109 = 14
    Number of faces shared with processor 117 = 537
    Number of faces shared with processor 124 = 22819
    Number of faces shared with processor 125 = 2
    Number of processor patches = 9
    Number of processor faces = 52489
    Number of boundary faces = 6606

Processor 117
    Number of cells = 195554
    Number of points = 235653
    Number of faces shared with processor 133 = 218
    Number of faces shared with processor 109 = 35680
    Number of faces shared with processor 116 = 537
    Number of faces shared with processor 118 = 1572
    Number of faces shared with processor 125 = 35051
    Number of faces shared with processor 126 = 2
    Number of processor patches = 6
    Number of processor faces = 73060
    Number of boundary faces = 1553

Processor 118
    Number of cells = 205320
    Number of points = 246190
    Number of faces shared with processor 134 = 198
    Number of faces shared with processor 109 = 2
    Number of faces shared with processor 110 = 36904
    Number of faces shared with processor 117 = 1572
    Number of faces shared with processor 119 = 1661
    Number of faces shared with processor 125 = 1
    Number of faces shared with processor 126 = 36101
    Number of faces shared with processor 127 = 3
    Number of processor patches = 8
    Number of processor faces = 76442
    Number of boundary faces = 0

Processor 119
    Number of cells = 136460
    Number of points = 176460
    Number of faces shared with processor 135 = 371
    Number of faces shared with processor 151 = 200
    Number of faces shared with processor 87 = 800
    Number of faces shared with processor 103 = 36
    Number of faces shared with processor 110 = 7
    Number of faces shared with processor 111 = 35345
    Number of faces shared with processor 118 = 1661
    Number of faces shared with processor 126 = 17
    Number of faces shared with processor 127 = 34577
    Number of processor patches = 9
    Number of processor faces = 73014
    Number of boundary faces = 0

Processor 120
    Number of cells = 102096
    Number of points = 135030
    Number of faces shared with processor 128 = 24113
    Number of faces shared with processor 129 = 5
    Number of faces shared with processor 144 = 1068
    Number of faces shared with processor 104 = 1973
    Number of faces shared with processor 112 = 25887
    Number of faces shared with processor 113 = 2
    Number of faces shared with processor 121 = 540
    Number of faces shared with processor 124 = 71
    Number of processor patches = 8
    Number of processor faces = 53659
    Number of boundary faces = 6431

Processor 121
    Number of cells = 195033
    Number of points = 235831
    Number of faces shared with processor 128 = 9
    Number of faces shared with processor 129 = 35404
    Number of faces shared with processor 130 = 5
    Number of faces shared with processor 145 = 27
    Number of faces shared with processor 105 = 171
    Number of faces shared with processor 112 = 15
    Number of faces shared with processor 113 = 36154
    Number of faces shared with processor 114 = 1
    Number of faces shared with processor 120 = 540
    Number of faces shared with processor 122 = 1620
    Number of faces shared with processor 125 = 9
    Number of processor patches = 11
    Number of processor faces = 73955
    Number of boundary faces = 1494

Processor 122
    Number of cells = 210368
    Number of points = 251669
    Number of faces shared with processor 129 = 2
    Number of faces shared with processor 130 = 36308
    Number of faces shared with processor 131 = 1
    Number of faces shared with processor 146 = 24
    Number of faces shared with processor 106 = 168
    Number of faces shared with processor 113 = 5
    Number of faces shared with processor 114 = 37136
    Number of faces shared with processor 115 = 3
    Number of faces shared with processor 121 = 1620
    Number of faces shared with processor 123 = 1684
    Number of faces shared with processor 126 = 8
    Number of processor patches = 11
    Number of processor faces = 76959
    Number of boundary faces = 0

Processor 123
    Number of cells = 131390
    Number of points = 171962
    Number of faces shared with processor 130 = 4
    Number of faces shared with processor 131 = 34222
    Number of faces shared with processor 147 = 420
    Number of faces shared with processor 107 = 620
    Number of faces shared with processor 114 = 3
    Number of faces shared with processor 115 = 36365
    Number of faces shared with processor 122 = 1684
    Number of faces shared with processor 127 = 56
    Number of processor patches = 8
    Number of processor faces = 73374
    Number of boundary faces = 14

Processor 124
    Number of cells = 102772
    Number of points = 132925
    Number of faces shared with processor 132 = 22635
    Number of faces shared with processor 133 = 15
    Number of faces shared with processor 140 = 115
    Number of faces shared with processor 148 = 950
    Number of faces shared with processor 100 = 278
    Number of faces shared with processor 108 = 1643
    Number of faces shared with processor 116 = 22819
    Number of faces shared with processor 120 = 71
    Number of faces shared with processor 125 = 534
    Number of processor patches = 9
    Number of processor faces = 49060
    Number of boundary faces = 6610

Processor 125
    Number of cells = 220757
    Number of points = 261012
    Number of faces shared with processor 132 = 5
    Number of faces shared with processor 133 = 35335
    Number of faces shared with processor 134 = 4
    Number of faces shared with processor 149 = 38
    Number of faces shared with processor 109 = 468
    Number of faces shared with processor 116 = 2
    Number of faces shared with processor 117 = 35051
    Number of faces shared with processor 118 = 1
    Number of faces shared with processor 121 = 9
    Number of faces shared with processor 124 = 534
    Number of faces shared with processor 126 = 1779
    Number of processor patches = 11
    Number of processor faces = 73226
    Number of boundary faces = 1736

Processor 126
    Number of cells = 228545
    Number of points = 269452
    Number of faces shared with processor 133 = 1
    Number of faces shared with processor 134 = 36402
    Number of faces shared with processor 135 = 4
    Number of faces shared with processor 150 = 33
    Number of faces shared with processor 110 = 465
    Number of faces shared with processor 117 = 2
    Number of faces shared with processor 118 = 36101
    Number of faces shared with processor 119 = 17
    Number of faces shared with processor 122 = 8
    Number of faces shared with processor 125 = 1779
    Number of faces shared with processor 127 = 1736
    Number of processor patches = 11
    Number of processor faces = 76548
    Number of boundary faces = 9

Processor 127
    Number of cells = 136857
    Number of points = 178193
    Number of faces shared with processor 134 = 9
    Number of faces shared with processor 135 = 34823
    Number of faces shared with processor 151 = 912
    Number of faces shared with processor 111 = 2644
    Number of faces shared with processor 118 = 3
    Number of faces shared with processor 119 = 34577
    Number of faces shared with processor 123 = 56
    Number of faces shared with processor 126 = 1736
    Number of processor patches = 8
    Number of processor faces = 74760
    Number of boundary faces = 108

Processor 128
    Number of cells = 171181
    Number of points = 218509
    Number of faces shared with processor 129 = 1134
    Number of faces shared with processor 136 = 42695
    Number of faces shared with processor 137 = 12
    Number of faces shared with processor 120 = 24113
    Number of faces shared with processor 121 = 9
    Number of processor patches = 5
    Number of processor faces = 67963
    Number of boundary faces = 26241

Processor 129
    Number of cells = 177253
    Number of points = 219750
    Number of faces shared with processor 128 = 1134
    Number of faces shared with processor 130 = 1324
    Number of faces shared with processor 136 = 10
    Number of faces shared with processor 137 = 38708
[...]
    in file db/dynamicLibrary/dlLibraryTable/dlLibraryTable.C at line 188
    Could not load "libpetscFoam.so"
libpetscFoam.so: cannot open shared object file: No such file or directory
Processor 89: field transfer
--> FOAM Warning : 
    From void* Foam::dlLibraryTable::openLibrary(const Foam::fileName&, bool)
    in file db/dynamicLibrary/dlLibraryTable/dlLibraryTable.C at line 188
    Could not load "libpetscFoam.so"
libpetscFoam.so: cannot open shared object file: No such file or directory
Processor 90: field transfer
--> FOAM Warning : 
    From void* Foam::dlLibraryTable::openLibrary(const Foam::fileName&, bool)
    in file db/dynamicLibrary/dlLibraryTable/dlLibraryTable.C at line 188
    Could not load "libpetscFoam.so"
libpetscFoam.so: cannot open shared object file: No such file or directory
Processor 91: field transfer
--> FOAM Warning : 
    From void* Foam::dlLibraryTable::openLibrary(const Foam::fileName&, bool)
    in file db/dynamicLibrary/dlLibraryTable/dlLibraryTable.C at line 188
    Could not load "libpetscFoam.so"
libpetscFoam.so: cannot open shared object file: No such file or directory
Processor 92: field transfer
--> FOAM Warning : 
    From void* Foam::dlLibraryTable::openLibrary(const Foam::fileName&, bool)
    in file db/dynamicLibrary/dlLibraryTable/dlLibraryTable.C at line 188
    Could not load "libpetscFoam.so"
libpetscFoam.so: cannot open shared object file: No such file or directory
Processor 93: field transfer
--> FOAM Warning : 
    From void* Foam::dlLibraryTable::openLibrary(const Foam::fileName&, bool)
    in file db/dynamicLibrary/dlLibraryTable/dlLibraryTable.C at line 188
    Could not load "libpetscFoam.so"
libpetscFoam.so: cannot open shared object file: No such file or directory
Processor 94: field transfer
--> FOAM Warning : 
    From void* Foam::dlLibraryTable::openLibrary(const Foam::fileName&, bool)
    in file db/dynamicLibrary/dlLibraryTable/dlLibraryTable.C at line 188
    Could not load "libpetscFoam.so"
libpetscFoam.so: cannot open shared object file: No such file or directory
Processor 95: field transfer
--> FOAM Warning : 
    From void* Foam::dlLibraryTable::openLibrary(const Foam::fileName&, bool)
    in file db/dynamicLibrary/dlLibraryTable/dlLibraryTable.C at line 188
    Could not load "libpetscFoam.so"
libpetscFoam.so: cannot open shared object file: No such file or directory
Processor 96: field transfer
--> FOAM Warning : 
    From void* Foam::dlLibraryTable::openLibrary(const Foam::fileName&, bool)
    in file db/dynamicLibrary/dlLibraryTable/dlLibraryTable.C at line 188
    Could not load "libpetscFoam.so"
libpetscFoam.so: cannot open shared object file: No such file or directory
Processor 97: field transfer
--> FOAM Warning : 
    From void* Foam::dlLibraryTable::openLibrary(const Foam::fileName&, bool)
    in file db/dynamicLibrary/dlLibraryTable/dlLibraryTable.C at line 188
    Could not load "libpetscFoam.so"
libpetscFoam.so: cannot open shared object file: No such file or directory
Processor 98: field transfer
--> FOAM Warning : 
    From void* Foam::dlLibraryTable::openLibrary(const Foam::fileName&, bool)
    in file db/dynamicLibrary/dlLibraryTable/dlLibraryTable.C at line 188
    Could not load "libpetscFoam.so"
libpetscFoam.so: cannot open shared object file: No such file or directory
Processor 99: field transfer
--> FOAM Warning : 
    From void* Foam::dlLibraryTable::openLibrary(const Foam::fileName&, bool)
    in file db/dynamicLibrary/dlLibraryTable/dlLibraryTable.C at line 188
    Could not load "libpetscFoam.so"
libpetscFoam.so: cannot open shared object file: No such file or directory
Processor 100: field transfer
--> FOAM Warning : 
    From void* Foam::dlLibraryTable::openLibrary(const Foam::fileName&, bool)
    in file db/dynamicLibrary/dlLibraryTable/dlLibraryTable.C at line 188
    Could not load "libpetscFoam.so"
libpetscFoam.so: cannot open shared object file: No such file or directory
Processor 101: field transfer
--> FOAM Warning : 
    From void* Foam::dlLibraryTable::openLibrary(const Foam::fileName&, bool)
    in file db/dynamicLibrary/dlLibraryTable/dlLibraryTable.C at line 188
    Could not load "libpetscFoam.so"
libpetscFoam.so: cannot open shared object file: No such file or directory
Processor 102: field transfer
--> FOAM Warning : 
    From void* Foam::dlLibraryTable::openLibrary(const Foam::fileName&, bool)
    in file db/dynamicLibrary/dlLibraryTable/dlLibraryTable.C at line 188
    Could not load "libpetscFoam.so"
libpetscFoam.so: cannot open shared object file: No such file or directory
Processor 103: field transfer
--> FOAM Warning : 
    From void* Foam::dlLibraryTable::openLibrary(const Foam::fileName&, bool)
    in file db/dynamicLibrary/dlLibraryTable/dlLibraryTable.C at line 188
    Could not load "libpetscFoam.so"
libpetscFoam.so: cannot open shared object file: No such file or directory
Processor 104: field transfer
--> FOAM Warning : 
    From void* Foam::dlLibraryTable::openLibrary(const Foam::fileName&, bool)
    in file db/dynamicLibrary/dlLibraryTable/dlLibraryTable.C at line 188
    Could not load "libpetscFoam.so"
libpetscFoam.so: cannot open shared object file: No such file or directory
Processor 105: field transfer
--> FOAM Warning : 
    From void* Foam::dlLibraryTable::openLibrary(const Foam::fileName&, bool)
    in file db/dynamicLibrary/dlLibraryTable/dlLibraryTable.C at line 188
    Could not load "libpetscFoam.so"
libpetscFoam.so: cannot open shared object file: No such file or directory
Processor 106: field transfer
--> FOAM Warning : 
    From void* Foam::dlLibraryTable::openLibrary(const Foam::fileName&, bool)
    in file db/dynamicLibrary/dlLibraryTable/dlLibraryTable.C at line 188
    Could not load "libpetscFoam.so"
libpetscFoam.so: cannot open shared object file: No such file or directory
Processor 107: field transfer
--> FOAM Warning : 
    From void* Foam::dlLibraryTable::openLibrary(const Foam::fileName&, bool)
    in file db/dynamicLibrary/dlLibraryTable/dlLibraryTable.C at line 188
    Could not load "libpetscFoam.so"
libpetscFoam.so: cannot open shared object file: No such file or directory
Processor 108: field transfer
--> FOAM Warning : 
    From void* Foam::dlLibraryTable::openLibrary(const Foam::fileName&, bool)
    in file db/dynamicLibrary/dlLibraryTable/dlLibraryTable.C at line 188
    Could not load "libpetscFoam.so"
libpetscFoam.so: cannot open shared object file: No such file or directory
Processor 109: field transfer
--> FOAM Warning : 
    From void* Foam::dlLibraryTable::openLibrary(const Foam::fileName&, bool)
    in file db/dynamicLibrary/dlLibraryTable/dlLibraryTable.C at line 188
    Could not load "libpetscFoam.so"
libpetscFoam.so: cannot open shared object file: No such file or directory
Processor 110: field transfer
--> FOAM Warning : 
    From void* Foam::dlLibraryTable::openLibrary(const Foam::fileName&, bool)
    in file db/dynamicLibrary/dlLibraryTable/dlLibraryTable.C at line 188
    Could not load "libpetscFoam.so"
libpetscFoam.so: cannot open shared object file: No such file or directory
Processor 111: field transfer
--> FOAM Warning : 
    From void* Foam::dlLibraryTable::openLibrary(const Foam::fileName&, bool)
    in file db/dynamicLibrary/dlLibraryTable/dlLibraryTable.C at line 188
    Could not load "libpetscFoam.so"
libpetscFoam.so: cannot open shared object file: No such file or directory
Processor 112: field transfer
--> FOAM Warning : 
    From void* Foam::dlLibraryTable::openLibrary(const Foam::fileName&, bool)
    in file db/dynamicLibrary/dlLibraryTable/dlLibraryTable.C at line 188
    Could not load "libpetscFoam.so"
libpetscFoam.so: cannot open shared object file: No such file or directory
Processor 113: field transfer
--> FOAM Warning : 
    From void* Foam::dlLibraryTable::openLibrary(const Foam::fileName&, bool)
    in file db/dynamicLibrary/dlLibraryTable/dlLibraryTable.C at line 188
    Could not load "libpetscFoam.so"
libpetscFoam.so: cannot open shared object file: No such file or directory
Processor 114: field transfer
--> FOAM Warning : 
    From void* Foam::dlLibraryTable::openLibrary(const Foam::fileName&, bool)
    in file db/dynamicLibrary/dlLibraryTable/dlLibraryTable.C at line 188
    Could not load "libpetscFoam.so"
libpetscFoam.so: cannot open shared object file: No such file or directory
Processor 115: field transfer
--> FOAM Warning : 
    From void* Foam::dlLibraryTable::openLibrary(const Foam::fileName&, bool)
    in file db/dynamicLibrary/dlLibraryTable/dlLibraryTable.C at line 188
    Could not load "libpetscFoam.so"
libpetscFoam.so: cannot open shared object file: No such file or directory
Processor 116: field transfer
--> FOAM Warning : 
    From void* Foam::dlLibraryTable::openLibrary(const Foam::fileName&, bool)
    in file db/dynamicLibrary/dlLibraryTable/dlLibraryTable.C at line 188
    Could not load "libpetscFoam.so"
libpetscFoam.so: cannot open shared object file: No such file or directory
Processor 117: field transfer
--> FOAM Warning : 
    From void* Foam::dlLibraryTable::openLibrary(const Foam::fileName&, bool)
    in file db/dynamicLibrary/dlLibraryTable/dlLibraryTable.C at line 188
    Could not load "libpetscFoam.so"
libpetscFoam.so: cannot open shared object file: No such file or directory
Processor 118: field transfer
--> FOAM Warning : 
    From void* Foam::dlLibraryTable::openLibrary(const Foam::fileName&, bool)
    in file db/dynamicLibrary/dlLibraryTable/dlLibraryTable.C at line 188
    Could not load "libpetscFoam.so"
libpetscFoam.so: cannot open shared object file: No such file or directory
Processor 119: field transfer
--> FOAM Warning : 
    From void* Foam::dlLibraryTable::openLibrary(const Foam::fileName&, bool)
    in file db/dynamicLibrary/dlLibraryTable/dlLibraryTable.C at line 188
    Could not load "libpetscFoam.so"
libpetscFoam.so: cannot open shared object file: No such file or directory
Processor 120: field transfer
--> FOAM Warning : 
    From void* Foam::dlLibraryTable::openLibrary(const Foam::fileName&, bool)
    in file db/dynamicLibrary/dlLibraryTable/dlLibraryTable.C at line 188
    Could not load "libpetscFoam.so"
libpetscFoam.so: cannot open shared object file: No such file or directory
Processor 121: field transfer
--> FOAM Warning : 
    From void* Foam::dlLibraryTable::openLibrary(const Foam::fileName&, bool)
    in file db/dynamicLibrary/dlLibraryTable/dlLibraryTable.C at line 188
    Could not load "libpetscFoam.so"
libpetscFoam.so: cannot open shared object file: No such file or directory
Processor 122: field transfer
--> FOAM Warning : 
    From void* Foam::dlLibraryTable::openLibrary(const Foam::fileName&, bool)
    in file db/dynamicLibrary/dlLibraryTable/dlLibraryTable.C at line 188
    Could not load "libpetscFoam.so"
libpetscFoam.so: cannot open shared object file: No such file or directory
Processor 123: field transfer
--> FOAM Warning : 
    From void* Foam::dlLibraryTable::openLibrary(const Foam::fileName&, bool)
    in file db/dynamicLibrary/dlLibraryTable/dlLibraryTable.C at line 188
    Could not load "libpetscFoam.so"
libpetscFoam.so: cannot open shared object file: No such file or directory
Processor 124: field transfer
--> FOAM Warning : 
    From void* Foam::dlLibraryTable::openLibrary(const Foam::fileName&, bool)
    in file db/dynamicLibrary/dlLibraryTable/dlLibraryTable.C at line 188
    Could not load "libpetscFoam.so"
libpetscFoam.so: cannot open shared object file: No such file or directory
Processor 125: field transfer
--> FOAM Warning : 
    From void* Foam::dlLibraryTable::openLibrary(const Foam::fileName&, bool)
    in file db/dynamicLibrary/dlLibraryTable/dlLibraryTable.C at line 188
    Could not load "libpetscFoam.so"
libpetscFoam.so: cannot open shared object file: No such file or directory
Processor 126: field transfer
--> FOAM Warning : 
    From void* Foam::dlLibraryTable::openLibrary(const Foam::fileName&, bool)
    in file db/dynamicLibrary/dlLibraryTable/dlLibraryTable.C at line 188
    Could not load "libpetscFoam.so"
libpetscFoam.so: cannot open shared object file: No such file or directory
Processor 127: field transfer
--> FOAM Warning : 
    From void* Foam::dlLibraryTable::openLibrary(const Foam::fileName&, bool)
    in file db/dynamicLibrary/dlLibraryTable/dlLibraryTable.C at line 188
    Could not load "libpetscFoam.so"
libpetscFoam.so: cannot open shared object file: No such file or directory
Processor 128: field transfer
--> FOAM Warning : 
    From void* Foam::dlLibraryTable::openLibrary(const Foam::fileName&, bool)
    in file db/dynamicLibrary/dlLibraryTable/dlLibraryTable.C at line 188
    Could not load "libpetscFoam.so"
libpetscFoam.so: cannot open shared object file: No such file or directory
Processor 129: field transfer
--> FOAM Warning : 
    From void* Foam::dlLibraryTable::openLibrary(const Foam::fileName&, bool)
    in file db/dynamicLibrary/dlLibraryTable/dlLibraryTable.C at line 188
    Could not load "libpetscFoam.so"
libpetscFoam.so: cannot open shared object file: No such file or directory
Processor 130: field transfer
--> FOAM Warning : 
    From void* Foam::dlLibraryTable::openLibrary(const Foam::fileName&, bool)
    in file db/dynamicLibrary/dlLibraryTable/dlLibraryTable.C at line 188
    Could not load "libpetscFoam.so"
libpetscFoam.so: cannot open shared object file: No such file or directory
Processor 131: field transfer
--> FOAM Warning : 
    From void* Foam::dlLibraryTable::openLibrary(const Foam::fileName&, bool)
    in file db/dynamicLibrary/dlLibraryTable/dlLibraryTable.C at line 188
    Could not load "libpetscFoam.so"
libpetscFoam.so: cannot open shared object file: No such file or directory
Processor 132: field transfer
--> FOAM Warning : 
    From void* Foam::dlLibraryTable::openLibrary(const Foam::fileName&, bool)
    in file db/dynamicLibrary/dlLibraryTable/dlLibraryTable.C at line 188
    Could not load "libpetscFoam.so"
libpetscFoam.so: cannot open shared object file: No such file or directory
Processor 133: field transfer
--> FOAM Warning : 
    From void* Foam::dlLibraryTable::openLibrary(const Foam::fileName&, bool)
    in file db/dynamicLibrary/dlLibraryTable/dlLibraryTable.C at line 188
    Could not load "libpetscFoam.so"
libpetscFoam.so: cannot open shared object file: No such file or directory
Processor 134: field transfer
--> FOAM Warning : 
    From void* Foam::dlLibraryTable::openLibrary(const Foam::fileName&, bool)
    in file db/dynamicLibrary/dlLibraryTable/dlLibraryTable.C at line 188
    Could not load "libpetscFoam.so"
libpetscFoam.so: cannot open shared object file: No such file or directory
Processor 135: field transfer
--> FOAM Warning : 
    From void* Foam::dlLibraryTable::openLibrary(const Foam::fileName&, bool)
    in file db/dynamicLibrary/dlLibraryTable/dlLibraryTable.C at line 188
    Could not load "libpetscFoam.so"
libpetscFoam.so: cannot open shared object file: No such file or directory
Processor 136: field transfer
--> FOAM Warning : 
    From void* Foam::dlLibraryTable::openLibrary(const Foam::fileName&, bool)
    in file db/dynamicLibrary/dlLibraryTable/dlLibraryTable.C at line 188
    Could not load "libpetscFoam.so"
libpetscFoam.so: cannot open shared object file: No such file or directory
Processor 137: field transfer
--> FOAM Warning : 
    From void* Foam::dlLibraryTable::openLibrary(const Foam::fileName&, bool)
    in file db/dynamicLibrary/dlLibraryTable/dlLibraryTable.C at line 188
    Could not load "libpetscFoam.so"
libpetscFoam.so: cannot open shared object file: No such file or directory
Processor 138: field transfer
--> FOAM Warning : 
    From void* Foam::dlLibraryTable::openLibrary(const Foam::fileName&, bool)
    in file db/dynamicLibrary/dlLibraryTable/dlLibraryTable.C at line 188
    Could not load "libpetscFoam.so"
libpetscFoam.so: cannot open shared object file: No such file or directory
Processor 139: field transfer
--> FOAM Warning : 
    From void* Foam::dlLibraryTable::openLibrary(const Foam::fileName&, bool)
    in file db/dynamicLibrary/dlLibraryTable/dlLibraryTable.C at line 188
    Could not load "libpetscFoam.so"
libpetscFoam.so: cannot open shared object file: No such file or directory
Processor 140: field transfer
--> FOAM Warning : 
    From void* Foam::dlLibraryTable::openLibrary(const Foam::fileName&, bool)
    in file db/dynamicLibrary/dlLibraryTable/dlLibraryTable.C at line 188
    Could not load "libpetscFoam.so"
libpetscFoam.so: cannot open shared object file: No such file or directory
Processor 141: field transfer
--> FOAM Warning : 
    From void* Foam::dlLibraryTable::openLibrary(const Foam::fileName&, bool)
    in file db/dynamicLibrary/dlLibraryTable/dlLibraryTable.C at line 188
    Could not load "libpetscFoam.so"
libpetscFoam.so: cannot open shared object file: No such file or directory
Processor 142: field transfer
--> FOAM Warning : 
    From void* Foam::dlLibraryTable::openLibrary(const Foam::fileName&, bool)
    in file db/dynamicLibrary/dlLibraryTable/dlLibraryTable.C at line 188
    Could not load "libpetscFoam.so"
libpetscFoam.so: cannot open shared object file: No such file or directory
Processor 143: field transfer
--> FOAM Warning : 
    From void* Foam::dlLibraryTable::openLibrary(const Foam::fileName&, bool)
    in file db/dynamicLibrary/dlLibraryTable/dlLibraryTable.C at line 188
    Could not load "libpetscFoam.so"
libpetscFoam.so: cannot open shared object file: No such file or directory
Processor 144: field transfer
--> FOAM Warning : 
    From void* Foam::dlLibraryTable::openLibrary(const Foam::fileName&, bool)
    in file db/dynamicLibrary/dlLibraryTable/dlLibraryTable.C at line 188
    Could not load "libpetscFoam.so"
libpetscFoam.so: cannot open shared object file: No such file or directory
Processor 145: field transfer
--> FOAM Warning : 
    From void* Foam::dlLibraryTable::openLibrary(const Foam::fileName&, bool)
    in file db/dynamicLibrary/dlLibraryTable/dlLibraryTable.C at line 188
    Could not load "libpetscFoam.so"
libpetscFoam.so: cannot open shared object file: No such file or directory
Processor 146: field transfer
--> FOAM Warning : 
    From void* Foam::dlLibraryTable::openLibrary(const Foam::fileName&, bool)
    in file db/dynamicLibrary/dlLibraryTable/dlLibraryTable.C at line 188
    Could not load "libpetscFoam.so"
libpetscFoam.so: cannot open shared object file: No such file or directory
Processor 147: field transfer
--> FOAM Warning : 
    From void* Foam::dlLibraryTable::openLibrary(const Foam::fileName&, bool)
    in file db/dynamicLibrary/dlLibraryTable/dlLibraryTable.C at line 188
    Could not load "libpetscFoam.so"
libpetscFoam.so: cannot open shared object file: No such file or directory
Processor 148: field transfer
--> FOAM Warning : 
    From void* Foam::dlLibraryTable::openLibrary(const Foam::fileName&, bool)
    in file db/dynamicLibrary/dlLibraryTable/dlLibraryTable.C at line 188
    Could not load "libpetscFoam.so"
libpetscFoam.so: cannot open shared object file: No such file or directory
Processor 149: field transfer
--> FOAM Warning : 
    From void* Foam::dlLibraryTable::openLibrary(const Foam::fileName&, bool)
    in file db/dynamicLibrary/dlLibraryTable/dlLibraryTable.C at line 188
    Could not load "libpetscFoam.so"
libpetscFoam.so: cannot open shared object file: No such file or directory
Processor 150: field transfer
--> FOAM Warning : 
    From void* Foam::dlLibraryTable::openLibrary(const Foam::fileName&, bool)
    in file db/dynamicLibrary/dlLibraryTable/dlLibraryTable.C at line 188
    Could not load "libpetscFoam.so"
libpetscFoam.so: cannot open shared object file: No such file or directory
Processor 151: field transfer
--> FOAM Warning : 
    From void* Foam::dlLibraryTable::openLibrary(const Foam::fileName&, bool)
    in file db/dynamicLibrary/dlLibraryTable/dlLibraryTable.C at line 188
    Could not load "libpetscFoam.so"
libpetscFoam.so: cannot open shared object file: No such file or directory

End

