/*---------------------------------------------------------------------------*\
| =========                 |                                                 |
| \\      /  F ield         | OpenFOAM: The Open Source CFD Toolbox           |
|  \\    /   O peration     | Version:  2306                                  |
|   \\  /    A nd           | Website:  www.openfoam.com                      |
|    \\/     M anipulation  |                                                 |
\*---------------------------------------------------------------------------*/
Build  : a6e826bd55-20230630 OPENFOAM=2306 version=v2306
Arch   : "LSB;label=32;scalar=64"
Exec   : icoFoam -parallel -case /tmp/lidDrivenCavity/workspace/121a19c5b463670ae33fd2461c616e02/case
Date   : Dec 16 2023
Time   : 21:49:06
Host   : nla-gpu2.ianm.kit.edu
PID    : 184649
I/O    : uncollated
Case   : /tmp/lidDrivenCavity/workspace/121a19c5b463670ae33fd2461c616e02/case
nProcs : 8
Hosts  :
(
    (nla-gpu2.ianm.kit.edu 8)
)
Pstream initialized with:
    floatTransfer      : false
    nProcsSimpleSum    : 0
    nonBlockingExchange: 0 (tuning: 0)
    exchange algorithm : -1
    commsType          : nonBlocking
    polling iterations : 0
trapFpe: Floating point exception trapping enabled (FOAM_SIGFPE).
fileModificationChecking : Monitoring run-time modified files using timeStampMaster (fileModificationSkew 5, maxFileModificationPolls 20)
allowSystemOperations : Allowing user-supplied system call operations

// * * * * * * * * * * * * * * * * * * * * * * * * * * * * * * * * * * * * * //
Create time

--> FOAM Warning : 
    From void* Foam::dlLibraryTable::openLibrary(const Foam::fileName&, bool)
    in file db/dynamicLibrary/dlLibraryTable/dlLibraryTable.C at line 188
    Could not load "libpetscFoam.so"
libpetscFoam.so: cannot open shared object file: No such file or directory
Create mesh for time = 0


PISO: Operating solver in PISO mode

Reading transportProperties

Reading field p

Reading field U

Reading/calculating face flux field phi


Starting time loop

Time = 0.000125

Courant Number mean: 8.02505e-18 max: 4.85723e-14
[INFO] MatrixAssemblyU: 815.484 [ms]
DILUPBiCGStab:  Solving for Ux, Initial residual = 1, Final residual = 0.0211815, No Iterations 5
DILUPBiCGStab:  Solving for Uy:  solution singularity
DILUPBiCGStab:  Solving for Uz:  solution singularity
[INFO] MomentumPredictor: 3700.27 [ms]
[INFO] MatrixAssemblyPI: 822.51 [ms]
[INFO] AdjustPhi: 45.235 [ms]
[INFO] ConstrainPressure: 0.012 [ms]
[INFO] MatrixAssemblyPII: 231.144 [ms]
[OGL LOG][lduLduBase.H:119] Initialising OGL
	OGL commit:  1421b02+
	Branch: feat/on_device_permute 
	Build type: Release
	Ginkgo version: 1.7.0 ( develop)
	Ginkgo commit: sparse-communicator
	MPI is GPU aware: 1
	Forces host buffer based communication: 0
	CPU ranks per GPU: 1
	Matrix format: Coo
	End OGL_INFO
[OGL LOG][Proc: 0]: global_index_init: 4.148 [ms]
[OGL LOG][Proc: 0]p_local_cols: call_init: 0.037 [ms]
[OGL LOG][Proc: 0]p_local_rows: call_init: 0.003 [ms]
[OGL LOG][Proc: 0]p_local_ldu_map: call_init: 0.153 [ms]
[OGL LOG][Proc: 0]p_local_coeffs: call_init: 0.757 [ms]
[OGL LOG][Proc: 0]p_non_local_cols: call_init: 0.005 [ms]
[OGL LOG][Proc: 0]p_non_local_rows: call_init: 0.002 [ms]
[OGL LOG][Proc: 0]p_non_local_ldu_map: call_init: 0.002 [ms]
[OGL LOG][Proc: 0]p_non_local_coeffs: call_init: 0.002 [ms]
[OGL LOG][Proc: 0]p: init_local_sparsity_pattern: 2228.34 [ms]
[OGL LOG][Proc: 0]p: init_non_local_sparsity_pattern: 13.29 [ms]
[OGL LOG][Proc: 0]p: update_local_matrix_data: 164.687 [ms]
[OGL LOG][Proc: 0]p: update_non_local_matrix_data: 0.393 [ms]
[OGL LOG][Proc: 0]device_partition: call_init: 0.2 [ms]
[OGL LOG][Proc: 0]p_matrix: call_init: 351.669 [ms]
[OGL LOG][Proc: 0]p_rhs: call_init: 28.21 [ms]
[OGL LOG][Proc: 0]p_solution: call_init: 4.789 [ms]
[OGL LOG][Preconditioner.H:121] Generate preconditioner BJ MaxBlockSize 1
[OGL LOG][Proc: 0]p: init_precond: 4.219 [ms]
[OGL LOG][StoppingCriterion.H:237] Creating stopping criterion with minIter 0 frequency 1
[OGL LOG][Proc: 0]p: generate_solver: 0.017 [ms]
[OGL LOG][Proc: 0]p: solve: 14875.6 [ms]
[OGL LOG][Proc: 0]p: copy_x_back: 20.415 [ms]
[OGL LOG][lduLduBase.H:330] 
Statistics:
	Time per iteration: 4592 [mu s]
	Time per residual norm calculation: 1133.000000 [mu s]
	Time per iteration and DOF: 0.071750 [ns]
	Retrieve results bandwidth 3.134000 [GByte/s]
[OGL LOG][Proc: 0]p: solve_multi_gpu: 15308.3 [ms]
BJhipGKOCG:  Solving for p, Initial residual = 1, Final residual = 9.98163e-05, No Iterations 3239
[INFO] SolveP: 17971.4 [ms]
time step continuity errors : sum local = 2.53799e-09, global = -2.67548e-21, cumulative = -2.67548e-21
[INFO] ContinuityError: 115.128 [ms]
[INFO] CorrectBoundary: 1.494 [ms]
[INFO] PISOStep: 19453.4 [ms]
[INFO] MatrixAssemblyPI: 789.033 [ms]
[INFO] AdjustPhi: 42.212 [ms]
[INFO] ConstrainPressure: 0.004 [ms]
[INFO] MatrixAssemblyPII: 232.263 [ms]
[OGL LOG][Proc: 0]: global_index_init: 0.752 [ms]
[OGL LOG][Proc: 0]p_local_coeffs: call_update: 0.003 [ms]
[OGL LOG][Proc: 0]p_non_local_coeffs: call_update: 0 [ms]
[OGL LOG][Proc: 0]p: update_local_matrix_data: 133.905 [ms]
[OGL LOG][Proc: 0]p: update_non_local_matrix_data: 0.374 [ms]
[OGL LOG][Proc: 0]p_matrix: call_update: 4.434 [ms]
[OGL LOG][Proc: 0]p_rhs: call_update: 5.884 [ms]
[OGL LOG][Preconditioner.H:121] Generate preconditioner BJ MaxBlockSize 1
[OGL LOG][Proc: 0]p: init_precond: 1.98 [ms]
[OGL LOG][StoppingCriterion.H:237] Creating stopping criterion with minIter 1943 frequency 17
[OGL LOG][Proc: 0]p: generate_solver: 0.002 [ms]
[OGL LOG][Proc: 0]p: solve: 12459.8 [ms]
[OGL LOG][Proc: 0]p: copy_x_back: 24.282 [ms]
[OGL LOG][lduLduBase.H:330] 
Statistics:
	Time per iteration: 3856 [mu s]
	Time per residual norm calculation: 368.000000 [mu s]
	Time per iteration and DOF: 0.060250 [ns]
	Retrieve results bandwidth 2.635000 [GByte/s]
[OGL LOG][Proc: 0]p: solve_multi_gpu: 12508.9 [ms]
BJhipGKOCG:  Solving for p, Initial residual = 0.822351, Final residual = 9.28252e-05, No Iterations 3231
[INFO] SolveP: 12666.6 [ms]
time step continuity errors : sum local = 2.8426e-09, global = 5.56847e-22, cumulative = -2.11863e-21
[INFO] ContinuityError: 115.991 [ms]
[INFO] CorrectBoundary: 5.374 [ms]
[INFO] PISOStep: 14111.3 [ms]
[INFO] TimeStep: 38198.3 [ms]
ExecutionTime = 48.81 s  ClockTime = 42 s

Time = 0.00025

Courant Number mean: 0.0108822 max: 0.437683
[INFO] MatrixAssemblyU: 614.005 [ms]
DILUPBiCGStab:  Solving for Ux, Initial residual = 0.108151, Final residual = 0.012762, No Iterations 5
DILUPBiCGStab:  Solving for Uy, Initial residual = 0.484293, Final residual = 0.050229, No Iterations 5
DILUPBiCGStab:  Solving for Uz, Initial residual = 0.996437, Final residual = 0.114498, No Iterations 5
[INFO] MomentumPredictor: 6991.58 [ms]
[INFO] MatrixAssemblyPI: 809.728 [ms]
[INFO] AdjustPhi: 43.934 [ms]
[INFO] ConstrainPressure: 0.004 [ms]
[INFO] MatrixAssemblyPII: 231.61 [ms]
[OGL LOG][Proc: 0]: global_index_init: 0.03 [ms]
[OGL LOG][Proc: 0]p_local_coeffs: call_update: 0 [ms]
[OGL LOG][Proc: 0]p_non_local_coeffs: call_update: 0 [ms]
[OGL LOG][Proc: 0]p: update_local_matrix_data: 126.509 [ms]
[OGL LOG][Proc: 0]p: update_non_local_matrix_data: 0.372 [ms]
[OGL LOG][Proc: 0]p_matrix: call_update: 4.497 [ms]
[OGL LOG][Proc: 0]p_rhs: call_update: 6.807 [ms]
[OGL LOG][Preconditioner.H:121] Generate preconditioner BJ MaxBlockSize 1
[OGL LOG][Proc: 0]p: init_precond: 3.208 [ms]
[OGL LOG][StoppingCriterion.H:237] Creating stopping criterion with minIter 1938 frequency 11
[OGL LOG][Proc: 0]p: generate_solver: 0.002 [ms]
[OGL LOG][Proc: 0]p: solve: 12248 [ms]
[OGL LOG][Proc: 0]p: copy_x_back: 20.434 [ms]
[OGL LOG][lduLduBase.H:330] 
Statistics:
	Time per iteration: 3838 [mu s]
	Time per residual norm calculation: 386.000000 [mu s]
	Time per iteration and DOF: 0.059969 [ns]
	Retrieve results bandwidth 3.132000 [GByte/s]
[OGL LOG][Proc: 0]p: solve_multi_gpu: 12293.7 [ms]
BJhipGKOCG:  Solving for p, Initial residual = 0.905675, Final residual = 9.20246e-05, No Iterations 3191
[INFO] SolveP: 12446.9 [ms]
time step continuity errors : sum local = 6.43071e-09, global = 6.41365e-22, cumulative = -1.47727e-21
[INFO] ContinuityError: 118.017 [ms]
[INFO] CorrectBoundary: 2.398 [ms]
[INFO] PISOStep: 13918.5 [ms]
[INFO] MatrixAssemblyPI: 790.863 [ms]
[INFO] AdjustPhi: 47.184 [ms]
[INFO] ConstrainPressure: 0.004 [ms]
[INFO] MatrixAssemblyPII: 231.463 [ms]
[OGL LOG][Proc: 0]: global_index_init: 0.278 [ms]
[OGL LOG][Proc: 0]p_local_coeffs: call_update: 0 [ms]
[OGL LOG][Proc: 0]p_non_local_coeffs: call_update: 0 [ms]
[OGL LOG][Proc: 0]p: update_local_matrix_data: 131.287 [ms]
[OGL LOG][Proc: 0]p: update_non_local_matrix_data: 0.387 [ms]
[OGL LOG][Proc: 0]p_matrix: call_update: 4.574 [ms]
[OGL LOG][Proc: 0]p_rhs: call_update: 5.83 [ms]
[OGL LOG][Preconditioner.H:121] Generate preconditioner BJ MaxBlockSize 1
[OGL LOG][Proc: 0]p: init_precond: 1.927 [ms]
[OGL LOG][StoppingCriterion.H:237] Creating stopping criterion with minIter 1914 frequency 11
[OGL LOG][Proc: 0]p: generate_solver: 0.003 [ms]
[OGL LOG][Proc: 0]p: solve: 12418 [ms]
[OGL LOG][Proc: 0]p: copy_x_back: 21.143 [ms]
[OGL LOG][lduLduBase.H:330] 
Statistics:
	Time per iteration: 3905 [mu s]
	Time per residual norm calculation: 368.000000 [mu s]
	Time per iteration and DOF: 0.061016 [ns]
	Retrieve results bandwidth 3.027000 [GByte/s]
[OGL LOG][Proc: 0]p: solve_multi_gpu: 12465.8 [ms]
BJhipGKOCG:  Solving for p, Initial residual = 0.856958, Final residual = 9.70223e-05, No Iterations 3180
[INFO] SolveP: 12620.1 [ms]
time step continuity errors : sum local = 6.90593e-09, global = 3.19263e-22, cumulative = -1.158e-21
[INFO] ContinuityError: 115.276 [ms]
[INFO] CorrectBoundary: 1.337 [ms]
[INFO] PISOStep: 14071.1 [ms]
[INFO] TimeStep: 35699.9 [ms]
ExecutionTime = 92.32 s  ClockTime = 78 s

Time = 0.000375

Courant Number mean: 0.016989 max: 0.511333
[INFO] MatrixAssemblyU: 619.134 [ms]
DILUPBiCGStab:  Solving for Ux, Initial residual = 0.0537294, Final residual = 0.0052494, No Iterations 5
DILUPBiCGStab:  Solving for Uy, Initial residual = 0.261855, Final residual = 0.0256297, No Iterations 5
DILUPBiCGStab:  Solving for Uz, Initial residual = 0.875254, Final residual = 0.0869854, No Iterations 5
[INFO] MomentumPredictor: 7022.66 [ms]
[INFO] MatrixAssemblyPI: 806.492 [ms]
[INFO] AdjustPhi: 44.339 [ms]
[INFO] ConstrainPressure: 0.004 [ms]
[INFO] MatrixAssemblyPII: 230.706 [ms]
[OGL LOG][Proc: 0]: global_index_init: 0.068 [ms]
[OGL LOG][Proc: 0]p_local_coeffs: call_update: 0 [ms]
[OGL LOG][Proc: 0]p_non_local_coeffs: call_update: 0 [ms]
[OGL LOG][Proc: 0]p: update_local_matrix_data: 126.169 [ms]
[OGL LOG][Proc: 0]p: update_non_local_matrix_data: 0.402 [ms]
[OGL LOG][Proc: 0]p_matrix: call_update: 4.528 [ms]
[OGL LOG][Proc: 0]p_rhs: call_update: 12.174 [ms]
[OGL LOG][Preconditioner.H:121] Generate preconditioner BJ MaxBlockSize 1
[OGL LOG][Proc: 0]p: init_precond: 2.001 [ms]
[OGL LOG][StoppingCriterion.H:237] Creating stopping criterion with minIter 1908 frequency 11
[OGL LOG][Proc: 0]p: generate_solver: 0.002 [ms]
[OGL LOG][Proc: 0]p: solve: 7443.27 [ms]
[OGL LOG][Proc: 0]p: copy_x_back: 21.372 [ms]
[OGL LOG][lduLduBase.H:330] 
Statistics:
	Time per iteration: 3886 [mu s]
	Time per residual norm calculation: 404.000000 [mu s]
	Time per iteration and DOF: 0.060719 [ns]
	Retrieve results bandwidth 2.994000 [GByte/s]
[OGL LOG][Proc: 0]p: solve_multi_gpu: 7495.42 [ms]
BJhipGKOCG:  Solving for p, Initial residual = 0.9405, Final residual = 3.78597e-05, No Iterations 1915
[INFO] SolveP: 7644.36 [ms]
time step continuity errors : sum local = 3.56144e-09, global = 5.54974e-22, cumulative = -6.03031e-22
[INFO] ContinuityError: 116.85 [ms]
[INFO] CorrectBoundary: 2.751 [ms]
[INFO] PISOStep: 9102.72 [ms]
[INFO] MatrixAssemblyPI: 791.48 [ms]
[INFO] AdjustPhi: 46.016 [ms]
[INFO] ConstrainPressure: 0.004 [ms]
[INFO] MatrixAssemblyPII: 231.627 [ms]
[OGL LOG][Proc: 0]: global_index_init: 1.437 [ms]
[OGL LOG][Proc: 0]p_local_coeffs: call_update: 0 [ms]
[OGL LOG][Proc: 0]p_non_local_coeffs: call_update: 0 [ms]
[OGL LOG][Proc: 0]p: update_local_matrix_data: 124.449 [ms]
[OGL LOG][Proc: 0]p: update_non_local_matrix_data: 0.37 [ms]
[OGL LOG][Proc: 0]p_matrix: call_update: 4.477 [ms]
[OGL LOG][Proc: 0]p_rhs: call_update: 7.983 [ms]
[OGL LOG][Preconditioner.H:121] Generate preconditioner BJ MaxBlockSize 1
[OGL LOG][Proc: 0]p: init_precond: 1.936 [ms]
[OGL LOG][StoppingCriterion.H:237] Creating stopping criterion with minIter 1149 frequency 9
[OGL LOG][Proc: 0]p: generate_solver: 0.002 [ms]
[OGL LOG][Proc: 0]p: solve: 6067.66 [ms]
[OGL LOG][Proc: 0]p: copy_x_back: 21.019 [ms]
[OGL LOG][lduLduBase.H:330] 
Statistics:
	Time per iteration: 3940 [mu s]
	Time per residual norm calculation: 376.000000 [mu s]
	Time per iteration and DOF: 0.061562 [ns]
	Retrieve results bandwidth 3.044000 [GByte/s]
[OGL LOG][Proc: 0]p: solve_multi_gpu: 6119.21 [ms]
BJhipGKOCG:  Solving for p, Initial residual = 0.908763, Final residual = 8.63539e-05, No Iterations 1540
[INFO] SolveP: 6267.3 [ms]
time step continuity errors : sum local = 7.61931e-09, global = 5.92255e-22, cumulative = -1.07762e-23
[INFO] ContinuityError: 119.467 [ms]
[INFO] CorrectBoundary: 1.33 [ms]
[INFO] PISOStep: 7722.55 [ms]
[INFO] TimeStep: 24570.9 [ms]
ExecutionTime = 121.09 s  ClockTime = 102 s

Time = 0.0005

Courant Number mean: 0.0206053 max: 0.477588
[INFO] MatrixAssemblyU: 614.35 [ms]
DILUPBiCGStab:  Solving for Ux, Initial residual = 0.0416096, Final residual = 0.00486294, No Iterations 5
DILUPBiCGStab:  Solving for Uy, Initial residual = 0.214084, Final residual = 0.0232197, No Iterations 5
DILUPBiCGStab:  Solving for Uz, Initial residual = 0.781045, Final residual = 0.0637351, No Iterations 5
[INFO] MomentumPredictor: 7045.88 [ms]
[INFO] MatrixAssemblyPI: 804.11 [ms]
[INFO] AdjustPhi: 45.544 [ms]
[INFO] ConstrainPressure: 0.004 [ms]
[INFO] MatrixAssemblyPII: 230.518 [ms]
[OGL LOG][Proc: 0]: global_index_init: 0.03 [ms]
[OGL LOG][Proc: 0]p_local_coeffs: call_update: 0 [ms]
[OGL LOG][Proc: 0]p_non_local_coeffs: call_update: 0 [ms]
[OGL LOG][Proc: 0]p: update_local_matrix_data: 123.076 [ms]
[OGL LOG][Proc: 0]p: update_non_local_matrix_data: 0.365 [ms]
[OGL LOG][Proc: 0]p_matrix: call_update: 4.269 [ms]
[OGL LOG][Proc: 0]p_rhs: call_update: 7.39 [ms]
[OGL LOG][Preconditioner.H:121] Generate preconditioner BJ MaxBlockSize 1
[OGL LOG][Proc: 0]p: init_precond: 1.979 [ms]
[OGL LOG][StoppingCriterion.H:237] Creating stopping criterion with minIter 924 frequency 7
[OGL LOG][Proc: 0]p: generate_solver: 0.003 [ms]
[OGL LOG][Proc: 0]p: solve: 5964.34 [ms]
[OGL LOG][Proc: 0]p: copy_x_back: 20.377 [ms]
[OGL LOG][lduLduBase.H:330] 
Statistics:
	Time per iteration: 3942 [mu s]
	Time per residual norm calculation: 390.000000 [mu s]
	Time per iteration and DOF: 0.061594 [ns]
	Retrieve results bandwidth 3.140000 [GByte/s]
[OGL LOG][Proc: 0]p: solve_multi_gpu: 6019.67 [ms]
BJhipGKOCG:  Solving for p, Initial residual = 0.936908, Final residual = 9.91552e-05, No Iterations 1513
[INFO] SolveP: 6165.53 [ms]
time step continuity errors : sum local = 1.10986e-08, global = 5.63982e-22, cumulative = 5.53206e-22
[INFO] ContinuityError: 115.533 [ms]
[INFO] CorrectBoundary: 1.83 [ms]
[INFO] PISOStep: 7621.3 [ms]
[INFO] MatrixAssemblyPI: 784.523 [ms]
[INFO] AdjustPhi: 47.47 [ms]
[INFO] ConstrainPressure: 0.004 [ms]
[INFO] MatrixAssemblyPII: 230.507 [ms]
[OGL LOG][Proc: 0]: global_index_init: 0.549 [ms]
[OGL LOG][Proc: 0]p_local_coeffs: call_update: 0 [ms]
[OGL LOG][Proc: 0]p_non_local_coeffs: call_update: 0 [ms]
[OGL LOG][Proc: 0]p: update_local_matrix_data: 125.542 [ms]
[OGL LOG][Proc: 0]p: update_non_local_matrix_data: 0.395 [ms]
[OGL LOG][Proc: 0]p_matrix: call_update: 4.485 [ms]
[OGL LOG][Proc: 0]p_rhs: call_update: 5.837 [ms]
[OGL LOG][Preconditioner.H:121] Generate preconditioner BJ MaxBlockSize 1
[OGL LOG][Proc: 0]p: init_precond: 1.954 [ms]
[OGL LOG][StoppingCriterion.H:237] Creating stopping criterion with minIter 907 frequency 7
[OGL LOG][Proc: 0]p: generate_solver: 0.003 [ms]
[OGL LOG][Proc: 0]p: solve: 5970.69 [ms]
[OGL LOG][Proc: 0]p: copy_x_back: 21.499 [ms]
[OGL LOG][lduLduBase.H:330] 
Statistics:
	Time per iteration: 3964 [mu s]
	Time per residual norm calculation: 383.000000 [mu s]
	Time per iteration and DOF: 0.061937 [ns]
	Retrieve results bandwidth 2.976000 [GByte/s]
[OGL LOG][Proc: 0]p: solve_multi_gpu: 6023.69 [ms]
BJhipGKOCG:  Solving for p, Initial residual = 0.879586, Final residual = 9.45426e-05, No Iterations 1506
[INFO] SolveP: 6172.52 [ms]
time step continuity errors : sum local = 1.04717e-08, global = 7.22814e-22, cumulative = 1.27602e-21
[INFO] ContinuityError: 113.975 [ms]
[INFO] CorrectBoundary: 1.609 [ms]
[INFO] PISOStep: 7607.89 [ms]
[INFO] TimeStep: 22992.8 [ms]
ExecutionTime = 147.73 s  ClockTime = 125 s

Time = 0.000625

Courant Number mean: 0.0236937 max: 0.555601
[INFO] MatrixAssemblyU: 613.667 [ms]
DILUPBiCGStab:  Solving for Ux, Initial residual = 0.0376074, Final residual = 0.00440269, No Iterations 5
DILUPBiCGStab:  Solving for Uy, Initial residual = 0.18469, Final residual = 0.0189858, No Iterations 5
DILUPBiCGStab:  Solving for Uz, Initial residual = 0.751094, Final residual = 0.0545136, No Iterations 5
[INFO] MomentumPredictor: 7010.02 [ms]
[INFO] MatrixAssemblyPI: 803.238 [ms]
[INFO] AdjustPhi: 46.163 [ms]
[INFO] ConstrainPressure: 0.004 [ms]
[INFO] MatrixAssemblyPII: 230.671 [ms]
[OGL LOG][Proc: 0]: global_index_init: 0.033 [ms]
[OGL LOG][Proc: 0]p_local_coeffs: call_update: 0 [ms]
[OGL LOG][Proc: 0]p_non_local_coeffs: call_update: 0 [ms]
[OGL LOG][Proc: 0]p: update_local_matrix_data: 130.772 [ms]
[OGL LOG][Proc: 0]p: update_non_local_matrix_data: 0.472 [ms]
[OGL LOG][Proc: 0]p_matrix: call_update: 4.235 [ms]
[OGL LOG][Proc: 0]p_rhs: call_update: 5.46 [ms]
[OGL LOG][Preconditioner.H:121] Generate preconditioner BJ MaxBlockSize 1
[OGL LOG][Proc: 0]p: init_precond: 2.026 [ms]
[OGL LOG][StoppingCriterion.H:237] Creating stopping criterion with minIter 903 frequency 7
[OGL LOG][Proc: 0]p: generate_solver: 0.002 [ms]
[OGL LOG][Proc: 0]p: solve: 11213 [ms]
[OGL LOG][Proc: 0]p: copy_x_back: 20.38 [ms]
[OGL LOG][lduLduBase.H:330] 
Statistics:
	Time per iteration: 3886 [mu s]
	Time per residual norm calculation: 387.000000 [mu s]
	Time per iteration and DOF: 0.060719 [ns]
	Retrieve results bandwidth 3.140000 [GByte/s]
[OGL LOG][Proc: 0]p: solve_multi_gpu: 11267.9 [ms]
BJhipGKOCG:  Solving for p, Initial residual = 0.953554, Final residual = 9.83758e-05, No Iterations 2885
[INFO] SolveP: 11426.2 [ms]
time step continuity errors : sum local = 1.21555e-08, global = 8.15781e-22, cumulative = 2.0918e-21
[INFO] ContinuityError: 119.746 [ms]
[INFO] CorrectBoundary: 2.148 [ms]
[INFO] PISOStep: 12887.6 [ms]
[INFO] MatrixAssemblyPI: 786.732 [ms]
[INFO] AdjustPhi: 46.643 [ms]
[INFO] ConstrainPressure: 0.004 [ms]
[INFO] MatrixAssemblyPII: 229.945 [ms]
[OGL LOG][Proc: 0]: global_index_init: 0.496 [ms]
[OGL LOG][Proc: 0]p_local_coeffs: call_update: 0 [ms]
[OGL LOG][Proc: 0]p_non_local_coeffs: call_update: 0 [ms]
[OGL LOG][Proc: 0]p: update_local_matrix_data: 130.695 [ms]
[OGL LOG][Proc: 0]p: update_non_local_matrix_data: 0.382 [ms]
[OGL LOG][Proc: 0]p_matrix: call_update: 4.431 [ms]
[OGL LOG][Proc: 0]p_rhs: call_update: 5.667 [ms]
[OGL LOG][Preconditioner.H:121] Generate preconditioner BJ MaxBlockSize 1
[OGL LOG][Proc: 0]p: init_precond: 1.96 [ms]
[OGL LOG][StoppingCriterion.H:237] Creating stopping criterion with minIter 1731 frequency 10
[OGL LOG][Proc: 0]p: generate_solver: 0.002 [ms]
[OGL LOG][Proc: 0]p: solve: 11437.9 [ms]
[OGL LOG][Proc: 0]p: copy_x_back: 20.823 [ms]
[OGL LOG][lduLduBase.H:330] 
Statistics:
	Time per iteration: 3983 [mu s]
	Time per residual norm calculation: 372.000000 [mu s]
	Time per iteration and DOF: 0.062234 [ns]
	Retrieve results bandwidth 3.073000 [GByte/s]
[OGL LOG][Proc: 0]p: solve_multi_gpu: 11490 [ms]
BJhipGKOCG:  Solving for p, Initial residual = 0.915161, Final residual = 9.4845e-05, No Iterations 2871
[INFO] SolveP: 11644.1 [ms]
time step continuity errors : sum local = 1.16491e-08, global = -2.11978e-22, cumulative = 1.87982e-21
[INFO] ContinuityError: 119.73 [ms]
[INFO] CorrectBoundary: 2.702 [ms]
[INFO] PISOStep: 13092.2 [ms]
[INFO] TimeStep: 33708.5 [ms]
ExecutionTime = 188.49 s  ClockTime = 159 s

Time = 0.00075

Courant Number mean: 0.026043 max: 0.483404
[INFO] MatrixAssemblyU: 614.657 [ms]
DILUPBiCGStab:  Solving for Ux, Initial residual = 0.0354047, Final residual = 0.00411949, No Iterations 5
DILUPBiCGStab:  Solving for Uy, Initial residual = 0.171425, Final residual = 0.0161213, No Iterations 5
DILUPBiCGStab:  Solving for Uz, Initial residual = 0.696983, Final residual = 0.0456416, No Iterations 5
[INFO] MomentumPredictor: 7009.06 [ms]
[INFO] MatrixAssemblyPI: 807.611 [ms]
[INFO] AdjustPhi: 50.391 [ms]
[INFO] ConstrainPressure: 0.004 [ms]
[INFO] MatrixAssemblyPII: 231.646 [ms]
[OGL LOG][Proc: 0]: global_index_init: 0.029 [ms]
[OGL LOG][Proc: 0]p_local_coeffs: call_update: 0 [ms]
[OGL LOG][Proc: 0]p_non_local_coeffs: call_update: 0 [ms]
[OGL LOG][Proc: 0]p: update_local_matrix_data: 132.462 [ms]
[OGL LOG][Proc: 0]p: update_non_local_matrix_data: 0.39 [ms]
[OGL LOG][Proc: 0]p_matrix: call_update: 4.508 [ms]
[OGL LOG][Proc: 0]p_rhs: call_update: 5.593 [ms]
[OGL LOG][Preconditioner.H:121] Generate preconditioner BJ MaxBlockSize 1
[OGL LOG][Proc: 0]p: init_precond: 1.962 [ms]
[OGL LOG][StoppingCriterion.H:237] Creating stopping criterion with minIter 1722 frequency 10
[OGL LOG][Proc: 0]p: generate_solver: 0.002 [ms]
[OGL LOG][Proc: 0]p: solve: 11949.6 [ms]
[OGL LOG][Proc: 0]p: copy_x_back: 21.702 [ms]
[OGL LOG][lduLduBase.H:330] 
Statistics:
	Time per iteration: 3865 [mu s]
	Time per residual norm calculation: 371.000000 [mu s]
	Time per iteration and DOF: 0.060391 [ns]
	Retrieve results bandwidth 2.949000 [GByte/s]
[OGL LOG][Proc: 0]p: solve_multi_gpu: 11995.8 [ms]
BJhipGKOCG:  Solving for p, Initial residual = 0.950376, Final residual = 8.98874e-05, No Iterations 3091
[INFO] SolveP: 12154.5 [ms]
time step continuity errors : sum local = 1.2806e-08, global = 1.06764e-21, cumulative = 2.94746e-21
[INFO] ContinuityError: 115.9 [ms]
[INFO] CorrectBoundary: 1.619 [ms]
[INFO] PISOStep: 13623 [ms]
[INFO] MatrixAssemblyPI: 783.433 [ms]
[INFO] AdjustPhi: 54.359 [ms]
[INFO] ConstrainPressure: 0.004 [ms]
[INFO] MatrixAssemblyPII: 231.84 [ms]
[OGL LOG][Proc: 0]: global_index_init: 0.031 [ms]
[OGL LOG][Proc: 0]p_local_coeffs: call_update: 0 [ms]
[OGL LOG][Proc: 0]p_non_local_coeffs: call_update: 0 [ms]
[OGL LOG][Proc: 0]p: update_local_matrix_data: 129.122 [ms]
[OGL LOG][Proc: 0]p: update_non_local_matrix_data: 0.385 [ms]
[OGL LOG][Proc: 0]p_matrix: call_update: 4.404 [ms]
[OGL LOG][Proc: 0]p_rhs: call_update: 6.737 [ms]
[OGL LOG][Preconditioner.H:121] Generate preconditioner BJ MaxBlockSize 1
[OGL LOG][Proc: 0]p: init_precond: 1.947 [ms]
[OGL LOG][StoppingCriterion.H:237] Creating stopping criterion with minIter 1854 frequency 11
[OGL LOG][Proc: 0]p: generate_solver: 0.002 [ms]
[OGL LOG][Proc: 0]p: solve: 12236.6 [ms]
[OGL LOG][Proc: 0]p: copy_x_back: 20.407 [ms]
[OGL LOG][lduLduBase.H:330] 
Statistics:
	Time per iteration: 3971 [mu s]
	Time per residual norm calculation: 381.000000 [mu s]
	Time per iteration and DOF: 0.062047 [ns]
	Retrieve results bandwidth 3.136000 [GByte/s]
[OGL LOG][Proc: 0]p: solve_multi_gpu: 12286.7 [ms]
BJhipGKOCG:  Solving for p, Initial residual = 0.890744, Final residual = 9.33617e-05, No Iterations 3081
[INFO] SolveP: 12439 [ms]
time step continuity errors : sum local = 1.35127e-08, global = 7.13695e-22, cumulative = 3.66116e-21
[INFO] ContinuityError: 120.129 [ms]
[INFO] CorrectBoundary: 3.309 [ms]
[INFO] PISOStep: 13893 [ms]
[INFO] TimeStep: 35242.7 [ms]
ExecutionTime = 231.31 s  ClockTime = 194 s

Time = 0.000875

Courant Number mean: 0.0282638 max: 0.611471
[INFO] MatrixAssemblyU: 618.975 [ms]
DILUPBiCGStab:  Solving for Ux, Initial residual = 0.0350616, Final residual = 0.00388811, No Iterations 5
DILUPBiCGStab:  Solving for Uy, Initial residual = 0.17633, Final residual = 0.0153428, No Iterations 5
DILUPBiCGStab:  Solving for Uz, Initial residual = 0.690154, Final residual = 0.040371, No Iterations 5
[INFO] MomentumPredictor: 7027.54 [ms]
[INFO] MatrixAssemblyPI: 805.791 [ms]
[INFO] AdjustPhi: 45.435 [ms]
[INFO] ConstrainPressure: 0.004 [ms]
[INFO] MatrixAssemblyPII: 231.259 [ms]
[OGL LOG][Proc: 0]: global_index_init: 0.241 [ms]
[OGL LOG][Proc: 0]p_local_coeffs: call_update: 0 [ms]
[OGL LOG][Proc: 0]p_non_local_coeffs: call_update: 0 [ms]
[OGL LOG][Proc: 0]p: update_local_matrix_data: 134.532 [ms]
[OGL LOG][Proc: 0]p: update_non_local_matrix_data: 0.378 [ms]
[OGL LOG][Proc: 0]p_matrix: call_update: 4.41 [ms]
[OGL LOG][Proc: 0]p_rhs: call_update: 6.903 [ms]
[OGL LOG][Preconditioner.H:121] Generate preconditioner BJ MaxBlockSize 1
[OGL LOG][Proc: 0]p: init_precond: 2.015 [ms]
[OGL LOG][StoppingCriterion.H:237] Creating stopping criterion with minIter 1848 frequency 11
[OGL LOG][Proc: 0]p: generate_solver: 0.002 [ms]
[OGL LOG][Proc: 0]p: solve: 11985.2 [ms]
[OGL LOG][Proc: 0]p: copy_x_back: 20.849 [ms]
[OGL LOG][lduLduBase.H:330] 
Statistics:
	Time per iteration: 3890 [mu s]
	Time per residual norm calculation: 391.000000 [mu s]
	Time per iteration and DOF: 0.060781 [ns]
	Retrieve results bandwidth 3.069000 [GByte/s]
[OGL LOG][Proc: 0]p: solve_multi_gpu: 12036.3 [ms]
BJhipGKOCG:  Solving for p, Initial residual = 0.961381, Final residual = 9.0325e-05, No Iterations 3081
[INFO] SolveP: 12196.4 [ms]
time step continuity errors : sum local = 1.4568e-08, global = -1.51542e-22, cumulative = 3.50961e-21
[INFO] ContinuityError: 121.013 [ms]
[INFO] CorrectBoundary: 1.979 [ms]
[INFO] PISOStep: 13661.7 [ms]
[INFO] MatrixAssemblyPI: 785.965 [ms]
[INFO] AdjustPhi: 51.891 [ms]
[INFO] ConstrainPressure: 0.004 [ms]
[INFO] MatrixAssemblyPII: 234.4 [ms]
[OGL LOG][Proc: 0]: global_index_init: 0.345 [ms]
[OGL LOG][Proc: 0]p_local_coeffs: call_update: 0 [ms]
[OGL LOG][Proc: 0]p_non_local_coeffs: call_update: 0 [ms]
[OGL LOG][Proc: 0]p: update_local_matrix_data: 140.068 [ms]
[OGL LOG][Proc: 0]p: update_non_local_matrix_data: 0.376 [ms]
[OGL LOG][Proc: 0]p_matrix: call_update: 4.458 [ms]
[OGL LOG][Proc: 0]p_rhs: call_update: 6.701 [ms]
[OGL LOG][Preconditioner.H:121] Generate preconditioner BJ MaxBlockSize 1
[OGL LOG][Proc: 0]p: init_precond: 1.977 [ms]
[OGL LOG][StoppingCriterion.H:237] Creating stopping criterion with minIter 1848 frequency 11
[OGL LOG][Proc: 0]p: generate_solver: 0.002 [ms]
[OGL LOG][Proc: 0]p: solve: 12465.7 [ms]
[OGL LOG][Proc: 0]p: copy_x_back: 21.76 [ms]
[OGL LOG][lduLduBase.H:330] 
Statistics:
	Time per iteration: 4060 [mu s]
	Time per residual norm calculation: 390.000000 [mu s]
	Time per iteration and DOF: 0.063437 [ns]
	Retrieve results bandwidth 2.941000 [GByte/s]
[OGL LOG][Proc: 0]p: solve_multi_gpu: 12507.3 [ms]
BJhipGKOCG:  Solving for p, Initial residual = 0.917463, Final residual = 9.80049e-05, No Iterations 3070
[INFO] SolveP: 12670.4 [ms]
time step continuity errors : sum local = 1.57493e-08, global = 7.97583e-23, cumulative = 3.58937e-21
[INFO] ContinuityError: 120.69 [ms]
[INFO] CorrectBoundary: 3.468 [ms]
[INFO] PISOStep: 14126.2 [ms]
[INFO] TimeStep: 35540.9 [ms]
ExecutionTime = 274.38 s  ClockTime = 230 s

Time = 0.001

Courant Number mean: 0.0300283 max: 0.490993
[INFO] MatrixAssemblyU: 614.949 [ms]
DILUPBiCGStab:  Solving for Ux, Initial residual = 0.0362092, Final residual = 0.00374606, No Iterations 5
DILUPBiCGStab:  Solving for Uy, Initial residual = 0.170042, Final residual = 0.0132314, No Iterations 5
DILUPBiCGStab:  Solving for Uz, Initial residual = 0.677299, Final residual = 0.0376709, No Iterations 5
[INFO] MomentumPredictor: 7041.24 [ms]
[INFO] MatrixAssemblyPI: 804.415 [ms]
[INFO] AdjustPhi: 48.343 [ms]
[INFO] ConstrainPressure: 0.004 [ms]
[INFO] MatrixAssemblyPII: 230.584 [ms]
[OGL LOG][Proc: 0]: global_index_init: 0.165 [ms]
[OGL LOG][Proc: 0]p_local_coeffs: call_update: 0 [ms]
[OGL LOG][Proc: 0]p_non_local_coeffs: call_update: 0 [ms]
[OGL LOG][Proc: 0]p: update_local_matrix_data: 126.821 [ms]
[OGL LOG][Proc: 0]p: update_non_local_matrix_data: 0.372 [ms]
[OGL LOG][Proc: 0]p_matrix: call_update: 4.23 [ms]
[OGL LOG][Proc: 0]p_rhs: call_update: 7.344 [ms]
[OGL LOG][Preconditioner.H:121] Generate preconditioner BJ MaxBlockSize 1
[OGL LOG][Proc: 0]p: init_precond: 1.945 [ms]
[OGL LOG][StoppingCriterion.H:237] Creating stopping criterion with minIter 1842 frequency 11
[OGL LOG][Proc: 0]p: generate_solver: 0.003 [ms]
[OGL LOG][Proc: 0]p: solve: 11953.4 [ms]
[OGL LOG][Proc: 0]p: copy_x_back: 20.284 [ms]
[OGL LOG][lduLduBase.H:330] 
Statistics:
	Time per iteration: 3893 [mu s]
	Time per residual norm calculation: 378.000000 [mu s]
	Time per iteration and DOF: 0.060828 [ns]
	Retrieve results bandwidth 3.155000 [GByte/s]
[OGL LOG][Proc: 0]p: solve_multi_gpu: 12018.7 [ms]
BJhipGKOCG:  Solving for p, Initial residual = 0.959291, Final residual = 9.31139e-05, No Iterations 3070
[INFO] SolveP: 12169.3 [ms]
time step continuity errors : sum local = 1.72884e-08, global = 3.47797e-22, cumulative = 3.93717e-21
[INFO] ContinuityError: 118.543 [ms]
[INFO] CorrectBoundary: 1.411 [ms]
[INFO] PISOStep: 13636.4 [ms]
[INFO] MatrixAssemblyPI: 789.202 [ms]
[INFO] AdjustPhi: 49.159 [ms]
[INFO] ConstrainPressure: 0.004 [ms]
[INFO] MatrixAssemblyPII: 231.262 [ms]
[OGL LOG][Proc: 0]: global_index_init: 0.623 [ms]
[OGL LOG][Proc: 0]p_local_coeffs: call_update: 0 [ms]
[OGL LOG][Proc: 0]p_non_local_coeffs: call_update: 0 [ms]
[OGL LOG][Proc: 0]p: update_local_matrix_data: 135.738 [ms]
[OGL LOG][Proc: 0]p: update_non_local_matrix_data: 0.39 [ms]
[OGL LOG][Proc: 0]p_matrix: call_update: 4.273 [ms]
[OGL LOG][Proc: 0]p_rhs: call_update: 7.258 [ms]
[OGL LOG][Preconditioner.H:121] Generate preconditioner BJ MaxBlockSize 1
[OGL LOG][Proc: 0]p: init_precond: 1.972 [ms]
[OGL LOG][StoppingCriterion.H:237] Creating stopping criterion with minIter 1842 frequency 11
[OGL LOG][Proc: 0]p: generate_solver: 0.003 [ms]
[OGL LOG][Proc: 0]p: solve: 12293.4 [ms]
[OGL LOG][Proc: 0]p: copy_x_back: 21.355 [ms]
[OGL LOG][lduLduBase.H:330] 
Statistics:
	Time per iteration: 4004 [mu s]
	Time per residual norm calculation: 376.000000 [mu s]
	Time per iteration and DOF: 0.062562 [ns]
	Retrieve results bandwidth 2.996000 [GByte/s]
[OGL LOG][Proc: 0]p: solve_multi_gpu: 12349.1 [ms]
BJhipGKOCG:  Solving for p, Initial residual = 0.897715, Final residual = 9.05959e-05, No Iterations 3070
[INFO] SolveP: 12511.2 [ms]
time step continuity errors : sum local = 1.7071e-08, global = -1.88442e-22, cumulative = 3.74873e-21
[INFO] ContinuityError: 118.162 [ms]
[INFO] CorrectBoundary: 2.458 [ms]
[INFO] PISOStep: 13960 [ms]
[INFO] TimeStep: 35357.5 [ms]
ExecutionTime = 317.26 s  ClockTime = 265 s

Time = 0.001125

Courant Number mean: 0.0318558 max: 0.695098
[INFO] MatrixAssemblyU: 616.458 [ms]
DILUPBiCGStab:  Solving for Ux, Initial residual = 0.0374904, Final residual = 0.00354434, No Iterations 5
DILUPBiCGStab:  Solving for Uy, Initial residual = 0.187138, Final residual = 0.0137041, No Iterations 5
DILUPBiCGStab:  Solving for Uz, Initial residual = 0.68963, Final residual = 0.0359518, No Iterations 5
[INFO] MomentumPredictor: 7048.64 [ms]
[INFO] MatrixAssemblyPI: 803.353 [ms]
[INFO] AdjustPhi: 60.076 [ms]
[INFO] ConstrainPressure: 0.004 [ms]
[INFO] MatrixAssemblyPII: 230.842 [ms]
[OGL LOG][Proc: 0]: global_index_init: 0.028 [ms]
[OGL LOG][Proc: 0]p_local_coeffs: call_update: 0 [ms]
[OGL LOG][Proc: 0]p_non_local_coeffs: call_update: 0 [ms]
[OGL LOG][Proc: 0]p: update_local_matrix_data: 140.617 [ms]
[OGL LOG][Proc: 0]p: update_non_local_matrix_data: 0.405 [ms]
[OGL LOG][Proc: 0]p_matrix: call_update: 4.425 [ms]
[OGL LOG][Proc: 0]p_rhs: call_update: 8.669 [ms]
[OGL LOG][Preconditioner.H:121] Generate preconditioner BJ MaxBlockSize 1
[OGL LOG][Proc: 0]p: init_precond: 1.977 [ms]
[OGL LOG][StoppingCriterion.H:237] Creating stopping criterion with minIter 1842 frequency 11
[OGL LOG][Proc: 0]p: generate_solver: 0.003 [ms]
[OGL LOG][Proc: 0]p: solve: 12227.7 [ms]
[OGL LOG][Proc: 0]p: copy_x_back: 20.806 [ms]
[OGL LOG][lduLduBase.H:330] 
Statistics:
	Time per iteration: 3982 [mu s]
	Time per residual norm calculation: 365.000000 [mu s]
	Time per iteration and DOF: 0.062219 [ns]
	Retrieve results bandwidth 3.076000 [GByte/s]
[OGL LOG][Proc: 0]p: solve_multi_gpu: 12274.9 [ms]
BJhipGKOCG:  Solving for p, Initial residual = 0.967373, Final residual = 9.20191e-05, No Iterations 3070
[INFO] SolveP: 12438.6 [ms]
time step continuity errors : sum local = 1.96246e-08, global = 3.34472e-22, cumulative = 4.0832e-21
[INFO] ContinuityError: 114.914 [ms]
[INFO] CorrectBoundary: 1.408 [ms]
[INFO] PISOStep: 13911.7 [ms]
[INFO] MatrixAssemblyPI: 783.627 [ms]
[INFO] AdjustPhi: 48.073 [ms]
[INFO] ConstrainPressure: 0.005 [ms]
[INFO] MatrixAssemblyPII: 231.321 [ms]
[OGL LOG][Proc: 0]: global_index_init: 0.558 [ms]
[OGL LOG][Proc: 0]p_local_coeffs: call_update: 0 [ms]
[OGL LOG][Proc: 0]p_non_local_coeffs: call_update: 0 [ms]
[OGL LOG][Proc: 0]p: update_local_matrix_data: 136.467 [ms]
[OGL LOG][Proc: 0]p: update_non_local_matrix_data: 0.371 [ms]
[OGL LOG][Proc: 0]p_matrix: call_update: 4.276 [ms]
[OGL LOG][Proc: 0]p_rhs: call_update: 7.52 [ms]
[OGL LOG][Preconditioner.H:121] Generate preconditioner BJ MaxBlockSize 1
[OGL LOG][Proc: 0]p: init_precond: 2.337 [ms]
[OGL LOG][StoppingCriterion.H:237] Creating stopping criterion with minIter 1842 frequency 11
[OGL LOG][Proc: 0]p: generate_solver: 0.003 [ms]
[OGL LOG][Proc: 0]p: solve: 12342.4 [ms]
[OGL LOG][Proc: 0]p: copy_x_back: 20.298 [ms]
[OGL LOG][lduLduBase.H:330] 
Statistics:
	Time per iteration: 4020 [mu s]
	Time per residual norm calculation: 392.000000 [mu s]
	Time per iteration and DOF: 0.062812 [ns]
	Retrieve results bandwidth 3.153000 [GByte/s]
[OGL LOG][Proc: 0]p: solve_multi_gpu: 12397.3 [ms]
BJhipGKOCG:  Solving for p, Initial residual = 0.918653, Final residual = 8.70384e-05, No Iterations 3070
[INFO] SolveP: 12560.2 [ms]
time step continuity errors : sum local = 1.85382e-08, global = 1.18527e-21, cumulative = 5.26846e-21
[INFO] ContinuityError: 116.551 [ms]
[INFO] CorrectBoundary: 2.101 [ms]
[INFO] PISOStep: 14002.3 [ms]
[INFO] TimeStep: 35682.3 [ms]
ExecutionTime = 360.48 s  ClockTime = 301 s

Time = 0.00125

Courant Number mean: 0.0332829 max: 0.507068
[INFO] MatrixAssemblyU: 612.813 [ms]
DILUPBiCGStab:  Solving for Ux, Initial residual = 0.0409475, Final residual = 0.00360825, No Iterations 5
DILUPBiCGStab:  Solving for Uy, Initial residual = 0.186065, Final residual = 0.0120928, No Iterations 5
DILUPBiCGStab:  Solving for Uz, Initial residual = 0.690592, Final residual = 0.0347762, No Iterations 5
[INFO] MomentumPredictor: 7040.42 [ms]
[INFO] MatrixAssemblyPI: 805.469 [ms]
[INFO] AdjustPhi: 58.418 [ms]
[INFO] ConstrainPressure: 0.004 [ms]
[INFO] MatrixAssemblyPII: 230.988 [ms]
[OGL LOG][Proc: 0]: global_index_init: 0.027 [ms]
[OGL LOG][Proc: 0]p_local_coeffs: call_update: 0 [ms]
[OGL LOG][Proc: 0]p_non_local_coeffs: call_update: 0 [ms]
[OGL LOG][Proc: 0]p: update_local_matrix_data: 138.099 [ms]
[OGL LOG][Proc: 0]p: update_non_local_matrix_data: 0.396 [ms]
[OGL LOG][Proc: 0]p_matrix: call_update: 4.521 [ms]
[OGL LOG][Proc: 0]p_rhs: call_update: 7.781 [ms]
[OGL LOG][Preconditioner.H:121] Generate preconditioner BJ MaxBlockSize 1
[OGL LOG][Proc: 0]p: init_precond: 1.966 [ms]
[OGL LOG][StoppingCriterion.H:237] Creating stopping criterion with minIter 1842 frequency 11
[OGL LOG][Proc: 0]p: generate_solver: 0.003 [ms]
[OGL LOG][Proc: 0]p: solve: 11971.4 [ms]
[OGL LOG][Proc: 0]p: copy_x_back: 21.704 [ms]
[OGL LOG][lduLduBase.H:330] 
Statistics:
	Time per iteration: 3899 [mu s]
	Time per residual norm calculation: 376.000000 [mu s]
	Time per iteration and DOF: 0.060922 [ns]
	Retrieve results bandwidth 2.948000 [GByte/s]
[OGL LOG][Proc: 0]p: solve_multi_gpu: 12020.9 [ms]
BJhipGKOCG:  Solving for p, Initial residual = 0.966721, Final residual = 9.21746e-05, No Iterations 3070
[INFO] SolveP: 12182.2 [ms]
time step continuity errors : sum local = 2.29241e-08, global = 3.54473e-22, cumulative = 5.62294e-21
[INFO] ContinuityError: 116.637 [ms]
[INFO] CorrectBoundary: 2.719 [ms]
[INFO] PISOStep: 13654 [ms]
[INFO] MatrixAssemblyPI: 784.921 [ms]
[INFO] AdjustPhi: 60.089 [ms]
[INFO] ConstrainPressure: 0.004 [ms]
[INFO] MatrixAssemblyPII: 230.865 [ms]
[OGL LOG][Proc: 0]: global_index_init: 0.538 [ms]
[OGL LOG][Proc: 0]p_local_coeffs: call_update: 0 [ms]
[OGL LOG][Proc: 0]p_non_local_coeffs: call_update: 0 [ms]
[OGL LOG][Proc: 0]p: update_local_matrix_data: 144.281 [ms]
[OGL LOG][Proc: 0]p: update_non_local_matrix_data: 0.397 [ms]
[OGL LOG][Proc: 0]p_matrix: call_update: 4.651 [ms]
[OGL LOG][Proc: 0]p_rhs: call_update: 10.883 [ms]
[OGL LOG][Preconditioner.H:121] Generate preconditioner BJ MaxBlockSize 1
[OGL LOG][Proc: 0]p: init_precond: 2.02 [ms]
[OGL LOG][StoppingCriterion.H:237] Creating stopping criterion with minIter 1842 frequency 11
[OGL LOG][Proc: 0]p: generate_solver: 0.002 [ms]
[OGL LOG][Proc: 0]p: solve: 12246.8 [ms]
[OGL LOG][Proc: 0]p: copy_x_back: 20.394 [ms]
[OGL LOG][lduLduBase.H:330] 
Statistics:
	Time per iteration: 4003 [mu s]
	Time per residual norm calculation: 363.000000 [mu s]
	Time per iteration and DOF: 0.062547 [ns]
	Retrieve results bandwidth 3.138000 [GByte/s]
[OGL LOG][Proc: 0]p: solve_multi_gpu: 12299.2 [ms]
BJhipGKOCG:  Solving for p, Initial residual = 0.903568, Final residual = 9.98166e-05, No Iterations 3059
[INFO] SolveP: 12468.1 [ms]
time step continuity errors : sum local = 2.51598e-08, global = 3.5477e-22, cumulative = 5.97771e-21
[INFO] ContinuityError: 114.289 [ms]
[INFO] CorrectBoundary: 1.355 [ms]
[INFO] PISOStep: 13923.5 [ms]
[INFO] TimeStep: 35338.1 [ms]
ExecutionTime = 403.33 s  ClockTime = 336 s

Time = 0.001375

Courant Number mean: 0.0349038 max: 0.825996
[INFO] MatrixAssemblyU: 616.377 [ms]
DILUPBiCGStab:  Solving for Ux, Initial residual = 0.0437633, Final residual = 0.00345688, No Iterations 5
DILUPBiCGStab:  Solving for Uy, Initial residual = 0.21012, Final residual = 0.0131206, No Iterations 5
DILUPBiCGStab:  Solving for Uz, Initial residual = 0.705895, Final residual = 0.0343131, No Iterations 5
[INFO] MomentumPredictor: 7035.66 [ms]
[INFO] MatrixAssemblyPI: 804.341 [ms]
[INFO] AdjustPhi: 50.183 [ms]
[INFO] ConstrainPressure: 0.004 [ms]
[INFO] MatrixAssemblyPII: 231.56 [ms]
[OGL LOG][Proc: 0]: global_index_init: 0.145 [ms]
[OGL LOG][Proc: 0]p_local_coeffs: call_update: 0 [ms]
[OGL LOG][Proc: 0]p_non_local_coeffs: call_update: 0 [ms]
[OGL LOG][Proc: 0]p: update_local_matrix_data: 143.536 [ms]
[OGL LOG][Proc: 0]p: update_non_local_matrix_data: 0.382 [ms]
[OGL LOG][Proc: 0]p_matrix: call_update: 4.225 [ms]
[OGL LOG][Proc: 0]p_rhs: call_update: 6.685 [ms]
[OGL LOG][Preconditioner.H:121] Generate preconditioner BJ MaxBlockSize 1
[OGL LOG][Proc: 0]p: init_precond: 2.153 [ms]
[OGL LOG][StoppingCriterion.H:237] Creating stopping criterion with minIter 1835 frequency 10
[OGL LOG][Proc: 0]p: generate_solver: 0.003 [ms]
[OGL LOG][Proc: 0]p: solve: 11924.5 [ms]
[OGL LOG][Proc: 0]p: copy_x_back: 20.434 [ms]
[OGL LOG][lduLduBase.H:330] 
Statistics:
	Time per iteration: 3882 [mu s]
	Time per residual norm calculation: 377.000000 [mu s]
	Time per iteration and DOF: 0.060656 [ns]
	Retrieve results bandwidth 3.132000 [GByte/s]
[OGL LOG][Proc: 0]p: solve_multi_gpu: 11984 [ms]
BJhipGKOCG:  Solving for p, Initial residual = 0.972344, Final residual = 8.89683e-05, No Iterations 3071
[INFO] SolveP: 12150.7 [ms]
time step continuity errors : sum local = 2.5726e-08, global = 4.73755e-23, cumulative = 6.02508e-21
[INFO] ContinuityError: 119.067 [ms]
[INFO] CorrectBoundary: 2.941 [ms]
[INFO] PISOStep: 13615.9 [ms]
[INFO] MatrixAssemblyPI: 783.759 [ms]
[INFO] AdjustPhi: 51.29 [ms]
[INFO] ConstrainPressure: 0.004 [ms]
[INFO] MatrixAssemblyPII: 232.12 [ms]
[OGL LOG][Proc: 0]: global_index_init: 0.556 [ms]
[OGL LOG][Proc: 0]p_local_coeffs: call_update: 0 [ms]
[OGL LOG][Proc: 0]p_non_local_coeffs: call_update: 0 [ms]
[OGL LOG][Proc: 0]p: update_local_matrix_data: 138.366 [ms]
[OGL LOG][Proc: 0]p: update_non_local_matrix_data: 0.4 [ms]
[OGL LOG][Proc: 0]p_matrix: call_update: 4.22 [ms]
[OGL LOG][Proc: 0]p_rhs: call_update: 6.64 [ms]
[OGL LOG][Preconditioner.H:121] Generate preconditioner BJ MaxBlockSize 1
[OGL LOG][Proc: 0]p: init_precond: 1.956 [ms]
[OGL LOG][StoppingCriterion.H:237] Creating stopping criterion with minIter 1842 frequency 11
[OGL LOG][Proc: 0]p: generate_solver: 0.002 [ms]
[OGL LOG][Proc: 0]p: solve: 12040 [ms]
[OGL LOG][Proc: 0]p: copy_x_back: 21.459 [ms]
[OGL LOG][lduLduBase.H:330] 
Statistics:
	Time per iteration: 3935 [mu s]
	Time per residual norm calculation: 374.000000 [mu s]
	Time per iteration and DOF: 0.061484 [ns]
	Retrieve results bandwidth 2.982000 [GByte/s]
[OGL LOG][Proc: 0]p: solve_multi_gpu: 12101.1 [ms]
BJhipGKOCG:  Solving for p, Initial residual = 0.919679, Final residual = 9.65306e-05, No Iterations 3059
[INFO] SolveP: 12263 [ms]
time step continuity errors : sum local = 2.79324e-08, global = 1.03299e-21, cumulative = 7.05807e-21
[INFO] ContinuityError: 115.112 [ms]
[INFO] CorrectBoundary: 1.34 [ms]
[INFO] PISOStep: 13710.8 [ms]
[INFO] TimeStep: 35081.6 [ms]
ExecutionTime = 445.95 s  ClockTime = 371 s

Time = 0.0015

Courant Number mean: 0.0361122 max: 0.598573
[INFO] MatrixAssemblyU: 615.085 [ms]
DILUPBiCGStab:  Solving for Ux, Initial residual = 0.0493684, Final residual = 0.00365991, No Iterations 5
DILUPBiCGStab:  Solving for Uy, Initial residual = 0.214669, Final residual = 0.0120457, No Iterations 5
DILUPBiCGStab:  Solving for Uz, Initial residual = 0.710075, Final residual = 0.0338049, No Iterations 5
[INFO] MomentumPredictor: 7034.37 [ms]
[INFO] MatrixAssemblyPI: 800.49 [ms]
[INFO] AdjustPhi: 49.127 [ms]
[INFO] ConstrainPressure: 0.004 [ms]
[INFO] MatrixAssemblyPII: 231.33 [ms]
[OGL LOG][Proc: 0]: global_index_init: 0.032 [ms]
[OGL LOG][Proc: 0]p_local_coeffs: call_update: 0 [ms]
[OGL LOG][Proc: 0]p_non_local_coeffs: call_update: 0 [ms]
[OGL LOG][Proc: 0]p: update_local_matrix_data: 154.173 [ms]
[OGL LOG][Proc: 0]p: update_non_local_matrix_data: 0.4 [ms]
[OGL LOG][Proc: 0]p_matrix: call_update: 4.471 [ms]
[OGL LOG][Proc: 0]p_rhs: call_update: 7.416 [ms]
[OGL LOG][Preconditioner.H:121] Generate preconditioner BJ MaxBlockSize 1
[OGL LOG][Proc: 0]p: init_precond: 2.1 [ms]
[OGL LOG][StoppingCriterion.H:237] Creating stopping criterion with minIter 1835 frequency 11
[OGL LOG][Proc: 0]p: generate_solver: 0.002 [ms]
[OGL LOG][Proc: 0]p: solve: 11864.7 [ms]
[OGL LOG][Proc: 0]p: copy_x_back: 20.391 [ms]
[OGL LOG][lduLduBase.H:330] 
Statistics:
	Time per iteration: 3864 [mu s]
	Time per residual norm calculation: 392.000000 [mu s]
	Time per iteration and DOF: 0.060375 [ns]
	Retrieve results bandwidth 3.138000 [GByte/s]
[OGL LOG][Proc: 0]p: solve_multi_gpu: 11905.4 [ms]
BJhipGKOCG:  Solving for p, Initial residual = 0.972598, Final residual = 9.05138e-05, No Iterations 3070
[INFO] SolveP: 12086.3 [ms]
time step continuity errors : sum local = 3.07276e-08, global = 5.63271e-22, cumulative = 7.62134e-21
[INFO] ContinuityError: 120.553 [ms]
[INFO] CorrectBoundary: 4.06 [ms]
[INFO] PISOStep: 13551.5 [ms]
[INFO] MatrixAssemblyPI: 784.878 [ms]
[INFO] AdjustPhi: 58.589 [ms]
[INFO] ConstrainPressure: 0.004 [ms]
[INFO] MatrixAssemblyPII: 230.591 [ms]
[OGL LOG][Proc: 0]: global_index_init: 0.532 [ms]
[OGL LOG][Proc: 0]p_local_coeffs: call_update: 0 [ms]
[OGL LOG][Proc: 0]p_non_local_coeffs: call_update: 0 [ms]
[OGL LOG][Proc: 0]p: update_local_matrix_data: 137.801 [ms]
[OGL LOG][Proc: 0]p: update_non_local_matrix_data: 0.379 [ms]
[OGL LOG][Proc: 0]p_matrix: call_update: 4.232 [ms]
[OGL LOG][Proc: 0]p_rhs: call_update: 7.039 [ms]
[OGL LOG][Preconditioner.H:121] Generate preconditioner BJ MaxBlockSize 1
[OGL LOG][Proc: 0]p: init_precond: 1.998 [ms]
[OGL LOG][StoppingCriterion.H:237] Creating stopping criterion with minIter 1842 frequency 11
[OGL LOG][Proc: 0]p: generate_solver: 0.002 [ms]
[OGL LOG][Proc: 0]p: solve: 12256.3 [ms]
[OGL LOG][Proc: 0]p: copy_x_back: 20.466 [ms]
[OGL LOG][lduLduBase.H:330] 
Statistics:
	Time per iteration: 4006 [mu s]
	Time per residual norm calculation: 369.000000 [mu s]
	Time per iteration and DOF: 0.062594 [ns]
	Retrieve results bandwidth 3.127000 [GByte/s]
[OGL LOG][Proc: 0]p: solve_multi_gpu: 12314.1 [ms]
BJhipGKOCG:  Solving for p, Initial residual = 0.908704, Final residual = 9.70782e-05, No Iterations 3059
[INFO] SolveP: 12475 [ms]
time step continuity errors : sum local = 3.33596e-08, global = 9.66948e-22, cumulative = 8.58829e-21
[INFO] ContinuityError: 118.989 [ms]
[INFO] CorrectBoundary: 1.449 [ms]
[INFO] PISOStep: 13932.5 [ms]
[INFO] TimeStep: 35236.6 [ms]
ExecutionTime = 488.74 s  ClockTime = 407 s

Time = 0.001625

Courant Number mean: 0.037629 max: 1.14471
[INFO] MatrixAssemblyU: 616.931 [ms]
DILUPBiCGStab:  Solving for Ux, Initial residual = 0.0541133, Final residual = 0.00361167, No Iterations 5
DILUPBiCGStab:  Solving for Uy, Initial residual = 0.243569, Final residual = 0.013311, No Iterations 5
DILUPBiCGStab:  Solving for Uz, Initial residual = 0.723557, Final residual = 0.0336997, No Iterations 5
[INFO] MomentumPredictor: 7033.36 [ms]
[INFO] MatrixAssemblyPI: 802.122 [ms]
[INFO] AdjustPhi: 47.17 [ms]
[INFO] ConstrainPressure: 0.004 [ms]
[INFO] MatrixAssemblyPII: 229.914 [ms]
[OGL LOG][Proc: 0]: global_index_init: 0.051 [ms]
[OGL LOG][Proc: 0]p_local_coeffs: call_update: 0 [ms]
[OGL LOG][Proc: 0]p_non_local_coeffs: call_update: 0 [ms]
[OGL LOG][Proc: 0]p: update_local_matrix_data: 156.919 [ms]
[OGL LOG][Proc: 0]p: update_non_local_matrix_data: 0.395 [ms]
[OGL LOG][Proc: 0]p_matrix: call_update: 4.557 [ms]
[OGL LOG][Proc: 0]p_rhs: call_update: 6.741 [ms]
[OGL LOG][Preconditioner.H:121] Generate preconditioner BJ MaxBlockSize 1
[OGL LOG][Proc: 0]p: init_precond: 1.979 [ms]
[OGL LOG][StoppingCriterion.H:237] Creating stopping criterion with minIter 1835 frequency 11
[OGL LOG][Proc: 0]p: generate_solver: 0.002 [ms]
[OGL LOG][Proc: 0]p: solve: 11847.3 [ms]
[OGL LOG][Proc: 0]p: copy_x_back: 21.43 [ms]
[OGL LOG][lduLduBase.H:330] 
Statistics:
	Time per iteration: 3859 [mu s]
	Time per residual norm calculation: 362.000000 [mu s]
	Time per iteration and DOF: 0.060297 [ns]
	Retrieve results bandwidth 2.986000 [GByte/s]
[OGL LOG][Proc: 0]p: solve_multi_gpu: 11889 [ms]
BJhipGKOCG:  Solving for p, Initial residual = 0.97628, Final residual = 8.96766e-05, No Iterations 3070
[INFO] SolveP: 12071.5 [ms]
time step continuity errors : sum local = 3.57459e-08, global = 1.64375e-21, cumulative = 1.0232e-20
[INFO] ContinuityError: 118.208 [ms]
[INFO] CorrectBoundary: 2.302 [ms]
[INFO] PISOStep: 13530.7 [ms]
[INFO] MatrixAssemblyPI: 788.517 [ms]
[INFO] AdjustPhi: 45.238 [ms]
[INFO] ConstrainPressure: 0.004 [ms]
[INFO] MatrixAssemblyPII: 230.095 [ms]
[OGL LOG][Proc: 0]: global_index_init: 0.539 [ms]
[OGL LOG][Proc: 0]p_local_coeffs: call_update: 0 [ms]
[OGL LOG][Proc: 0]p_non_local_coeffs: call_update: 0 [ms]
[OGL LOG][Proc: 0]p: update_local_matrix_data: 154.741 [ms]
[OGL LOG][Proc: 0]p: update_non_local_matrix_data: 0.409 [ms]
[OGL LOG][Proc: 0]p_matrix: call_update: 4.569 [ms]
[OGL LOG][Proc: 0]p_rhs: call_update: 6.912 [ms]
[OGL LOG][Preconditioner.H:121] Generate preconditioner BJ MaxBlockSize 1
[OGL LOG][Proc: 0]p: init_precond: 2.019 [ms]
[OGL LOG][StoppingCriterion.H:237] Creating stopping criterion with minIter 1842 frequency 11
[OGL LOG][Proc: 0]p: generate_solver: 0.002 [ms]
[OGL LOG][Proc: 0]p: solve: 11984 [ms]
[OGL LOG][Proc: 0]p: copy_x_back: 20.63 [ms]
[OGL LOG][lduLduBase.H:330] 
Statistics:
	Time per iteration: 3917 [mu s]
	Time per residual norm calculation: 379.000000 [mu s]
	Time per iteration and DOF: 0.061203 [ns]
	Retrieve results bandwidth 3.102000 [GByte/s]
[OGL LOG][Proc: 0]p: solve_multi_gpu: 12027.8 [ms]
BJhipGKOCG:  Solving for p, Initial residual = 0.920452, Final residual = 9.63651e-05, No Iterations 3059
[INFO] SolveP: 12206.1 [ms]
time step continuity errors : sum local = 3.85088e-08, global = 3.21541e-22, cumulative = 1.05536e-20
[INFO] ContinuityError: 116.394 [ms]
[INFO] CorrectBoundary: 4.177 [ms]
[INFO] PISOStep: 13653.6 [ms]
[INFO] TimeStep: 34937.8 [ms]
ExecutionTime = 531.21 s  ClockTime = 441 s

Time = 0.00175

Courant Number mean: 0.0386971 max: 1.02169
[INFO] MatrixAssemblyU: 613.736 [ms]
DILUPBiCGStab:  Solving for Ux, Initial residual = 0.0623315, Final residual = 0.00391118, No Iterations 5
DILUPBiCGStab:  Solving for Uy, Initial residual = 0.254322, Final residual = 0.0127546, No Iterations 5
DILUPBiCGStab:  Solving for Uz, Initial residual = 0.728209, Final residual = 0.0334707, No Iterations 5
[INFO] MomentumPredictor: 7021.91 [ms]
[INFO] MatrixAssemblyPI: 805.657 [ms]
[INFO] AdjustPhi: 57.934 [ms]
[INFO] ConstrainPressure: 0.004 [ms]
[INFO] MatrixAssemblyPII: 230.496 [ms]
[OGL LOG][Proc: 0]: global_index_init: 0.028 [ms]
[OGL LOG][Proc: 0]p_local_coeffs: call_update: 0 [ms]
[OGL LOG][Proc: 0]p_non_local_coeffs: call_update: 0 [ms]
[OGL LOG][Proc: 0]p: update_local_matrix_data: 153.644 [ms]
[OGL LOG][Proc: 0]p: update_non_local_matrix_data: 0.401 [ms]
[OGL LOG][Proc: 0]p_matrix: call_update: 4.503 [ms]
[OGL LOG][Proc: 0]p_rhs: call_update: 6.159 [ms]
[OGL LOG][Preconditioner.H:121] Generate preconditioner BJ MaxBlockSize 1
[OGL LOG][Proc: 0]p: init_precond: 1.959 [ms]
[OGL LOG][StoppingCriterion.H:237] Creating stopping criterion with minIter 1835 frequency 11
[OGL LOG][Proc: 0]p: generate_solver: 0.002 [ms]
[OGL LOG][Proc: 0]p: solve: 11859.1 [ms]
[OGL LOG][Proc: 0]p: copy_x_back: 20.218 [ms]
[OGL LOG][lduLduBase.H:330] 
Statistics:
	Time per iteration: 3862 [mu s]
	Time per residual norm calculation: 400.000000 [mu s]
	Time per iteration and DOF: 0.060344 [ns]
	Retrieve results bandwidth 3.165000 [GByte/s]
[OGL LOG][Proc: 0]p: solve_multi_gpu: 11906.3 [ms]
BJhipGKOCG:  Solving for p, Initial residual = 0.976919, Final residual = 9.1058e-05, No Iterations 3070
[INFO] SolveP: 12083 [ms]
time step continuity errors : sum local = 4.28659e-08, global = 8.72094e-22, cumulative = 1.14257e-20
[INFO] ContinuityError: 120.325 [ms]
[INFO] CorrectBoundary: 2.501 [ms]
[INFO] PISOStep: 13557 [ms]
[INFO] MatrixAssemblyPI: 784.851 [ms]
[INFO] AdjustPhi: 51.976 [ms]
[INFO] ConstrainPressure: 0.004 [ms]
[INFO] MatrixAssemblyPII: 230.534 [ms]
[OGL LOG][Proc: 0]: global_index_init: 0.396 [ms]
[OGL LOG][Proc: 0]p_local_coeffs: call_update: 0 [ms]
[OGL LOG][Proc: 0]p_non_local_coeffs: call_update: 0 [ms]
[OGL LOG][Proc: 0]p: update_local_matrix_data: 150.057 [ms]
[OGL LOG][Proc: 0]p: update_non_local_matrix_data: 0.389 [ms]
[OGL LOG][Proc: 0]p_matrix: call_update: 4.567 [ms]
[OGL LOG][Proc: 0]p_rhs: call_update: 5.486 [ms]
[OGL LOG][Preconditioner.H:121] Generate preconditioner BJ MaxBlockSize 1
[OGL LOG][Proc: 0]p: init_precond: 1.976 [ms]
[OGL LOG][StoppingCriterion.H:237] Creating stopping criterion with minIter 1842 frequency 11
[OGL LOG][Proc: 0]p: generate_solver: 0.003 [ms]
[OGL LOG][Proc: 0]p: solve: 12069.4 [ms]
[OGL LOG][Proc: 0]p: copy_x_back: 21.161 [ms]
[OGL LOG][lduLduBase.H:330] 
Statistics:
	Time per iteration: 3945 [mu s]
	Time per residual norm calculation: 387.000000 [mu s]
	Time per iteration and DOF: 0.061641 [ns]
	Retrieve results bandwidth 3.024000 [GByte/s]
[OGL LOG][Proc: 0]p: solve_multi_gpu: 12118.8 [ms]
BJhipGKOCG:  Solving for p, Initial residual = 0.912802, Final residual = 9.8486e-05, No Iterations 3059
[INFO] SolveP: 12295.4 [ms]
time step continuity errors : sum local = 4.68797e-08, global = 7.20009e-22, cumulative = 1.21457e-20
[INFO] ContinuityError: 118.619 [ms]
[INFO] CorrectBoundary: 9.309 [ms]
[INFO] PISOStep: 13749 [ms]
[INFO] TimeStep: 35046.9 [ms]
ExecutionTime = 573.78 s  ClockTime = 477 s

Time = 0.001875

Courant Number mean: 0.0401859 max: 1.68533
[INFO] MatrixAssemblyU: 616.602 [ms]
DILUPBiCGStab:  Solving for Ux, Initial residual = 0.069479, Final residual = 0.00400407, No Iterations 5
DILUPBiCGStab:  Solving for Uy, Initial residual = 0.287015, Final residual = 0.0141122, No Iterations 5
DILUPBiCGStab:  Solving for Uz, Initial residual = 0.737791, Final residual = 0.0333653, No Iterations 5
[INFO] MomentumPredictor: 7035.45 [ms]
[INFO] MatrixAssemblyPI: 806.511 [ms]
[INFO] AdjustPhi: 45.849 [ms]
[INFO] ConstrainPressure: 0.004 [ms]
[INFO] MatrixAssemblyPII: 229.875 [ms]
[OGL LOG][Proc: 0]: global_index_init: 0.029 [ms]
[OGL LOG][Proc: 0]p_local_coeffs: call_update: 0 [ms]
[OGL LOG][Proc: 0]p_non_local_coeffs: call_update: 0 [ms]
[OGL LOG][Proc: 0]p: update_local_matrix_data: 149.242 [ms]
[OGL LOG][Proc: 0]p: update_non_local_matrix_data: 0.388 [ms]
[OGL LOG][Proc: 0]p_matrix: call_update: 4.427 [ms]
[OGL LOG][Proc: 0]p_rhs: call_update: 6.822 [ms]
[OGL LOG][Preconditioner.H:121] Generate preconditioner BJ MaxBlockSize 1
[OGL LOG][Proc: 0]p: init_precond: 1.891 [ms]
[OGL LOG][StoppingCriterion.H:237] Creating stopping criterion with minIter 1835 frequency 11
[OGL LOG][Proc: 0]p: generate_solver: 0.002 [ms]
[OGL LOG][Proc: 0]p: solve: 11865 [ms]
[OGL LOG][Proc: 0]p: copy_x_back: 20.421 [ms]
[OGL LOG][lduLduBase.H:330] 
Statistics:
	Time per iteration: 3864 [mu s]
	Time per residual norm calculation: 393.000000 [mu s]
	Time per iteration and DOF: 0.060375 [ns]
	Retrieve results bandwidth 3.134000 [GByte/s]
[OGL LOG][Proc: 0]p: solve_multi_gpu: 11909.1 [ms]
BJhipGKOCG:  Solving for p, Initial residual = 0.979097, Final residual = 9.27664e-05, No Iterations 3070
[INFO] SolveP: 12085 [ms]
time step continuity errors : sum local = 5.16111e-08, global = 4.88476e-22, cumulative = 1.26342e-20
[INFO] ContinuityError: 118.309 [ms]
[INFO] CorrectBoundary: 1.426 [ms]
[INFO] PISOStep: 13551.2 [ms]
[INFO] MatrixAssemblyPI: 783.35 [ms]
[INFO] AdjustPhi: 46.306 [ms]
[INFO] ConstrainPressure: 0.004 [ms]
[INFO] MatrixAssemblyPII: 230.226 [ms]
[OGL LOG][Proc: 0]: global_index_init: 0.375 [ms]
[OGL LOG][Proc: 0]p_local_coeffs: call_update: 0 [ms]
[OGL LOG][Proc: 0]p_non_local_coeffs: call_update: 0 [ms]
[OGL LOG][Proc: 0]p: update_local_matrix_data: 159.124 [ms]
[OGL LOG][Proc: 0]p: update_non_local_matrix_data: 0.382 [ms]
[OGL LOG][Proc: 0]p_matrix: call_update: 4.403 [ms]
[OGL LOG][Proc: 0]p_rhs: call_update: 7.901 [ms]
[OGL LOG][Preconditioner.H:121] Generate preconditioner BJ MaxBlockSize 1
[OGL LOG][Proc: 0]p: init_precond: 2.098 [ms]
[OGL LOG][StoppingCriterion.H:237] Creating stopping criterion with minIter 1842 frequency 11
[OGL LOG][Proc: 0]p: generate_solver: 0.003 [ms]
[OGL LOG][Proc: 0]p: solve: 11997.8 [ms]
[OGL LOG][Proc: 0]p: copy_x_back: 20.603 [ms]
[OGL LOG][lduLduBase.H:330] 
Statistics:
	Time per iteration: 3908 [mu s]
	Time per residual norm calculation: 394.000000 [mu s]
	Time per iteration and DOF: 0.061062 [ns]
	Retrieve results bandwidth 3.106000 [GByte/s]
[OGL LOG][Proc: 0]p: solve_multi_gpu: 12041 [ms]
BJhipGKOCG:  Solving for p, Initial residual = 0.920938, Final residual = 8.63556e-05, No Iterations 3070
[INFO] SolveP: 12226.6 [ms]
time step continuity errors : sum local = 4.8239e-08, global = 8.21196e-22, cumulative = 1.34554e-20
[INFO] ContinuityError: 115.211 [ms]
[INFO] CorrectBoundary: 5.269 [ms]
[INFO] PISOStep: 13667 [ms]
[INFO] TimeStep: 34975.9 [ms]
ExecutionTime = 616.3 s  ClockTime = 512 s

Time = 0.002

Courant Number mean: 0.0411867 max: 1.72722
[INFO] MatrixAssemblyU: 614.24 [ms]
DILUPBiCGStab:  Solving for Ux, Initial residual = 0.0812807, Final residual = 0.00442499, No Iterations 5
DILUPBiCGStab:  Solving for Uy, Initial residual = 0.304214, Final residual = 0.0139994, No Iterations 5
DILUPBiCGStab:  Solving for Uz, Initial residual = 0.7414, Final residual = 0.0331368, No Iterations 5
[INFO] MomentumPredictor: 7023.46 [ms]
[INFO] MatrixAssemblyPI: 809.319 [ms]
[INFO] AdjustPhi: 63.68 [ms]
[INFO] ConstrainPressure: 0.004 [ms]
[INFO] MatrixAssemblyPII: 230.485 [ms]
[OGL LOG][Proc: 0]: global_index_init: 0.028 [ms]
[OGL LOG][Proc: 0]p_local_coeffs: call_update: 0 [ms]
[OGL LOG][Proc: 0]p_non_local_coeffs: call_update: 0 [ms]
[OGL LOG][Proc: 0]p: update_local_matrix_data: 156.112 [ms]
[OGL LOG][Proc: 0]p: update_non_local_matrix_data: 0.404 [ms]
[OGL LOG][Proc: 0]p_matrix: call_update: 4.558 [ms]
[OGL LOG][Proc: 0]p_rhs: call_update: 5.062 [ms]
[OGL LOG][Preconditioner.H:121] Generate preconditioner BJ MaxBlockSize 1
[OGL LOG][Proc: 0]p: init_precond: 1.945 [ms]
[OGL LOG][StoppingCriterion.H:237] Creating stopping criterion with minIter 1842 frequency 11
[OGL LOG][Proc: 0]p: generate_solver: 0.003 [ms]
[OGL LOG][Proc: 0]p: solve: 11857.1 [ms]
[OGL LOG][Proc: 0]p: copy_x_back: 21.383 [ms]
[OGL LOG][lduLduBase.H:330] 
Statistics:
	Time per iteration: 3862 [mu s]
	Time per residual norm calculation: 376.000000 [mu s]
	Time per iteration and DOF: 0.060344 [ns]
	Retrieve results bandwidth 2.993000 [GByte/s]
[OGL LOG][Proc: 0]p: solve_multi_gpu: 11900.7 [ms]
BJhipGKOCG:  Solving for p, Initial residual = 0.980226, Final residual = 9.40841e-05, No Iterations 3070
[INFO] SolveP: 12080.7 [ms]
time step continuity errors : sum local = 6.21102e-08, global = 2.10789e-22, cumulative = 1.36661e-20
[INFO] ContinuityError: 118.263 [ms]
[INFO] CorrectBoundary: 1.46 [ms]
[INFO] PISOStep: 13565.5 [ms]
[INFO] MatrixAssemblyPI: 783.841 [ms]
[INFO] AdjustPhi: 46.713 [ms]
[INFO] ConstrainPressure: 0.004 [ms]
[INFO] MatrixAssemblyPII: 230.878 [ms]
[OGL LOG][Proc: 0]: global_index_init: 0.03 [ms]
[OGL LOG][Proc: 0]p_local_coeffs: call_update: 0 [ms]
[OGL LOG][Proc: 0]p_non_local_coeffs: call_update: 0 [ms]
[OGL LOG][Proc: 0]p: update_local_matrix_data: 151.369 [ms]
[OGL LOG][Proc: 0]p: update_non_local_matrix_data: 0.415 [ms]
[OGL LOG][Proc: 0]p_matrix: call_update: 4.399 [ms]
[OGL LOG][Proc: 0]p_rhs: call_update: 6.988 [ms]
[OGL LOG][Preconditioner.H:121] Generate preconditioner BJ MaxBlockSize 1
[OGL LOG][Proc: 0]p: init_precond: 1.931 [ms]
[OGL LOG][StoppingCriterion.H:237] Creating stopping criterion with minIter 1842 frequency 11
[OGL LOG][Proc: 0]p: generate_solver: 0.002 [ms]
[OGL LOG][Proc: 0]p: solve: 12110.1 [ms]
[OGL LOG][Proc: 0]p: copy_x_back: 21.506 [ms]
[OGL LOG][lduLduBase.H:330] 
Statistics:
	Time per iteration: 3944 [mu s]
	Time per residual norm calculation: 376.000000 [mu s]
	Time per iteration and DOF: 0.061625 [ns]
	Retrieve results bandwidth 2.975000 [GByte/s]
[OGL LOG][Proc: 0]p: solve_multi_gpu: 12158.1 [ms]
BJhipGKOCG:  Solving for p, Initial residual = 0.915885, Final residual = 8.77249e-05, No Iterations 3070
[INFO] SolveP: 12335.4 [ms]
time step continuity errors : sum local = 5.85094e-08, global = 6.30725e-24, cumulative = 1.36725e-20
[INFO] ContinuityError: 120.176 [ms]
[INFO] CorrectBoundary: 3.104 [ms]
[INFO] PISOStep: 13778 [ms]
[INFO] TimeStep: 35087.5 [ms]
ExecutionTime = 658.93 s  ClockTime = 547 s

Time = 0.002125

Courant Number mean: 0.0427185 max: 2.56744
[INFO] MatrixAssemblyU: 615.228 [ms]
DILUPBiCGStab:  Solving for Ux, Initial residual = 0.0915341, Final residual = 0.00468335, No Iterations 5
DILUPBiCGStab:  Solving for Uy, Initial residual = 0.33997, Final residual = 0.0154208, No Iterations 5
DILUPBiCGStab:  Solving for Uz, Initial residual = 0.747542, Final residual = 0.0330226, No Iterations 5
[INFO] MomentumPredictor: 7041.32 [ms]
[INFO] MatrixAssemblyPI: 808.108 [ms]
[INFO] AdjustPhi: 45.979 [ms]
[INFO] ConstrainPressure: 0.005 [ms]
[INFO] MatrixAssemblyPII: 230.631 [ms]
[OGL LOG][Proc: 0]: global_index_init: 0.029 [ms]
[OGL LOG][Proc: 0]p_local_coeffs: call_update: 0 [ms]
[OGL LOG][Proc: 0]p_non_local_coeffs: call_update: 0 [ms]
[OGL LOG][Proc: 0]p: update_local_matrix_data: 154.453 [ms]
[OGL LOG][Proc: 0]p: update_non_local_matrix_data: 0.375 [ms]
[OGL LOG][Proc: 0]p_matrix: call_update: 4.462 [ms]
[OGL LOG][Proc: 0]p_rhs: call_update: 6.974 [ms]
[OGL LOG][Preconditioner.H:121] Generate preconditioner BJ MaxBlockSize 1
[OGL LOG][Proc: 0]p: init_precond: 1.948 [ms]
[OGL LOG][StoppingCriterion.H:237] Creating stopping criterion with minIter 1842 frequency 11
[OGL LOG][Proc: 0]p: generate_solver: 0.003 [ms]
[OGL LOG][Proc: 0]p: solve: 11896.3 [ms]
[OGL LOG][Proc: 0]p: copy_x_back: 20.321 [ms]
[OGL LOG][lduLduBase.H:330] 
Statistics:
	Time per iteration: 3875 [mu s]
	Time per residual norm calculation: 373.000000 [mu s]
	Time per iteration and DOF: 0.060547 [ns]
	Retrieve results bandwidth 3.149000 [GByte/s]
[OGL LOG][Proc: 0]p: solve_multi_gpu: 11935.5 [ms]
BJhipGKOCG:  Solving for p, Initial residual = 0.981276, Final residual = 9.85715e-05, No Iterations 3070
[INFO] SolveP: 12112.8 [ms]
time step continuity errors : sum local = 7.7539e-08, global = 2.90573e-22, cumulative = 1.3963e-20
[INFO] ContinuityError: 119.533 [ms]
[INFO] CorrectBoundary: 2.589 [ms]
[INFO] PISOStep: 13579.3 [ms]
[INFO] MatrixAssemblyPI: 784.621 [ms]
[INFO] AdjustPhi: 50.488 [ms]
[INFO] ConstrainPressure: 0.004 [ms]
[INFO] MatrixAssemblyPII: 230.293 [ms]
[OGL LOG][Proc: 0]: global_index_init: 0.119 [ms]
[OGL LOG][Proc: 0]p_local_coeffs: call_update: 0 [ms]
[OGL LOG][Proc: 0]p_non_local_coeffs: call_update: 0 [ms]
[OGL LOG][Proc: 0]p: update_local_matrix_data: 152.962 [ms]
[OGL LOG][Proc: 0]p: update_non_local_matrix_data: 0.372 [ms]
[OGL LOG][Proc: 0]p_matrix: call_update: 4.542 [ms]
[OGL LOG][Proc: 0]p_rhs: call_update: 5.137 [ms]
[OGL LOG][Preconditioner.H:121] Generate preconditioner BJ MaxBlockSize 1
[OGL LOG][Proc: 0]p: init_precond: 2.205 [ms]
[OGL LOG][StoppingCriterion.H:237] Creating stopping criterion with minIter 1842 frequency 11
[OGL LOG][Proc: 0]p: generate_solver: 0.003 [ms]
[OGL LOG][Proc: 0]p: solve: 11968.8 [ms]
[OGL LOG][Proc: 0]p: copy_x_back: 20.21 [ms]
[OGL LOG][lduLduBase.H:330] 
Statistics:
	Time per iteration: 3898 [mu s]
	Time per residual norm calculation: 379.000000 [mu s]
	Time per iteration and DOF: 0.060906 [ns]
	Retrieve results bandwidth 3.166000 [GByte/s]
[OGL LOG][Proc: 0]p: solve_multi_gpu: 12008.2 [ms]
BJhipGKOCG:  Solving for p, Initial residual = 0.920939, Final residual = 9.22708e-05, No Iterations 3070
[INFO] SolveP: 12187.3 [ms]
time step continuity errors : sum local = 7.29799e-08, global = 8.39226e-22, cumulative = 1.48023e-20
[INFO] ContinuityError: 112.558 [ms]
[INFO] CorrectBoundary: 1.433 [ms]
[INFO] PISOStep: 13631.9 [ms]
[INFO] TimeStep: 34976 [ms]
ExecutionTime = 701.43 s  ClockTime = 582 s

Time = 0.00225

Courant Number mean: 0.0437359 max: 2.88681
[INFO] MatrixAssemblyU: 612.968 [ms]
DILUPBiCGStab:  Solving for Ux, Initial residual = 0.108491, Final residual = 0.00529662, No Iterations 5
DILUPBiCGStab:  Solving for Uy, Initial residual = 0.363444, Final residual = 0.0156923, No Iterations 5
DILUPBiCGStab:  Solving for Uz, Initial residual = 0.750107, Final residual = 0.0328348, No Iterations 5
[INFO] MomentumPredictor: 7047.19 [ms]
[INFO] MatrixAssemblyPI: 812.436 [ms]
[INFO] AdjustPhi: 46.154 [ms]
[INFO] ConstrainPressure: 0.004 [ms]
[INFO] MatrixAssemblyPII: 230.27 [ms]
[OGL LOG][Proc: 0]: global_index_init: 0.235 [ms]
[OGL LOG][Proc: 0]p_local_coeffs: call_update: 0 [ms]
[OGL LOG][Proc: 0]p_non_local_coeffs: call_update: 0 [ms]
[OGL LOG][Proc: 0]p: update_local_matrix_data: 150.191 [ms]
[OGL LOG][Proc: 0]p: update_non_local_matrix_data: 2 [ms]
[OGL LOG][Proc: 0]p_matrix: call_update: 4.498 [ms]
[OGL LOG][Proc: 0]p_rhs: call_update: 7.586 [ms]
[OGL LOG][Preconditioner.H:121] Generate preconditioner BJ MaxBlockSize 1
[OGL LOG][Proc: 0]p: init_precond: 1.984 [ms]
[OGL LOG][StoppingCriterion.H:237] Creating stopping criterion with minIter 1842 frequency 11
[OGL LOG][Proc: 0]p: generate_solver: 0.002 [ms]
[OGL LOG][Proc: 0]p: solve: 11609 [ms]
[OGL LOG][Proc: 0]p: copy_x_back: 20.323 [ms]
[OGL LOG][lduLduBase.H:330] 
Statistics:
	Time per iteration: 3864 [mu s]
	Time per residual norm calculation: 367.000000 [mu s]
	Time per iteration and DOF: 0.060375 [ns]
	Retrieve results bandwidth 3.149000 [GByte/s]
[OGL LOG][Proc: 0]p: solve_multi_gpu: 11656.6 [ms]
BJhipGKOCG:  Solving for p, Initial residual = 0.982526, Final residual = 9.68179e-05, No Iterations 3004
[INFO] SolveP: 11831.7 [ms]
time step continuity errors : sum local = 9.10988e-08, global = 6.19507e-22, cumulative = 1.54218e-20
[INFO] ContinuityError: 121.08 [ms]
[INFO] CorrectBoundary: 2.476 [ms]
[INFO] PISOStep: 13304.3 [ms]
[INFO] MatrixAssemblyPI: 790.312 [ms]
[INFO] AdjustPhi: 56.215 [ms]
[INFO] ConstrainPressure: 0.004 [ms]
[INFO] MatrixAssemblyPII: 231.528 [ms]
[OGL LOG][Proc: 0]: global_index_init: 0.413 [ms]
[OGL LOG][Proc: 0]p_local_coeffs: call_update: 0 [ms]
[OGL LOG][Proc: 0]p_non_local_coeffs: call_update: 0 [ms]
[OGL LOG][Proc: 0]p: update_local_matrix_data: 159.074 [ms]
[OGL LOG][Proc: 0]p: update_non_local_matrix_data: 0.399 [ms]
[OGL LOG][Proc: 0]p_matrix: call_update: 4.73 [ms]
[OGL LOG][Proc: 0]p_rhs: call_update: 16.47 [ms]
[OGL LOG][Preconditioner.H:121] Generate preconditioner BJ MaxBlockSize 1
[OGL LOG][Proc: 0]p: init_precond: 1.99 [ms]
[OGL LOG][StoppingCriterion.H:237] Creating stopping criterion with minIter 1802 frequency 10
[OGL LOG][Proc: 0]p: generate_solver: 0.003 [ms]
[OGL LOG][Proc: 0]p: solve: 12101.6 [ms]
[OGL LOG][Proc: 0]p: copy_x_back: 22.267 [ms]
[OGL LOG][lduLduBase.H:330] 
Statistics:
	Time per iteration: 3940 [mu s]
	Time per residual norm calculation: 378.000000 [mu s]
	Time per iteration and DOF: 0.061562 [ns]
	Retrieve results bandwidth 2.874000 [GByte/s]
[OGL LOG][Proc: 0]p: solve_multi_gpu: 12156.5 [ms]
BJhipGKOCG:  Solving for p, Initial residual = 0.918038, Final residual = 8.90795e-05, No Iterations 3071
[INFO] SolveP: 12339 [ms]
time step continuity errors : sum local = 8.46353e-08, global = 8.90279e-22, cumulative = 1.6312e-20
[INFO] ContinuityError: 117.558 [ms]
[INFO] CorrectBoundary: 1.405 [ms]
[INFO] PISOStep: 13799.6 [ms]
[INFO] TimeStep: 34866.9 [ms]
ExecutionTime = 743.75 s  ClockTime = 616 s

Time = 0.002375

Courant Number mean: 0.0453977 max: 4.00895
[INFO] MatrixAssemblyU: 615.374 [ms]
DILUPBiCGStab:  Solving for Ux, Initial residual = 0.122731, Final residual = 0.00573461, No Iterations 5
DILUPBiCGStab:  Solving for Uy, Initial residual = 0.400415, Final residual = 0.0171471, No Iterations 5
DILUPBiCGStab:  Solving for Uz, Initial residual = 0.753959, Final residual = 0.0327634, No Iterations 5
[INFO] MomentumPredictor: 7023.78 [ms]
[INFO] MatrixAssemblyPI: 808.163 [ms]
[INFO] AdjustPhi: 46.232 [ms]
[INFO] ConstrainPressure: 0.004 [ms]
[INFO] MatrixAssemblyPII: 229.812 [ms]
[OGL LOG][Proc: 0]: global_index_init: 0.171 [ms]
[OGL LOG][Proc: 0]p_local_coeffs: call_update: 0 [ms]
[OGL LOG][Proc: 0]p_non_local_coeffs: call_update: 0 [ms]
[OGL LOG][Proc: 0]p: update_local_matrix_data: 152.737 [ms]
[OGL LOG][Proc: 0]p: update_non_local_matrix_data: 0.396 [ms]
[OGL LOG][Proc: 0]p_matrix: call_update: 4.503 [ms]
[OGL LOG][Proc: 0]p_rhs: call_update: 4.907 [ms]
[OGL LOG][Preconditioner.H:121] Generate preconditioner BJ MaxBlockSize 1
[OGL LOG][Proc: 0]p: init_precond: 1.976 [ms]
[OGL LOG][StoppingCriterion.H:237] Creating stopping criterion with minIter 1842 frequency 11
[OGL LOG][Proc: 0]p: generate_solver: 0.003 [ms]
[OGL LOG][Proc: 0]p: solve: 12092.1 [ms]
[OGL LOG][Proc: 0]p: copy_x_back: 20.442 [ms]
[OGL LOG][lduLduBase.H:330] 
Statistics:
	Time per iteration: 3924 [mu s]
	Time per residual norm calculation: 388.000000 [mu s]
	Time per iteration and DOF: 0.061312 [ns]
	Retrieve results bandwidth 3.130000 [GByte/s]
[OGL LOG][Proc: 0]p: solve_multi_gpu: 12130 [ms]
BJhipGKOCG:  Solving for p, Initial residual = 0.982964, Final residual = 8.19146e-05, No Iterations 3081
[INFO] SolveP: 12306.6 [ms]
time step continuity errors : sum local = 9.2532e-08, global = 1.8252e-21, cumulative = 1.81372e-20
[INFO] ContinuityError: 120.529 [ms]
[INFO] CorrectBoundary: 2.456 [ms]
[INFO] PISOStep: 13775 [ms]
[INFO] MatrixAssemblyPI: 786.853 [ms]
[INFO] AdjustPhi: 53.498 [ms]
[INFO] ConstrainPressure: 0.004 [ms]
[INFO] MatrixAssemblyPII: 231.033 [ms]
[OGL LOG][Proc: 0]: global_index_init: 0.505 [ms]
[OGL LOG][Proc: 0]p_local_coeffs: call_update: 0 [ms]
[OGL LOG][Proc: 0]p_non_local_coeffs: call_update: 0 [ms]
[OGL LOG][Proc: 0]p: update_local_matrix_data: 145.972 [ms]
[OGL LOG][Proc: 0]p: update_non_local_matrix_data: 0.419 [ms]
[OGL LOG][Proc: 0]p_matrix: call_update: 4.454 [ms]
[OGL LOG][Proc: 0]p_rhs: call_update: 5.915 [ms]
[OGL LOG][Preconditioner.H:121] Generate preconditioner BJ MaxBlockSize 1
[OGL LOG][Proc: 0]p: init_precond: 2.016 [ms]
[OGL LOG][StoppingCriterion.H:237] Creating stopping criterion with minIter 1848 frequency 11
[OGL LOG][Proc: 0]p: generate_solver: 0.003 [ms]
[OGL LOG][Proc: 0]p: solve: 12094.4 [ms]
[OGL LOG][Proc: 0]p: copy_x_back: 20.464 [ms]
[OGL LOG][lduLduBase.H:330] 
Statistics:
	Time per iteration: 3939 [mu s]
	Time per residual norm calculation: 364.000000 [mu s]
	Time per iteration and DOF: 0.061547 [ns]
	Retrieve results bandwidth 3.127000 [GByte/s]
[OGL LOG][Proc: 0]p: solve_multi_gpu: 12147.3 [ms]
BJhipGKOCG:  Solving for p, Initial residual = 0.921213, Final residual = 9.53411e-05, No Iterations 3070
[INFO] SolveP: 12316.9 [ms]
time step continuity errors : sum local = 1.08407e-07, global = 7.14451e-22, cumulative = 1.88517e-20
[INFO] ContinuityError: 118.111 [ms]
[INFO] CorrectBoundary: 2.67 [ms]
[INFO] PISOStep: 13769.2 [ms]
[INFO] TimeStep: 35286.5 [ms]
ExecutionTime = 786.58 s  ClockTime = 652 s

Time = 0.0025

Courant Number mean: 0.0465463 max: 4.77643
[INFO] MatrixAssemblyU: 618.909 [ms]
DILUPBiCGStab:  Solving for Ux, Initial residual = 0.146638, Final residual = 0.00662364, No Iterations 5
DILUPBiCGStab:  Solving for Uy, Initial residual = 0.42844, Final residual = 0.0177298, No Iterations 5
DILUPBiCGStab:  Solving for Uz, Initial residual = 0.755379, Final residual = 0.0325588, No Iterations 5
[INFO] MomentumPredictor: 7031.01 [ms]
[INFO] MatrixAssemblyPI: 803.645 [ms]
[INFO] AdjustPhi: 49.556 [ms]
[INFO] ConstrainPressure: 0.004 [ms]
[INFO] MatrixAssemblyPII: 230.555 [ms]
[OGL LOG][Proc: 0]: global_index_init: 0.031 [ms]
[OGL LOG][Proc: 0]p_local_coeffs: call_update: 0 [ms]
[OGL LOG][Proc: 0]p_non_local_coeffs: call_update: 0 [ms]
[OGL LOG][Proc: 0]p: update_local_matrix_data: 154.793 [ms]
[OGL LOG][Proc: 0]p: update_non_local_matrix_data: 0.392 [ms]
[OGL LOG][Proc: 0]p_matrix: call_update: 4.543 [ms]
[OGL LOG][Proc: 0]p_rhs: call_update: 4.989 [ms]
[OGL LOG][Preconditioner.H:121] Generate preconditioner BJ MaxBlockSize 1
[OGL LOG][Proc: 0]p: init_precond: 2.17 [ms]
[OGL LOG][StoppingCriterion.H:237] Creating stopping criterion with minIter 1842 frequency 11
[OGL LOG][Proc: 0]p: generate_solver: 0.003 [ms]
[OGL LOG][Proc: 0]p: solve: 11852.9 [ms]
[OGL LOG][Proc: 0]p: copy_x_back: 21.396 [ms]
[OGL LOG][lduLduBase.H:330] 
Statistics:
	Time per iteration: 3847 [mu s]
	Time per residual norm calculation: 387.000000 [mu s]
	Time per iteration and DOF: 0.060109 [ns]
	Retrieve results bandwidth 2.991000 [GByte/s]
[OGL LOG][Proc: 0]p: solve_multi_gpu: 11891.1 [ms]
BJhipGKOCG:  Solving for p, Initial residual = 0.983881, Final residual = 8.69952e-05, No Iterations 3081
[INFO] SolveP: 12069 [ms]
time step continuity errors : sum local = 1.18372e-07, global = 7.24197e-22, cumulative = 1.95759e-20
[INFO] ContinuityError: 120.709 [ms]
[INFO] CorrectBoundary: 2.296 [ms]
[INFO] PISOStep: 13539.7 [ms]
[INFO] MatrixAssemblyPI: 785.328 [ms]
[INFO] AdjustPhi: 46.825 [ms]
[INFO] ConstrainPressure: 0.004 [ms]
[INFO] MatrixAssemblyPII: 229.994 [ms]
[OGL LOG][Proc: 0]: global_index_init: 0.362 [ms]
[OGL LOG][Proc: 0]p_local_coeffs: call_update: 0 [ms]
[OGL LOG][Proc: 0]p_non_local_coeffs: call_update: 0 [ms]
[OGL LOG][Proc: 0]p: update_local_matrix_data: 151.844 [ms]
[OGL LOG][Proc: 0]p: update_non_local_matrix_data: 0.41 [ms]
[OGL LOG][Proc: 0]p_matrix: call_update: 4.42 [ms]
[OGL LOG][Proc: 0]p_rhs: call_update: 7.412 [ms]
[OGL LOG][Preconditioner.H:121] Generate preconditioner BJ MaxBlockSize 1
[OGL LOG][Proc: 0]p: init_precond: 1.938 [ms]
[OGL LOG][StoppingCriterion.H:237] Creating stopping criterion with minIter 1848 frequency 11
[OGL LOG][Proc: 0]p: generate_solver: 0.003 [ms]
[OGL LOG][Proc: 0]p: solve: 12105.2 [ms]
[OGL LOG][Proc: 0]p: copy_x_back: 22.066 [ms]
[OGL LOG][lduLduBase.H:330] 
Statistics:
	Time per iteration: 3928 [mu s]
	Time per residual norm calculation: 382.000000 [mu s]
	Time per iteration and DOF: 0.061375 [ns]
	Retrieve results bandwidth 2.900000 [GByte/s]
[OGL LOG][Proc: 0]p: solve_multi_gpu: 12156.2 [ms]
BJhipGKOCG:  Solving for p, Initial residual = 0.919376, Final residual = 8.00757e-05, No Iterations 3081
[INFO] SolveP: 12332.5 [ms]
time step continuity errors : sum local = 1.09995e-07, global = 2.08178e-21, cumulative = 2.16577e-20
[INFO] ContinuityError: 122.831 [ms]
[INFO] CorrectBoundary: 2.393 [ms]
[INFO] PISOStep: 13779.7 [ms]
[INFO] TimeStep: 35074.5 [ms]
ExecutionTime = 829.21 s  ClockTime = 687 s

End

Finalising parallel run
