/*---------------------------------------------------------------------------*\
| =========                 |                                                 |
| \\      /  F ield         | OpenFOAM: The Open Source CFD Toolbox           |
|  \\    /   O peration     | Version:  2306                                  |
|   \\  /    A nd           | Website:  www.openfoam.com                      |
|    \\/     M anipulation  |                                                 |
\*---------------------------------------------------------------------------*/
Build  : a6e826bd55-20230630 OPENFOAM=2306 version=v2306
Arch   : "LSB;label=32;scalar=64"
Exec   : simpleFoam -parallel -case /home/greole/data/code/exasim_project/micro_benchmarks/WindsorBody/workspace/a3cbca567bf9850ed3c4a44b15ab050d/case
Date   : Aug 27 2023
Time   : 14:00:48
Host   : nla-gpu2.ianm.kit.edu
PID    : 3068121
I/O    : uncollated
Case   : /home/greole/data/code/exasim_project/micro_benchmarks/WindsorBody/workspace/a3cbca567bf9850ed3c4a44b15ab050d/case
nProcs : 32
Hosts  :
(
    (nla-gpu2.ianm.kit.edu 32)
)
Pstream initialized with:
    floatTransfer      : false
    nProcsSimpleSum    : 0
    nonBlockingExchange: 0 (tuning: 0)
    exchange algorithm : -1
    commsType          : nonBlocking
    polling iterations : 0
trapFpe: Floating point exception trapping enabled (FOAM_SIGFPE).
fileModificationChecking : Monitoring run-time modified files using timeStampMaster (fileModificationSkew 5, maxFileModificationPolls 20)
allowSystemOperations : Allowing user-supplied system call operations

// * * * * * * * * * * * * * * * * * * * * * * * * * * * * * * * * * * * * * //
Create time

--> FOAM Warning : 
    From void* Foam::dlLibraryTable::openLibrary(const Foam::fileName&, bool)
    in file db/dynamicLibrary/dlLibraryTable/dlLibraryTable.C at line 188
    Could not load "libpetscFoam.so"
libpetscFoam.so: cannot open shared object file: No such file or directory
Create mesh for time = 0


SIMPLE: convergence criteria
    field p	 tolerance 1e-08
    field U	 tolerance 1e-08
    field k	 tolerance 1e-08
    field omega	 tolerance 1e-08
    field nuTilda	 tolerance 1e-08

Reading field p

Reading field U

Reading/calculating face flux field phi

Selecting incompressible transport model Newtonian
Selecting turbulence model type RAS
Selecting RAS turbulence model SpalartAllmaras
Selecting patchDistMethod meshWave
ft2 term: inactive
RAS
{
    RASModel        SpalartAllmaras;
    turbulence      on;
    printCoeffs     on;
    sigmaNut        0.66666;
    kappa           0.41;
    Cb1             0.1355;
    Cb2             0.622;
    Cw2             0.3;
    Cw3             2;
    Cv1             7.1;
    Cs              0.3;
    ck              0.07000000000000001;
    ft2             false;
    Ct3             1.2;
    Ct4             0.5;
}

No MRF models present

Creating finite volume options from "system/fvOptions"

Selecting finite volume options type velocityDampingConstraint
    Source: velocityDamping
    - selecting all cells
    - selected 6307136 cell(s) with volume 27.82583051608611

Starting time loop

--> FOAM Warning : 
    From bool Foam::functionObjectList::read()
    in file db/functionObjects/functionObjectList/functionObjectList.C at line 1035
    Reading "system/controlDict" at line 2 to 41
    Entry 'lref' is not a dictionary
--> FOAM Warning : 
    From bool Foam::functionObjectList::read()
    in file db/functionObjects/functionObjectList/functionObjectList.C at line 1035
    Reading "system/controlDict" at line 2 to 41
    Entry 'Aref' is not a dictionary
--> FOAM Warning : 
    From bool Foam::functionObjectList::read()
    in file db/functionObjects/functionObjectList/functionObjectList.C at line 1035
    Reading "system/controlDict" at line 2 to 41
    Entry 'yawAngle' is not a dictionary
--> FOAM Warning : 
    From bool Foam::functionObjectList::read()
    in file db/functionObjects/functionObjectList/functionObjectList.C at line 1035
    Reading "system/controlDict" at line 2 to 41
    Entry 'lDomain' is not a dictionary
--> FOAM Warning : 
    From bool Foam::functionObjectList::read()
    in file db/functionObjects/functionObjectList/functionObjectList.C at line 1035
    Reading "system/controlDict" at line 2 to 41
    Entry 'bDomain' is not a dictionary
--> FOAM Warning : 
    From bool Foam::functionObjectList::read()
    in file db/functionObjects/functionObjectList/functionObjectList.C at line 1035
    Reading "system/controlDict" at line 2 to 41
    Entry 'hDomain' is not a dictionary
--> FOAM Warning : 
    From bool Foam::functionObjectList::read()
    in file db/functionObjects/functionObjectList/functionObjectList.C at line 1035
    Reading "system/controlDict" at line 2 to 41
    Entry 'xCenter' is not a dictionary
--> FOAM Warning : 
    From bool Foam::functionObjectList::read()
    in file db/functionObjects/functionObjectList/functionObjectList.C at line 1035
    Reading "system/controlDict" at line 2 to 41
    Entry 'yCenter' is not a dictionary
--> FOAM Warning : 
    From bool Foam::functionObjectList::read()
    in file db/functionObjects/functionObjectList/functionObjectList.C at line 1035
    Reading "system/controlDict" at line 2 to 41
    Entry 'zCenter' is not a dictionary
--> FOAM Warning : 
    From bool Foam::functionObjectList::read()
    in file db/functionObjects/functionObjectList/functionObjectList.C at line 1035
    Reading "system/controlDict" at line 2 to 41
    Entry 'inletPatch' is not a dictionary
--> FOAM Warning : 
    From bool Foam::functionObjectList::read()
    in file db/functionObjects/functionObjectList/functionObjectList.C at line 1035
    Reading "system/controlDict" at line 2 to 41
    Entry 'outletPatch' is not a dictionary
--> FOAM Warning : 
    From bool Foam::functionObjectList::read()
    in file db/functionObjects/functionObjectList/functionObjectList.C at line 1035
    Reading "system/controlDict" at line 2 to 41
    Entry 'wallPatches' is not a dictionary
--> FOAM Warning : 
    From bool Foam::functionObjectList::read()
    in file db/functionObjects/functionObjectList/functionObjectList.C at line 1035
    Reading "system/controlDict" at line 2 to 41
    Entry 'forcesWallPatches' is not a dictionary
--> FOAM Warning : 
    From bool Foam::functionObjectList::read()
    in file db/functionObjects/functionObjectList/functionObjectList.C at line 1035
    Reading "system/controlDict" at line 2 to 41
    Entry 'symmPatches' is not a dictionary
--> FOAM Warning : 
    From bool Foam::functionObjectList::read()
    in file db/functionObjects/functionObjectList/functionObjectList.C at line 1035
    Reading "system/controlDict" at line 2 to 41
    Entry 'Uinf' is not a dictionary
--> FOAM Warning : 
    From bool Foam::functionObjectList::read()
    in file db/functionObjects/functionObjectList/functionObjectList.C at line 1035
    Reading "system/controlDict" at line 2 to 41
    Entry 'UinfMag' is not a dictionary
--> FOAM Warning : 
    From bool Foam::functionObjectList::read()
    in file db/functionObjects/functionObjectList/functionObjectList.C at line 1035
    Reading "system/controlDict" at line 2 to 41
    Entry 'nu' is not a dictionary
--> FOAM Warning : 
    From bool Foam::functionObjectList::read()
    in file db/functionObjects/functionObjectList/functionObjectList.C at line 1035
    Reading "system/controlDict" at line 2 to 41
    Entry 'pref' is not a dictionary
--> FOAM Warning : 
    From bool Foam::functionObjectList::read()
    in file db/functionObjects/functionObjectList/functionObjectList.C at line 1035
    Reading "system/controlDict" at line 2 to 41
    Entry 'viscRatio' is not a dictionary
--> FOAM Warning : 
    From bool Foam::functionObjectList::read()
    in file db/functionObjects/functionObjectList/functionObjectList.C at line 1035
    Reading "system/controlDict" at line 2 to 41
    Entry 'Tu' is not a dictionary
--> FOAM Warning : 
    From bool Foam::functionObjectList::read()
    in file db/functionObjects/functionObjectList/functionObjectList.C at line 1035
    Reading "system/controlDict" at line 2 to 41
    Entry 'LESturbModel' is not a dictionary
--> FOAM Warning : 
    From bool Foam::functionObjectList::read()
    in file db/functionObjects/functionObjectList/functionObjectList.C at line 1035
    Reading "system/controlDict" at line 2 to 41
    Entry 'RASturbModel' is not a dictionary
--> FOAM Warning : 
    From bool Foam::functionObjectList::read()
    in file db/functionObjects/functionObjectList/functionObjectList.C at line 1035
    Reading "system/controlDict" at line 2 to 41
    Entry 'deltaTurb' is not a dictionary
--> FOAM Warning : 
    From bool Foam::functionObjectList::read()
    in file db/functionObjects/functionObjectList/functionObjectList.C at line 1035
    Reading "system/controlDict" at line 2 to 41
    Entry 'dt' is not a dictionary
--> FOAM Warning : 
    From bool Foam::functionObjectList::read()
    in file db/functionObjects/functionObjectList/functionObjectList.C at line 1035
    Reading "system/controlDict" at line 2 to 41
    Entry 'tAvg' is not a dictionary
--> FOAM Warning : 
    From bool Foam::functionObjectList::read()
    in file db/functionObjects/functionObjectList/functionObjectList.C at line 1035
    Reading "system/controlDict" at line 2 to 41
    Entry 'tEnd' is not a dictionary
--> FOAM Warning : 
    From bool Foam::functionObjectList::read()
    in file db/functionObjects/functionObjectList/functionObjectList.C at line 1035
    Reading "system/controlDict" at line 2 to 41
    Entry 'writeInterval_' is not a dictionary
--> FOAM Warning : 
    From bool Foam::functionObjectList::read()
    in file db/functionObjects/functionObjectList/functionObjectList.C at line 1035
    Reading "system/controlDict" at line 2 to 41
    Entry 'nCores' is not a dictionary
--> FOAM Warning : 
    From bool Foam::functionObjectList::read()
    in file db/functionObjects/functionObjectList/functionObjectList.C at line 1035
    Reading "system/controlDict" at line 2 to 41
    Entry 'interpScheme' is not a dictionary
--> FOAM Warning : 
    From bool Foam::functionObjectList::read()
    in file db/functionObjects/functionObjectList/functionObjectList.C at line 1035
    Reading "system/controlDict" at line 2 to 41
    Entry 'probeField' is not a dictionary
wallShearStress wallShearStress:
    processing wall patches: 
        Windsor_Body
        CFDWT_Floor
        Windsor_Pins
        Windsor_Base

pressure calc_cp:
    Operating mode: staticCoeff
    Not including hydrostatic effects

forceCoeffs forceCoeffsAll:
    rho: rhoInf
    Freestream density (rhoInf) set to 1
    Not including porosity effects
    magUInf: 40
    lRef   : 0.6375
    Aref   : 0.1124
    rhoInf : 1
    Selecting all coefficients
    - Drag force: Cd
    - Drag force front: Cd(f)
    - Drag force rear: Cd(r)
    - Lift force: Cl
    - Lift force front: Cl(f)
    - Lift force rear: Cl(r)
    - Pitch moment: CmPitch
    - Roll moment: CmRoll
    - Yaw moment: CmYaw
    - Side force: Cs
    - Side force front: Cs(f)
    - Side force rear: Cs(r)


forceCoeffs dragCoeffBase:
    rho: rhoInf
    Freestream density (rhoInf) set to 1
    Not including porosity effects
    magUInf: 40
    lRef   : 0.6375
    Aref   : 0.1124
    rhoInf : 1
    Selecting coefficients:
    - Drag force: Cd


Time = 1

velocityDampingConstraint velocityDamping damped 0 (0%) of cells, with max limit 300
[INFO] MatrixAssemblyU: 486.81 [ms]
smoothSolver:  Solving for Ux, Initial residual = 0.9999999999990106, Final residual = 0.08740394529067033, No Iterations 15
smoothSolver:  Solving for Uy, Initial residual = 1, Final residual = 0.08989488380680079, No Iterations 31
smoothSolver:  Solving for Uz, Initial residual = 1, Final residual = 0.03329925895369379, No Iterations 2
[INFO] MomentumPredictor: 480.569 [ms]
[INFO] MatrixAssemblyPI: 78.083 [ms]
[INFO] MatrixAssemblyPII: 36.472 [ms]
[OGL LOG][lduLduBase.H:119] Initialising OGL
	OGL commit:  4647ee1+
	Branch: PersistentDeviceIdGuard 
	Build type: Release
	Ginkgo version: 1.5.0 ( develop)
	Ginkgo commit: 4292ffdee
	MPI is GPU aware: 1
	Forces host buffer based communication: 0
	CPU ranks per GPU: 1
	Matrix format: Coo
	End OGL_INFO
[OGL LOG][Proc: 0]: global_index_init: 9.228 [ms]
[OGL LOG][Proc: 0]p_local_cols: call_init: 0.034 [ms]
[OGL LOG][Proc: 0]p_local_rows: call_init: 0.003 [ms]
[OGL LOG][Proc: 0]p_local_ldu_map: call_init: 0.002 [ms]
[OGL LOG][Proc: 0]p_local_coeffs: call_init: 0.005 [ms]
[OGL LOG][Proc: 0]p_non_local_cols: call_init: 0.003 [ms]
[OGL LOG][Proc: 0]p_non_local_rows: call_init: 0.003 [ms]
[OGL LOG][Proc: 0]p_non_local_ldu_map: call_init: 0.003 [ms]
[OGL LOG][Proc: 0]p_non_local_coeffs: call_init: 0.003 [ms]
[OGL LOG][Proc: 0]p: init_local_sparsity_pattern: 64.255 [ms]
[OGL LOG][Proc: 0]p: init_non_local_sparsity_pattern: 1.063 [ms]
[OGL LOG][Proc: 0]p: update_local_matrix_data: 10.494 [ms]
[OGL LOG][Proc: 0]p: update_non_local_matrix_data: 0.121 [ms]
[OGL LOG][Proc: 0]device_partition: call_init: 7.81 [ms]
[OGL LOG][Proc: 0]p_matrix: call_init: 103.278 [ms]
[OGL LOG][Proc: 0]p_rhs: call_init: 0.628 [ms]
[OGL LOG][Proc: 0]p_solution: call_init: 5.245 [ms]
[OGL LOG][Preconditioner.H:121] Generate preconditioner BJ MaxBlockSize 1
[OGL LOG][Proc: 0]p: init_precond: 6.277 [ms]
[OGL LOG][StoppingCriterion.H:373] Creating stopping criterion with minIter 0 frequency 1
[OGL LOG][Proc: 0]p: generate_solver: 0.019 [ms]
[OGL LOG][Proc: 0]p: solve: 3580.973 [ms]
[OGL LOG][Proc: 0]p: copy_x_back: 1.328 [ms]
[OGL LOG][lduLduBase.H:336] 
Statistics:
	Time per iteration: 3065 [mu s]
	Time per residual norm calculation: 1786.000000 [mu s]
	Time per iteration and DOF: 0.485957 [ns]
	Retrieve results bandwidth 1.570000 [GByte/s]
[OGL LOG][Proc: 0]p: solve_multi_gpu: 3706.258 [ms]
BJhipGKOCG:  Solving for p, Initial residual = 1.000000000000124, Final residual = 0.00988981007509673, No Iterations 1168
[INFO] SolveP: 4145.258 [ms]
time step continuity errors : sum local = 0.003628608729809378, global = 4.477853852769803e-05, cumulative = 4.477853852769803e-05
[INFO] postSolveP: 21.96 [ms]
smoothSolver:  Solving for nuTilda, Initial residual = 0.9999999998003398, Final residual = 0.06434526411835134, No Iterations 3
[INFO] TimeStep: 5533.383 [ms]
ExecutionTime = 11.15 s  ClockTime = 11 s

--> FOAM Warning : 
    From virtual bool Foam::functionObjects::fieldSelection::checkSelection()
    in file functionObjects/fieldSelections/fieldSelection/fieldSelection.C at line 166
    Field k not found
--> FOAM Warning : 
    From virtual bool Foam::functionObjects::fieldSelection::checkSelection()
    in file functionObjects/fieldSelections/fieldSelection/fieldSelection.C at line 166
    Field gammaInt not found
--> FOAM Warning : 
    From virtual bool Foam::functionObjects::fieldSelection::checkSelection()
    in file functionObjects/fieldSelections/fieldSelection/fieldSelection.C at line 166
    Field omega not found
--> FOAM Warning : 
    From virtual bool Foam::functionObjects::fieldSelection::checkSelection()
    in file functionObjects/fieldSelections/fieldSelection/fieldSelection.C at line 166
    Field ReThetat not found
--> FOAM Warning : 
    From virtual bool Foam::functionObjects::fieldSelection::checkSelection()
    in file functionObjects/fieldSelections/fieldSelection/fieldSelection.C at line 166
    Field epsilon not found
--> FOAM Warning : 
    From virtual bool Foam::functionObjects::solverFieldSelection::updateSelection()
    in file functionObjects/fieldSelections/solverFieldSelection/solverFieldSelection.C at line 85
    Valid solver fields are: 3(U nuTilda p)Time = 2

velocityDampingConstraint velocityDamping damped 0 (0%) of cells, with max limit 300
[INFO] MatrixAssemblyU: 450.496 [ms]
smoothSolver:  Solving for Ux, Initial residual = 0.2130737150247574, Final residual = 0.01845992494001111, No Iterations 13
smoothSolver:  Solving for Uy, Initial residual = 0.3552909759855825, Final residual = 0.03328918092833828, No Iterations 13
smoothSolver:  Solving for Uz, Initial residual = 0.3287269655940165, Final residual = 0.02817215246771248, No Iterations 13
[INFO] MomentumPredictor: 427.709 [ms]
[INFO] MatrixAssemblyPI: 77.566 [ms]
[INFO] MatrixAssemblyPII: 36.162 [ms]
[OGL LOG][Proc: 0]: global_index_init: 0.254 [ms]
[OGL LOG][Proc: 0]p_local_coeffs: call_update: 0.001 [ms]
[OGL LOG][Proc: 0]p_non_local_coeffs: call_update: 0 [ms]
[OGL LOG][Proc: 0]p: update_local_matrix_data: 11.807 [ms]
[OGL LOG][Proc: 0]p: update_non_local_matrix_data: 0.095 [ms]
[OGL LOG][Proc: 0]p_matrix: call_update: 3.129 [ms]
[OGL LOG][Proc: 0]p_rhs: call_update: 1.099 [ms]
[OGL LOG][Preconditioner.H:121] Generate preconditioner BJ MaxBlockSize 1
[OGL LOG][Proc: 0]p: init_precond: 0.27 [ms]
[OGL LOG][StoppingCriterion.H:373] Creating stopping criterion with minIter 700 frequency 21
[OGL LOG][Proc: 0]p: generate_solver: 0.001 [ms]
[OGL LOG][Proc: 0]p: solve: 1274.182 [ms]
[OGL LOG][Proc: 0]p: copy_x_back: 1.083 [ms]
[OGL LOG][lduLduBase.H:336] 
Statistics:
	Time per iteration: 1317 [mu s]
	Time per residual norm calculation: 6087.000000 [mu s]
	Time per iteration and DOF: 0.208811 [ns]
	Retrieve results bandwidth 1.925000 [GByte/s]
[OGL LOG][Proc: 0]p: solve_multi_gpu: 1280.338 [ms]
BJhipGKOCG:  Solving for p, Initial residual = 0.2096062539321766, Final residual = 0.001566267766576785, No Iterations 967
[INFO] SolveP: 1294.522 [ms]
time step continuity errors : sum local = 0.03210356831953225, global = 0.001479239082376365, cumulative = 0.001524017620904063
[INFO] postSolveP: 19.966 [ms]
smoothSolver:  Solving for nuTilda, Initial residual = 0.4060463132876233, Final residual = 0.02533738821293709, No Iterations 1
[INFO] TimeStep: 2579.845 [ms]
ExecutionTime = 14.07 s  ClockTime = 14 s

Time = 3

velocityDampingConstraint velocityDamping damped 829 (0.01%) of cells, with max limit 300
[INFO] MatrixAssemblyU: 460.692 [ms]
smoothSolver:  Solving for Ux, Initial residual = 0.1247780986623266, Final residual = 0.01177902253219524, No Iterations 9
smoothSolver:  Solving for Uy, Initial residual = 0.2053799034059047, Final residual = 0.01979803186314421, No Iterations 10
smoothSolver:  Solving for Uz, Initial residual = 0.2183121671278233, Final residual = 0.02141064647455638, No Iterations 9
[INFO] MomentumPredictor: 327.186 [ms]
[INFO] MatrixAssemblyPI: 78.39700000000001 [ms]
[INFO] MatrixAssemblyPII: 36.261 [ms]
[OGL LOG][Proc: 0]: global_index_init: 0.338 [ms]
[OGL LOG][Proc: 0]p_local_coeffs: call_update: 0 [ms]
[OGL LOG][Proc: 0]p_non_local_coeffs: call_update: 0 [ms]
[OGL LOG][Proc: 0]p: update_local_matrix_data: 10.775 [ms]
[OGL LOG][Proc: 0]p: update_non_local_matrix_data: 0.08700000000000001 [ms]
[OGL LOG][Proc: 0]p_matrix: call_update: 5.429 [ms]
[OGL LOG][Proc: 0]p_rhs: call_update: 0.622 [ms]
[OGL LOG][Preconditioner.H:121] Generate preconditioner BJ MaxBlockSize 1
[OGL LOG][Proc: 0]p: init_precond: 0.257 [ms]
[OGL LOG][StoppingCriterion.H:373] Creating stopping criterion with minIter 0 frequency 1
[OGL LOG][Proc: 0]p: generate_solver: 0.001 [ms]
[OGL LOG][Proc: 0]p: solve: 949.221 [ms]
[OGL LOG][Proc: 0]p: copy_x_back: 1.276 [ms]
[OGL LOG][lduLduBase.H:336] 
Statistics:
	Time per iteration: 1671 [mu s]
	Time per residual norm calculation: 222.000000 [mu s]
	Time per iteration and DOF: 0.264938 [ns]
	Retrieve results bandwidth 1.634000 [GByte/s]
[OGL LOG][Proc: 0]p: solve_multi_gpu: 957.385 [ms]
BJhipGKOCG:  Solving for p, Initial residual = 0.1169305463575055, Final residual = 0.001166970160437413, No Iterations 568
[INFO] SolveP: 970.5549999999999 [ms]
time step continuity errors : sum local = 0.01316682013442977, global = -6.205648321226753e-05, cumulative = 0.001461961137691796
[INFO] postSolveP: 19.674 [ms]
smoothSolver:  Solving for nuTilda, Initial residual = 0.2092404898319718, Final residual = 0.01314127059514551, No Iterations 2
[INFO] TimeStep: 2174.333 [ms]
ExecutionTime = 16.6 s  ClockTime = 17 s

Time = 4

velocityDampingConstraint velocityDamping damped 0 (0%) of cells, with max limit 300
[INFO] MatrixAssemblyU: 463.176 [ms]
smoothSolver:  Solving for Ux, Initial residual = 0.05435411773029433, Final residual = 0.004971703481226417, No Iterations 11
smoothSolver:  Solving for Uy, Initial residual = 0.1226191476644125, Final residual = 0.01106008395376859, No Iterations 11
smoothSolver:  Solving for Uz, Initial residual = 0.1334730338944656, Final residual = 0.01303071392071233, No Iterations 10
[INFO] MomentumPredictor: 348.147 [ms]
[INFO] MatrixAssemblyPI: 78.438 [ms]
[INFO] MatrixAssemblyPII: 36.556 [ms]
[OGL LOG][Proc: 0]: global_index_init: 0.07100000000000001 [ms]
[OGL LOG][Proc: 0]p_local_coeffs: call_update: 0 [ms]
[OGL LOG][Proc: 0]p_non_local_coeffs: call_update: 0 [ms]
[OGL LOG][Proc: 0]p: update_local_matrix_data: 11.821 [ms]
[OGL LOG][Proc: 0]p: update_non_local_matrix_data: 0.098 [ms]
[OGL LOG][Proc: 0]p_matrix: call_update: 5.528 [ms]
[OGL LOG][Proc: 0]p_rhs: call_update: 0.305 [ms]
[OGL LOG][Preconditioner.H:121] Generate preconditioner BJ MaxBlockSize 1
[OGL LOG][Proc: 0]p: init_precond: 0.268 [ms]
[OGL LOG][StoppingCriterion.H:373] Creating stopping criterion with minIter 340 frequency 5
[OGL LOG][Proc: 0]p: generate_solver: 0.001 [ms]
[OGL LOG][Proc: 0]p: solve: 518.766 [ms]
[OGL LOG][Proc: 0]p: copy_x_back: 1.104 [ms]
[OGL LOG][lduLduBase.H:336] 
Statistics:
	Time per iteration: 1457 [mu s]
	Time per residual norm calculation: 307.000000 [mu s]
	Time per iteration and DOF: 0.231008 [ns]
	Retrieve results bandwidth 1.888000 [GByte/s]
[OGL LOG][Proc: 0]p: solve_multi_gpu: 526.5550000000001 [ms]
BJhipGKOCG:  Solving for p, Initial residual = 0.1409876911016721, Final residual = 0.001382434509859082, No Iterations 356
[INFO] SolveP: 540.462 [ms]
time step continuity errors : sum local = 0.01320852055618592, global = -0.0003487587577989288, cumulative = 0.001113202379892867
[INFO] postSolveP: 20.077 [ms]
smoothSolver:  Solving for nuTilda, Initial residual = 0.1247614390893957, Final residual = 0.01052383681015116, No Iterations 2
[INFO] TimeStep: 1762.969 [ms]
ExecutionTime = 18.71 s  ClockTime = 19 s

Time = 5

velocityDampingConstraint velocityDamping damped 118 (0%) of cells, with max limit 300
[INFO] MatrixAssemblyU: 459.815 [ms]
smoothSolver:  Solving for Ux, Initial residual = 0.04419875286059626, Final residual = 0.004204840981063541, No Iterations 10
smoothSolver:  Solving for Uy, Initial residual = 0.09819792241906081, Final residual = 0.009298039189527988, No Iterations 11
smoothSolver:  Solving for Uz, Initial residual = 0.1140052428106447, Final residual = 0.01130429054507256, No Iterations 10
[INFO] MomentumPredictor: 358.638 [ms]
[INFO] MatrixAssemblyPI: 78.456 [ms]
[INFO] MatrixAssemblyPII: 36.727 [ms]
[OGL LOG][Proc: 0]: global_index_init: 0.13 [ms]
[OGL LOG][Proc: 0]p_local_coeffs: call_update: 0 [ms]
[OGL LOG][Proc: 0]p_non_local_coeffs: call_update: 0 [ms]
[OGL LOG][Proc: 0]p: update_local_matrix_data: 11.087 [ms]
[OGL LOG][Proc: 0]p: update_non_local_matrix_data: 0.091 [ms]
[OGL LOG][Proc: 0]p_matrix: call_update: 2.859 [ms]
[OGL LOG][Proc: 0]p_rhs: call_update: 1.898 [ms]
[OGL LOG][Preconditioner.H:121] Generate preconditioner BJ MaxBlockSize 1
[OGL LOG][Proc: 0]p: init_precond: 0.257 [ms]
[OGL LOG][StoppingCriterion.H:373] Creating stopping criterion with minIter 213 frequency 5
[OGL LOG][Proc: 0]p: generate_solver: 0.001 [ms]
[OGL LOG][Proc: 0]p: solve: 515.535 [ms]
[OGL LOG][Proc: 0]p: copy_x_back: 1.123 [ms]
[OGL LOG][lduLduBase.H:336] 
Statistics:
	Time per iteration: 1534 [mu s]
	Time per residual norm calculation: 228.000000 [mu s]
	Time per iteration and DOF: 0.243217 [ns]
	Retrieve results bandwidth 1.856000 [GByte/s]
[OGL LOG][Proc: 0]p: solve_multi_gpu: 522.314 [ms]
BJhipGKOCG:  Solving for p, Initial residual = 0.102843197758615, Final residual = 0.001027363525037833, No Iterations 336
[INFO] SolveP: 535.511 [ms]
time step continuity errors : sum local = 0.007662588064607663, global = 0.0003387676775455452, cumulative = 0.001451970057438412
[INFO] postSolveP: 20.033 [ms]
smoothSolver:  Solving for nuTilda, Initial residual = 0.07091995385752137, Final residual = 0.004315170065927291, No Iterations 3
[INFO] TimeStep: 1772.237 [ms]
ExecutionTime = 20.82 s  ClockTime = 21 s

Time = 6

velocityDampingConstraint velocityDamping damped 0 (0%) of cells, with max limit 300
[INFO] MatrixAssemblyU: 449.806 [ms]
smoothSolver:  Solving for Ux, Initial residual = 0.02988581149632165, Final residual = 0.002670017836709234, No Iterations 12
smoothSolver:  Solving for Uy, Initial residual = 0.07478672614872263, Final residual = 0.006949518381147299, No Iterations 12
smoothSolver:  Solving for Uz, Initial residual = 0.08078289141418257, Final residual = 0.006941339231905191, No Iterations 12
[INFO] MomentumPredictor: 403 [ms]
[INFO] MatrixAssemblyPI: 80.31100000000001 [ms]
[INFO] MatrixAssemblyPII: 39.632 [ms]
[OGL LOG][Proc: 0]: global_index_init: 0.233 [ms]
[OGL LOG][Proc: 0]p_local_coeffs: call_update: 0 [ms]
[OGL LOG][Proc: 0]p_non_local_coeffs: call_update: 0 [ms]
[OGL LOG][Proc: 0]p: update_local_matrix_data: 11.433 [ms]
[OGL LOG][Proc: 0]p: update_non_local_matrix_data: 0.108 [ms]
[OGL LOG][Proc: 0]p_matrix: call_update: 2.635 [ms]
[OGL LOG][Proc: 0]p_rhs: call_update: 12.934 [ms]
[OGL LOG][Preconditioner.H:121] Generate preconditioner BJ MaxBlockSize 1
[OGL LOG][Proc: 0]p: init_precond: 0.273 [ms]
[OGL LOG][StoppingCriterion.H:373] Creating stopping criterion with minIter 201 frequency 4
[OGL LOG][Proc: 0]p: generate_solver: 0.001 [ms]
[OGL LOG][Proc: 0]p: solve: 454.084 [ms]
[OGL LOG][Proc: 0]p: copy_x_back: 1.062 [ms]
[OGL LOG][lduLduBase.H:336] 
Statistics:
	Time per iteration: 1397 [mu s]
	Time per residual norm calculation: 227.000000 [mu s]
	Time per iteration and DOF: 0.221495 [ns]
	Retrieve results bandwidth 1.963000 [GByte/s]
[OGL LOG][Proc: 0]p: solve_multi_gpu: 471.588 [ms]
BJhipGKOCG:  Solving for p, Initial residual = 0.09134584769965398, Final residual = 0.0008891679634433056, No Iterations 325
[INFO] SolveP: 485.527 [ms]
time step continuity errors : sum local = 0.006906876271117343, global = 0.0001013356222373763, cumulative = 0.001553305679675788
[INFO] postSolveP: 20.263 [ms]
smoothSolver:  Solving for nuTilda, Initial residual = 0.06431004226942263, Final residual = 0.003007396540355973, No Iterations 3
[INFO] TimeStep: 1757.841 [ms]
ExecutionTime = 22.93 s  ClockTime = 23 s

Time = 7

velocityDampingConstraint velocityDamping damped 15 (0%) of cells, with max limit 300
[INFO] MatrixAssemblyU: 456.302 [ms]
smoothSolver:  Solving for Ux, Initial residual = 0.02707974056217659, Final residual = 0.002414936165789625, No Iterations 12
smoothSolver:  Solving for Uy, Initial residual = 0.06787791397112942, Final residual = 0.006435008658103794, No Iterations 12
smoothSolver:  Solving for Uz, Initial residual = 0.07105719774698908, Final residual = 0.006229688090860837, No Iterations 12
[INFO] MomentumPredictor: 390.27 [ms]
[INFO] MatrixAssemblyPI: 78.56 [ms]
[INFO] MatrixAssemblyPII: 36.78 [ms]
[OGL LOG][Proc: 0]: global_index_init: 0.031 [ms]
[OGL LOG][Proc: 0]p_local_coeffs: call_update: 0 [ms]
[OGL LOG][Proc: 0]p_non_local_coeffs: call_update: 0 [ms]
[OGL LOG][Proc: 0]p: update_local_matrix_data: 11.035 [ms]
[OGL LOG][Proc: 0]p: update_non_local_matrix_data: 0.091 [ms]
[OGL LOG][Proc: 0]p_matrix: call_update: 2.723 [ms]
[OGL LOG][Proc: 0]p_rhs: call_update: 3.396 [ms]
[OGL LOG][Preconditioner.H:121] Generate preconditioner BJ MaxBlockSize 1
[OGL LOG][Proc: 0]p: init_precond: 0.263 [ms]
[OGL LOG][StoppingCriterion.H:373] Creating stopping criterion with minIter 195 frequency 4
[OGL LOG][Proc: 0]p: generate_solver: 0.001 [ms]
[OGL LOG][Proc: 0]p: solve: 459.763 [ms]
[OGL LOG][Proc: 0]p: copy_x_back: 1.077 [ms]
[OGL LOG][lduLduBase.H:336] 
Statistics:
	Time per iteration: 1302 [mu s]
	Time per residual norm calculation: 224.000000 [mu s]
	Time per iteration and DOF: 0.206433 [ns]
	Retrieve results bandwidth 1.936000 [GByte/s]
[OGL LOG][Proc: 0]p: solve_multi_gpu: 467.828 [ms]
BJhipGKOCG:  Solving for p, Initial residual = 0.07953971354235011, Final residual = 0.0007854232682528381, No Iterations 353
[INFO] SolveP: 481.157 [ms]
time step continuity errors : sum local = 0.005975625912520943, global = -0.0004966528153263455, cumulative = 0.001056652864349443
[INFO] postSolveP: 20.604 [ms]
smoothSolver:  Solving for nuTilda, Initial residual = 0.04911334301624195, Final residual = 0.003231493083296993, No Iterations 3
[INFO] TimeStep: 1750.122 [ms]
ExecutionTime = 25.02 s  ClockTime = 25 s

Time = 8

velocityDampingConstraint velocityDamping damped 0 (0%) of cells, with max limit 300
[INFO] MatrixAssemblyU: 450.335 [ms]
smoothSolver:  Solving for Ux, Initial residual = 0.02307452898177632, Final residual = 0.002142326160988801, No Iterations 12
smoothSolver:  Solving for Uy, Initial residual = 0.0603465565085467, Final residual = 0.00594024091083764, No Iterations 12
smoothSolver:  Solving for Uz, Initial residual = 0.06205179368406907, Final residual = 0.005635377008862784, No Iterations 12
[INFO] MomentumPredictor: 389.126 [ms]
[INFO] MatrixAssemblyPI: 80.947 [ms]
[INFO] MatrixAssemblyPII: 36.375 [ms]
[OGL LOG][Proc: 0]: global_index_init: 0.075 [ms]
[OGL LOG][Proc: 0]p_local_coeffs: call_update: 0 [ms]
[OGL LOG][Proc: 0]p_non_local_coeffs: call_update: 0 [ms]
[OGL LOG][Proc: 0]p: update_local_matrix_data: 11.103 [ms]
[OGL LOG][Proc: 0]p: update_non_local_matrix_data: 0.08700000000000001 [ms]
[OGL LOG][Proc: 0]p_matrix: call_update: 2.488 [ms]
[OGL LOG][Proc: 0]p_rhs: call_update: 3.154 [ms]
[OGL LOG][Preconditioner.H:121] Generate preconditioner BJ MaxBlockSize 1
[OGL LOG][Proc: 0]p: init_precond: 0.293 [ms]
[OGL LOG][StoppingCriterion.H:373] Creating stopping criterion with minIter 211 frequency 5
[OGL LOG][Proc: 0]p: generate_solver: 0.001 [ms]
[OGL LOG][Proc: 0]p: solve: 1000.481 [ms]
[OGL LOG][Proc: 0]p: copy_x_back: 1.046 [ms]
[OGL LOG][lduLduBase.H:336] 
Statistics:
	Time per iteration: 1323 [mu s]
	Time per residual norm calculation: 225.000000 [mu s]
	Time per iteration and DOF: 0.209762 [ns]
	Retrieve results bandwidth 1.993000 [GByte/s]
[OGL LOG][Proc: 0]p: solve_multi_gpu: 1008.238 [ms]
BJhipGKOCG:  Solving for p, Initial residual = 0.0719407749174452, Final residual = 0.0006876852715928326, No Iterations 756
[INFO] SolveP: 1021.674 [ms]
time step continuity errors : sum local = 0.005332332282164729, global = -0.0003461051520900598, cumulative = 0.0007105477122593831
[INFO] postSolveP: 19.934 [ms]
smoothSolver:  Solving for nuTilda, Initial residual = 0.06541567121120544, Final residual = 0.005864859352168321, No Iterations 2
[INFO] TimeStep: 2277.389 [ms]
ExecutionTime = 27.64 s  ClockTime = 28 s

Time = 9

velocityDampingConstraint velocityDamping damped 0 (0%) of cells, with max limit 300
[INFO] MatrixAssemblyU: 449.108 [ms]
smoothSolver:  Solving for Ux, Initial residual = 0.02049640943784124, Final residual = 0.001912395271051662, No Iterations 12
smoothSolver:  Solving for Uy, Initial residual = 0.05462604108914852, Final residual = 0.005438868952507188, No Iterations 12
smoothSolver:  Solving for Uz, Initial residual = 0.05535986923981233, Final residual = 0.005138300006965889, No Iterations 12
[INFO] MomentumPredictor: 393.872 [ms]
[INFO] MatrixAssemblyPI: 77.741 [ms]
[INFO] MatrixAssemblyPII: 36.711 [ms]
[OGL LOG][Proc: 0]: global_index_init: 0.073 [ms]
[OGL LOG][Proc: 0]p_local_coeffs: call_update: 0 [ms]
[OGL LOG][Proc: 0]p_non_local_coeffs: call_update: 0 [ms]
[OGL LOG][Proc: 0]p: update_local_matrix_data: 10.334 [ms]
[OGL LOG][Proc: 0]p: update_non_local_matrix_data: 0.08700000000000001 [ms]
[OGL LOG][Proc: 0]p_matrix: call_update: 2.478 [ms]
[OGL LOG][Proc: 0]p_rhs: call_update: 3.05 [ms]
[OGL LOG][Preconditioner.H:121] Generate preconditioner BJ MaxBlockSize 1
[OGL LOG][Proc: 0]p: init_precond: 0.351 [ms]
[OGL LOG][StoppingCriterion.H:373] Creating stopping criterion with minIter 453 frequency 7
[OGL LOG][Proc: 0]p: generate_solver: 0 [ms]
[OGL LOG][Proc: 0]p: solve: 577.59 [ms]
[OGL LOG][Proc: 0]p: copy_x_back: 1.59 [ms]
[OGL LOG][lduLduBase.H:336] 
Statistics:
	Time per iteration: 1266 [mu s]
	Time per residual norm calculation: 246.000000 [mu s]
	Time per iteration and DOF: 0.200725 [ns]
	Retrieve results bandwidth 1.311000 [GByte/s]
[OGL LOG][Proc: 0]p: solve_multi_gpu: 585.768 [ms]
BJhipGKOCG:  Solving for p, Initial residual = 0.06872257747582616, Final residual = 0.0003881631660334528, No Iterations 456
[INFO] SolveP: 598.51 [ms]
time step continuity errors : sum local = 0.002912239273682562, global = 0.0005611232950996095, cumulative = 0.001271671007358993
[INFO] postSolveP: 20.276 [ms]
smoothSolver:  Solving for nuTilda, Initial residual = 0.04415136767349597, Final residual = 0.003204056177378135, No Iterations 3
[INFO] TimeStep: 1859.393 [ms]
ExecutionTime = 29.84 s  ClockTime = 30 s

Time = 10

velocityDampingConstraint velocityDamping damped 0 (0%) of cells, with max limit 300
[INFO] MatrixAssemblyU: 446.139 [ms]
smoothSolver:  Solving for Ux, Initial residual = 0.01844716924358642, Final residual = 0.001732919125367731, No Iterations 12
smoothSolver:  Solving for Uy, Initial residual = 0.05027957310056536, Final residual = 0.005017112499260017, No Iterations 12
smoothSolver:  Solving for Uz, Initial residual = 0.05057655736552746, Final residual = 0.004770998502327692, No Iterations 12
[INFO] MomentumPredictor: 404.017 [ms]
[INFO] MatrixAssemblyPI: 77.679 [ms]
[INFO] MatrixAssemblyPII: 36.367 [ms]
[OGL LOG][Proc: 0]: global_index_init: 0.109 [ms]
[OGL LOG][Proc: 0]p_local_coeffs: call_update: 0 [ms]
[OGL LOG][Proc: 0]p_non_local_coeffs: call_update: 0 [ms]
[OGL LOG][Proc: 0]p: update_local_matrix_data: 11.196 [ms]
[OGL LOG][Proc: 0]p: update_non_local_matrix_data: 0.111 [ms]
[OGL LOG][Proc: 0]p_matrix: call_update: 2.479 [ms]
[OGL LOG][Proc: 0]p_rhs: call_update: 2.124 [ms]
[OGL LOG][Preconditioner.H:121] Generate preconditioner BJ MaxBlockSize 1
[OGL LOG][Proc: 0]p: init_precond: 0.263 [ms]
[OGL LOG][StoppingCriterion.H:373] Creating stopping criterion with minIter 273 frequency 6
[OGL LOG][Proc: 0]p: generate_solver: 0.001 [ms]
[OGL LOG][Proc: 0]p: solve: 399.898 [ms]
[OGL LOG][Proc: 0]p: copy_x_back: 1.083 [ms]
[OGL LOG][lduLduBase.H:336] 
Statistics:
	Time per iteration: 1302 [mu s]
	Time per residual norm calculation: 237.000000 [mu s]
	Time per iteration and DOF: 0.206433 [ns]
	Retrieve results bandwidth 1.925000 [GByte/s]
[OGL LOG][Proc: 0]p: solve_multi_gpu: 406.447 [ms]
BJhipGKOCG:  Solving for p, Initial residual = 0.0627704187837979, Final residual = 0.0006248804506443922, No Iterations 307
[INFO] SolveP: 419.792 [ms]
time step continuity errors : sum local = 0.004648939406906302, global = 0.001039997082255493, cumulative = 0.002311668089614486
[INFO] postSolveP: 20.27 [ms]
smoothSolver:  Solving for nuTilda, Initial residual = 0.06971868949665946, Final residual = 0.005494821614247781, No Iterations 2
[INFO] TimeStep: 1687.069 [ms]
ExecutionTime = 31.86 s  ClockTime = 32 s

Time = 11

velocityDampingConstraint velocityDamping damped 0 (0%) of cells, with max limit 300
[INFO] MatrixAssemblyU: 446.235 [ms]
smoothSolver:  Solving for Ux, Initial residual = 0.01674603107439882, Final residual = 0.001607826420677965, No Iterations 12
smoothSolver:  Solving for Uy, Initial residual = 0.04741228883629411, Final residual = 0.004700128834256176, No Iterations 12
smoothSolver:  Solving for Uz, Initial residual = 0.04711489325787596, Final residual = 0.004484432385871624, No Iterations 12
[INFO] MomentumPredictor: 372.334 [ms]
[INFO] MatrixAssemblyPI: 81.51300000000001 [ms]
[INFO] MatrixAssemblyPII: 36.423 [ms]
[OGL LOG][Proc: 0]: global_index_init: 0.096 [ms]
[OGL LOG][Proc: 0]p_local_coeffs: call_update: 0 [ms]
[OGL LOG][Proc: 0]p_non_local_coeffs: call_update: 0 [ms]
[OGL LOG][Proc: 0]p: update_local_matrix_data: 11.329 [ms]
[OGL LOG][Proc: 0]p: update_non_local_matrix_data: 0.077 [ms]
[OGL LOG][Proc: 0]p_matrix: call_update: 2.459 [ms]
[OGL LOG][Proc: 0]p_rhs: call_update: 3.021 [ms]
[OGL LOG][Preconditioner.H:121] Generate preconditioner BJ MaxBlockSize 1
[OGL LOG][Proc: 0]p: init_precond: 0.289 [ms]
[OGL LOG][StoppingCriterion.H:373] Creating stopping criterion with minIter 184 frequency 4
[OGL LOG][Proc: 0]p: generate_solver: 0.001 [ms]
[OGL LOG][Proc: 0]p: solve: 981.5930000000001 [ms]
[OGL LOG][Proc: 0]p: copy_x_back: 1.07 [ms]
[OGL LOG][lduLduBase.H:336] 
Statistics:
	Time per iteration: 1317 [mu s]
	Time per residual norm calculation: 337.000000 [mu s]
	Time per iteration and DOF: 0.208811 [ns]
	Retrieve results bandwidth 1.948000 [GByte/s]
[OGL LOG][Proc: 0]p: solve_multi_gpu: 989.008 [ms]
BJhipGKOCG:  Solving for p, Initial residual = 0.05829343779735524, Final residual = 0.0005591974396672549, No Iterations 745
[INFO] SolveP: 1002.607 [ms]
time step continuity errors : sum local = 0.004176666368543934, global = -0.0001671663489344684, cumulative = 0.002144501740680018
[INFO] postSolveP: 21.163 [ms]
smoothSolver:  Solving for nuTilda, Initial residual = 0.03913903785711387, Final residual = 0.003027079960499614, No Iterations 3
[INFO] TimeStep: 2245.923 [ms]
ExecutionTime = 34.45 s  ClockTime = 35 s

Time = 12

velocityDampingConstraint velocityDamping damped 0 (0%) of cells, with max limit 300
[INFO] MatrixAssemblyU: 448.047 [ms]
smoothSolver:  Solving for Ux, Initial residual = 0.01559907422122734, Final residual = 0.001517611241054542, No Iterations 12
smoothSolver:  Solving for Uy, Initial residual = 0.04574663022227081, Final residual = 0.004482012155440098, No Iterations 12
smoothSolver:  Solving for Uz, Initial residual = 0.04515248142154082, Final residual = 0.004292676724839224, No Iterations 12
[INFO] MomentumPredictor: 403.231 [ms]
[INFO] MatrixAssemblyPI: 77.39700000000001 [ms]
[INFO] MatrixAssemblyPII: 36.553 [ms]
[OGL LOG][Proc: 0]: global_index_init: 0.068 [ms]
[OGL LOG][Proc: 0]p_local_coeffs: call_update: 0 [ms]
[OGL LOG][Proc: 0]p_non_local_coeffs: call_update: 0 [ms]
[OGL LOG][Proc: 0]p: update_local_matrix_data: 11.089 [ms]
[OGL LOG][Proc: 0]p: update_non_local_matrix_data: 0.093 [ms]
[OGL LOG][Proc: 0]p_matrix: call_update: 4.598 [ms]
[OGL LOG][Proc: 0]p_rhs: call_update: 0.79 [ms]
[OGL LOG][Preconditioner.H:121] Generate preconditioner BJ MaxBlockSize 1
[OGL LOG][Proc: 0]p: init_precond: 0.264 [ms]
[OGL LOG][StoppingCriterion.H:373] Creating stopping criterion with minIter 447 frequency 9
[OGL LOG][Proc: 0]p: generate_solver: 0.001 [ms]
[OGL LOG][Proc: 0]p: solve: 586.27 [ms]
[OGL LOG][Proc: 0]p: copy_x_back: 1.068 [ms]
[OGL LOG][lduLduBase.H:336] 
Statistics:
	Time per iteration: 1299 [mu s]
	Time per residual norm calculation: 248.000000 [mu s]
	Time per iteration and DOF: 0.205957 [ns]
	Retrieve results bandwidth 1.952000 [GByte/s]
[OGL LOG][Proc: 0]p: solve_multi_gpu: 593.591 [ms]
BJhipGKOCG:  Solving for p, Initial residual = 0.05093667283266987, Final residual = 0.0003286671883760851, No Iterations 451
[INFO] SolveP: 606.748 [ms]
time step continuity errors : sum local = 0.002634708610972164, global = -0.0004253494473947029, cumulative = 0.001719152293285315
[INFO] postSolveP: 19.793 [ms]
smoothSolver:  Solving for nuTilda, Initial residual = 0.06548411671291209, Final residual = 0.005102814759859469, No Iterations 2
[INFO] TimeStep: 1866.218 [ms]
ExecutionTime = 36.66 s  ClockTime = 37 s

Time = 13

velocityDampingConstraint velocityDamping damped 0 (0%) of cells, with max limit 300
[INFO] MatrixAssemblyU: 448.16 [ms]
smoothSolver:  Solving for Ux, Initial residual = 0.01449011430503445, Final residual = 0.001443126132724221, No Iterations 12
smoothSolver:  Solving for Uy, Initial residual = 0.04361818063255796, Final residual = 0.00428321659344716, No Iterations 12
smoothSolver:  Solving for Uz, Initial residual = 0.04303140276506045, Final residual = 0.004145795742547987, No Iterations 12
[INFO] MomentumPredictor: 393.164 [ms]
[INFO] MatrixAssemblyPI: 77.72 [ms]
[INFO] MatrixAssemblyPII: 36.43 [ms]
[OGL LOG][Proc: 0]: global_index_init: 0.08400000000000001 [ms]
[OGL LOG][Proc: 0]p_local_coeffs: call_update: 0 [ms]
[OGL LOG][Proc: 0]p_non_local_coeffs: call_update: 0 [ms]
[OGL LOG][Proc: 0]p: update_local_matrix_data: 11.105 [ms]
[OGL LOG][Proc: 0]p: update_non_local_matrix_data: 0.092 [ms]
[OGL LOG][Proc: 0]p_matrix: call_update: 2.455 [ms]
[OGL LOG][Proc: 0]p_rhs: call_update: 3.912 [ms]
[OGL LOG][Preconditioner.H:121] Generate preconditioner BJ MaxBlockSize 1
[OGL LOG][Proc: 0]p: init_precond: 0.306 [ms]
[OGL LOG][StoppingCriterion.H:373] Creating stopping criterion with minIter 270 frequency 6
[OGL LOG][Proc: 0]p: generate_solver: 0.001 [ms]
[OGL LOG][Proc: 0]p: solve: 858.532 [ms]
[OGL LOG][Proc: 0]p: copy_x_back: 1.57 [ms]
[OGL LOG][lduLduBase.H:336] 
Statistics:
	Time per iteration: 1386 [mu s]
	Time per residual norm calculation: 223.000000 [mu s]
	Time per iteration and DOF: 0.219751 [ns]
	Retrieve results bandwidth 1.328000 [GByte/s]
[OGL LOG][Proc: 0]p: solve_multi_gpu: 867.371 [ms]
BJhipGKOCG:  Solving for p, Initial residual = 0.04845288875928415, Final residual = 0.0004719425559372506, No Iterations 619
[INFO] SolveP: 880.876 [ms]
time step continuity errors : sum local = 0.003748098744389293, global = -0.0001209556533418299, cumulative = 0.001598196639943485
[INFO] postSolveP: 21.098 [ms]
smoothSolver:  Solving for nuTilda, Initial residual = 0.03472892578083794, Final residual = 0.002830107227548117, No Iterations 3
[INFO] TimeStep: 2138.244 [ms]
ExecutionTime = 39.13 s  ClockTime = 39 s

Time = 14

velocityDampingConstraint velocityDamping damped 0 (0%) of cells, with max limit 300
[INFO] MatrixAssemblyU: 448.791 [ms]
smoothSolver:  Solving for Ux, Initial residual = 0.0137261904154801, Final residual = 0.001174930522028019, No Iterations 13
smoothSolver:  Solving for Uy, Initial residual = 0.04191143849504312, Final residual = 0.004118103414627657, No Iterations 12
smoothSolver:  Solving for Uz, Initial residual = 0.04213321578451151, Final residual = 0.004066005519256333, No Iterations 12
[INFO] MomentumPredictor: 383.981 [ms]
[INFO] MatrixAssemblyPI: 77.32599999999999 [ms]
[INFO] MatrixAssemblyPII: 36.494 [ms]
[OGL LOG][Proc: 0]: global_index_init: 0.045 [ms]
[OGL LOG][Proc: 0]p_local_coeffs: call_update: 0 [ms]
[OGL LOG][Proc: 0]p_non_local_coeffs: call_update: 0 [ms]
[OGL LOG][Proc: 0]p: update_local_matrix_data: 11.139 [ms]
[OGL LOG][Proc: 0]p: update_non_local_matrix_data: 0.096 [ms]
[OGL LOG][Proc: 0]p_matrix: call_update: 2.872 [ms]
[OGL LOG][Proc: 0]p_rhs: call_update: 1.982 [ms]
[OGL LOG][Preconditioner.H:121] Generate preconditioner BJ MaxBlockSize 1
[OGL LOG][Proc: 0]p: init_precond: 0.261 [ms]
[OGL LOG][StoppingCriterion.H:373] Creating stopping criterion with minIter 371 frequency 6
[OGL LOG][Proc: 0]p: generate_solver: 0.001 [ms]
[OGL LOG][Proc: 0]p: solve: 498.636 [ms]
[OGL LOG][Proc: 0]p: copy_x_back: 1.084 [ms]
[OGL LOG][lduLduBase.H:336] 
Statistics:
	Time per iteration: 1336 [mu s]
	Time per residual norm calculation: 244.000000 [mu s]
	Time per iteration and DOF: 0.211824 [ns]
	Retrieve results bandwidth 1.923000 [GByte/s]
[OGL LOG][Proc: 0]p: solve_multi_gpu: 505.415 [ms]
BJhipGKOCG:  Solving for p, Initial residual = 0.0478699319280193, Final residual = 0.0001445360809494518, No Iterations 373
[INFO] SolveP: 518.884 [ms]
time step continuity errors : sum local = 0.001110757087155875, global = 0.0002087693911911848, cumulative = 0.00180696603113467
[INFO] postSolveP: 20.08 [ms]
smoothSolver:  Solving for nuTilda, Initial residual = 0.05815448918399061, Final residual = 0.004804051969674961, No Iterations 2
[INFO] TimeStep: 1758.126 [ms]
ExecutionTime = 41.23 s  ClockTime = 42 s

Time = 15

velocityDampingConstraint velocityDamping damped 0 (0%) of cells, with max limit 300
[INFO] MatrixAssemblyU: 446.009 [ms]
smoothSolver:  Solving for Ux, Initial residual = 0.01285002861935366, Final residual = 0.001112934602118791, No Iterations 13
smoothSolver:  Solving for Uy, Initial residual = 0.04023630435991662, Final residual = 0.003990239037938849, No Iterations 12
smoothSolver:  Solving for Uz, Initial residual = 0.04160425655914268, Final residual = 0.004043954999571549, No Iterations 12
[INFO] MomentumPredictor: 387.449 [ms]
[INFO] MatrixAssemblyPI: 77.648 [ms]
[INFO] MatrixAssemblyPII: 36.789 [ms]
[OGL LOG][Proc: 0]: global_index_init: 0.162 [ms]
[OGL LOG][Proc: 0]p_local_coeffs: call_update: 0 [ms]
[OGL LOG][Proc: 0]p_non_local_coeffs: call_update: 0 [ms]
[OGL LOG][Proc: 0]p: update_local_matrix_data: 11.075 [ms]
[OGL LOG][Proc: 0]p: update_non_local_matrix_data: 0.08 [ms]
[OGL LOG][Proc: 0]p_matrix: call_update: 4.22 [ms]
[OGL LOG][Proc: 0]p_rhs: call_update: 1.215 [ms]
[OGL LOG][Preconditioner.H:121] Generate preconditioner BJ MaxBlockSize 1
[OGL LOG][Proc: 0]p: init_precond: 0.257 [ms]
[OGL LOG][StoppingCriterion.H:373] Creating stopping criterion with minIter 223 frequency 5
[OGL LOG][Proc: 0]p: generate_solver: 0.001 [ms]
[OGL LOG][Proc: 0]p: solve: 363.533 [ms]
[OGL LOG][Proc: 0]p: copy_x_back: 1.084 [ms]
[OGL LOG][lduLduBase.H:336] 
Statistics:
	Time per iteration: 1366 [mu s]
	Time per residual norm calculation: 405.000000 [mu s]
	Time per iteration and DOF: 0.216580 [ns]
	Retrieve results bandwidth 1.923000 [GByte/s]
[OGL LOG][Proc: 0]p: solve_multi_gpu: 370.927 [ms]
BJhipGKOCG:  Solving for p, Initial residual = 0.04625824484875977, Final residual = 0.0004620646487749036, No Iterations 266
[INFO] SolveP: 384.327 [ms]
time step continuity errors : sum local = 0.003564137355982579, global = 0.000527877836870532, cumulative = 0.002334843868005202
[INFO] postSolveP: 19.779 [ms]
smoothSolver:  Solving for nuTilda, Initial residual = 0.03138755853697914, Final residual = 0.002664015606581597, No Iterations 3
[INFO] TimeStep: 1632.996 [ms]
ExecutionTime = 43.2 s  ClockTime = 44 s

Time = 16

velocityDampingConstraint velocityDamping damped 0 (0%) of cells, with max limit 300
[INFO] MatrixAssemblyU: 445.295 [ms]
smoothSolver:  Solving for Ux, Initial residual = 0.0122077376436223, Final residual = 0.001057337956397546, No Iterations 13
smoothSolver:  Solving for Uy, Initial residual = 0.03935362238713411, Final residual = 0.003922548122984415, No Iterations 12
smoothSolver:  Solving for Uz, Initial residual = 0.04156118769890475, Final residual = 0.004057863648501917, No Iterations 12
[INFO] MomentumPredictor: 383.166 [ms]
[INFO] MatrixAssemblyPI: 78.148 [ms]
[INFO] MatrixAssemblyPII: 36.706 [ms]
[OGL LOG][Proc: 0]: global_index_init: 0.109 [ms]
[OGL LOG][Proc: 0]p_local_coeffs: call_update: 0 [ms]
[OGL LOG][Proc: 0]p_non_local_coeffs: call_update: 0 [ms]
[OGL LOG][Proc: 0]p: update_local_matrix_data: 11.179 [ms]
[OGL LOG][Proc: 0]p: update_non_local_matrix_data: 0.092 [ms]
[OGL LOG][Proc: 0]p_matrix: call_update: 2.557 [ms]
[OGL LOG][Proc: 0]p_rhs: call_update: 2.501 [ms]
[OGL LOG][Preconditioner.H:121] Generate preconditioner BJ MaxBlockSize 1
[OGL LOG][Proc: 0]p: init_precond: 0.261 [ms]
[OGL LOG][StoppingCriterion.H:373] Creating stopping criterion with minIter 159 frequency 5
[OGL LOG][Proc: 0]p: generate_solver: 0.001 [ms]
[OGL LOG][Proc: 0]p: solve: 412.195 [ms]
[OGL LOG][Proc: 0]p: copy_x_back: 1.072 [ms]
[OGL LOG][lduLduBase.H:336] 
Statistics:
	Time per iteration: 1325 [mu s]
	Time per residual norm calculation: 227.000000 [mu s]
	Time per iteration and DOF: 0.210080 [ns]
	Retrieve results bandwidth 1.945000 [GByte/s]
[OGL LOG][Proc: 0]p: solve_multi_gpu: 419.166 [ms]
BJhipGKOCG:  Solving for p, Initial residual = 0.04486623588047518, Final residual = 0.0004467443298380773, No Iterations 311
[INFO] SolveP: 432.433 [ms]
time step continuity errors : sum local = 0.003462980367986639, global = 0.0007055307604446213, cumulative = 0.003040374628449824
[INFO] postSolveP: 19.533 [ms]
smoothSolver:  Solving for nuTilda, Initial residual = 0.05169662000692783, Final residual = 0.004556456622490868, No Iterations 2
[INFO] TimeStep: 1669.151 [ms]
ExecutionTime = 45.21 s  ClockTime = 46 s

Time = 17

velocityDampingConstraint velocityDamping damped 0 (0%) of cells, with max limit 300
[INFO] MatrixAssemblyU: 449.927 [ms]
smoothSolver:  Solving for Ux, Initial residual = 0.01158756608526628, Final residual = 0.001009346244391906, No Iterations 13
smoothSolver:  Solving for Uy, Initial residual = 0.03887270006562624, Final residual = 0.003314666622541326, No Iterations 13
smoothSolver:  Solving for Uz, Initial residual = 0.04152957545647461, Final residual = 0.004061848852483782, No Iterations 12
[INFO] MomentumPredictor: 391.928 [ms]
[INFO] MatrixAssemblyPI: 79.473 [ms]
[INFO] MatrixAssemblyPII: 38.661 [ms]
[OGL LOG][Proc: 0]: global_index_init: 0.211 [ms]
[OGL LOG][Proc: 0]p_local_coeffs: call_update: 0 [ms]
[OGL LOG][Proc: 0]p_non_local_coeffs: call_update: 0 [ms]
[OGL LOG][Proc: 0]p: update_local_matrix_data: 11.1 [ms]
[OGL LOG][Proc: 0]p: update_non_local_matrix_data: 0.091 [ms]
[OGL LOG][Proc: 0]p_matrix: call_update: 2.585 [ms]
[OGL LOG][Proc: 0]p_rhs: call_update: 3.14 [ms]
[OGL LOG][Preconditioner.H:121] Generate preconditioner BJ MaxBlockSize 1
[OGL LOG][Proc: 0]p: init_precond: 0.282 [ms]
[OGL LOG][StoppingCriterion.H:373] Creating stopping criterion with minIter 186 frequency 4
[OGL LOG][Proc: 0]p: generate_solver: 0.001 [ms]
[OGL LOG][Proc: 0]p: solve: 851.683 [ms]
[OGL LOG][Proc: 0]p: copy_x_back: 1.082 [ms]
[OGL LOG][lduLduBase.H:336] 
Statistics:
	Time per iteration: 1304 [mu s]
	Time per residual norm calculation: 231.000000 [mu s]
	Time per iteration and DOF: 0.206750 [ns]
	Retrieve results bandwidth 1.927000 [GByte/s]
[OGL LOG][Proc: 0]p: solve_multi_gpu: 859.376 [ms]
BJhipGKOCG:  Solving for p, Initial residual = 0.04421778626350933, Final residual = 0.0004386466510319234, No Iterations 653
[INFO] SolveP: 872.5650000000001 [ms]
time step continuity errors : sum local = 0.003436165524259519, global = -0.0001305002276106775, cumulative = 0.002909874400839146
[INFO] postSolveP: 20.502 [ms]
smoothSolver:  Solving for nuTilda, Initial residual = 0.02893133267283055, Final residual = 0.00251458364581432, No Iterations 3
[INFO] TimeStep: 2130.945 [ms]
ExecutionTime = 47.68 s  ClockTime = 48 s

Time = 18

velocityDampingConstraint velocityDamping damped 0 (0%) of cells, with max limit 300
[INFO] MatrixAssemblyU: 448.232 [ms]
smoothSolver:  Solving for Ux, Initial residual = 0.01121487162238582, Final residual = 0.0009676131339570443, No Iterations 13
smoothSolver:  Solving for Uy, Initial residual = 0.03879028410097433, Final residual = 0.00331059584409624, No Iterations 13
smoothSolver:  Solving for Uz, Initial residual = 0.04193065828554639, Final residual = 0.004086535066523602, No Iterations 12
[INFO] MomentumPredictor: 387.116 [ms]
[INFO] MatrixAssemblyPI: 80.206 [ms]
[INFO] MatrixAssemblyPII: 37.123 [ms]
[OGL LOG][Proc: 0]: global_index_init: 0.08 [ms]
[OGL LOG][Proc: 0]p_local_coeffs: call_update: 0 [ms]
[OGL LOG][Proc: 0]p_non_local_coeffs: call_update: 0 [ms]
[OGL LOG][Proc: 0]p: update_local_matrix_data: 10.994 [ms]
[OGL LOG][Proc: 0]p: update_non_local_matrix_data: 0.093 [ms]
[OGL LOG][Proc: 0]p_matrix: call_update: 2.425 [ms]
[OGL LOG][Proc: 0]p_rhs: call_update: 2.88 [ms]
[OGL LOG][Preconditioner.H:121] Generate preconditioner BJ MaxBlockSize 1
[OGL LOG][Proc: 0]p: init_precond: 0.262 [ms]
[OGL LOG][StoppingCriterion.H:373] Creating stopping criterion with minIter 391 frequency 7
[OGL LOG][Proc: 0]p: generate_solver: 0.001 [ms]
[OGL LOG][Proc: 0]p: solve: 506.178 [ms]
[OGL LOG][Proc: 0]p: copy_x_back: 1.074 [ms]
[OGL LOG][lduLduBase.H:336] 
Statistics:
	Time per iteration: 1287 [mu s]
	Time per residual norm calculation: 244.000000 [mu s]
	Time per iteration and DOF: 0.204055 [ns]
	Retrieve results bandwidth 1.941000 [GByte/s]
[OGL LOG][Proc: 0]p: solve_multi_gpu: 513.426 [ms]
BJhipGKOCG:  Solving for p, Initial residual = 0.04275018211228332, Final residual = 0.0001707316492772484, No Iterations 393
[INFO] SolveP: 526.487 [ms]
time step continuity errors : sum local = 0.001388662832916892, global = -0.0002548680712781516, cumulative = 0.002655006329560994
[INFO] postSolveP: 19.515 [ms]
smoothSolver:  Solving for nuTilda, Initial residual = 0.0463520261026046, Final residual = 0.004304854537854704, No Iterations 2
[INFO] TimeStep: 1771.005 [ms]
ExecutionTime = 49.8 s  ClockTime = 50 s

Time = 19

velocityDampingConstraint velocityDamping damped 0 (0%) of cells, with max limit 300
[INFO] MatrixAssemblyU: 449.779 [ms]
smoothSolver:  Solving for Ux, Initial residual = 0.01085047944949072, Final residual = 0.0009371486065981258, No Iterations 13
smoothSolver:  Solving for Uy, Initial residual = 0.03896317688605472, Final residual = 0.003332498167083926, No Iterations 13
smoothSolver:  Solving for Uz, Initial residual = 0.04250147467777958, Final residual = 0.004115208153899002, No Iterations 12
[INFO] MomentumPredictor: 400.933 [ms]
[INFO] MatrixAssemblyPI: 79.205 [ms]
[INFO] MatrixAssemblyPII: 37.231 [ms]
[OGL LOG][Proc: 0]: global_index_init: 0.214 [ms]
[OGL LOG][Proc: 0]p_local_coeffs: call_update: 0 [ms]
[OGL LOG][Proc: 0]p_non_local_coeffs: call_update: 0 [ms]
[OGL LOG][Proc: 0]p: update_local_matrix_data: 10.903 [ms]
[OGL LOG][Proc: 0]p: update_non_local_matrix_data: 0.096 [ms]
[OGL LOG][Proc: 0]p_matrix: call_update: 2.618 [ms]
[OGL LOG][Proc: 0]p_rhs: call_update: 2.532 [ms]
[OGL LOG][Preconditioner.H:121] Generate preconditioner BJ MaxBlockSize 1
[OGL LOG][Proc: 0]p: init_precond: 0.258 [ms]
[OGL LOG][StoppingCriterion.H:373] Creating stopping criterion with minIter 235 frequency 5
[OGL LOG][Proc: 0]p: generate_solver: 0.001 [ms]
[OGL LOG][Proc: 0]p: solve: 364.343 [ms]
[OGL LOG][Proc: 0]p: copy_x_back: 1.065 [ms]
[OGL LOG][lduLduBase.H:336] 
Statistics:
	Time per iteration: 1296 [mu s]
	Time per residual norm calculation: 222.000000 [mu s]
	Time per iteration and DOF: 0.205482 [ns]
	Retrieve results bandwidth 1.958000 [GByte/s]
[OGL LOG][Proc: 0]p: solve_multi_gpu: 371.434 [ms]
BJhipGKOCG:  Solving for p, Initial residual = 0.04324026006778589, Final residual = 0.0004264936530342265, No Iterations 281
[INFO] SolveP: 384.612 [ms]
time step continuity errors : sum local = 0.003469428487208355, global = -0.0004669013022562017, cumulative = 0.002188105027304793
[INFO] postSolveP: 20.506 [ms]
smoothSolver:  Solving for nuTilda, Initial residual = 0.02700213732226809, Final residual = 0.002365480541844935, No Iterations 3
[INFO] TimeStep: 1653.311 [ms]
ExecutionTime = 51.79 s  ClockTime = 52 s

Time = 20

velocityDampingConstraint velocityDamping damped 0 (0%) of cells, with max limit 300
[INFO] MatrixAssemblyU: 446.407 [ms]
smoothSolver:  Solving for Ux, Initial residual = 0.01067959800361413, Final residual = 0.0009173791848797148, No Iterations 13
smoothSolver:  Solving for Uy, Initial residual = 0.03938895883174065, Final residual = 0.003354926844613736, No Iterations 13
smoothSolver:  Solving for Uz, Initial residual = 0.0430797224938176, Final residual = 0.004149651334907272, No Iterations 12
[INFO] MomentumPredictor: 402.855 [ms]
[INFO] MatrixAssemblyPI: 78.07899999999999 [ms]
[INFO] MatrixAssemblyPII: 36.554 [ms]
[OGL LOG][Proc: 0]: global_index_init: 0.123 [ms]
[OGL LOG][Proc: 0]p_local_coeffs: call_update: 0 [ms]
[OGL LOG][Proc: 0]p_non_local_coeffs: call_update: 0 [ms]
[OGL LOG][Proc: 0]p: update_local_matrix_data: 10.969 [ms]
[OGL LOG][Proc: 0]p: update_non_local_matrix_data: 0.081 [ms]
[OGL LOG][Proc: 0]p_matrix: call_update: 2.745 [ms]
[OGL LOG][Proc: 0]p_rhs: call_update: 2.982 [ms]
[OGL LOG][Preconditioner.H:121] Generate preconditioner BJ MaxBlockSize 1
[OGL LOG][Proc: 0]p: init_precond: 0.279 [ms]
[OGL LOG][StoppingCriterion.H:373] Creating stopping criterion with minIter 168 frequency 4
[OGL LOG][Proc: 0]p: generate_solver: 0.001 [ms]
[OGL LOG][Proc: 0]p: solve: 963.784 [ms]
[OGL LOG][Proc: 0]p: copy_x_back: 1.257 [ms]
[OGL LOG][lduLduBase.H:336] 
Statistics:
	Time per iteration: 1322 [mu s]
	Time per residual norm calculation: 224.000000 [mu s]
	Time per iteration and DOF: 0.209604 [ns]
	Retrieve results bandwidth 1.658000 [GByte/s]
[OGL LOG][Proc: 0]p: solve_multi_gpu: 971.655 [ms]
BJhipGKOCG:  Solving for p, Initial residual = 0.04341064364073531, Final residual = 0.0004302024623756735, No Iterations 729
[INFO] SolveP: 984.623 [ms]
time step continuity errors : sum local = 0.003513119924598772, global = -0.0002982009034576226, cumulative = 0.00188990412384717
[INFO] postSolveP: 20.309 [ms]
smoothSolver:  Solving for nuTilda, Initial residual = 0.0418161705778456, Final residual = 0.004052033144893047, No Iterations 2
[INFO] TimeStep: 2244.551 [ms]
ExecutionTime = 54.38 s  ClockTime = 55 s

Time = 21

velocityDampingConstraint velocityDamping damped 0 (0%) of cells, with max limit 300
[INFO] MatrixAssemblyU: 446.636 [ms]
smoothSolver:  Solving for Ux, Initial residual = 0.01056987981366529, Final residual = 0.0009086180368022298, No Iterations 13
smoothSolver:  Solving for Uy, Initial residual = 0.04000290134552851, Final residual = 0.003962641102700813, No Iterations 12
smoothSolver:  Solving for Uz, Initial residual = 0.04358147668879021, Final residual = 0.00415302877690505, No Iterations 12
[INFO] MomentumPredictor: 393.652 [ms]
[INFO] MatrixAssemblyPI: 77.273 [ms]
[INFO] MatrixAssemblyPII: 37.242 [ms]
[OGL LOG][Proc: 0]: global_index_init: 2.189 [ms]
[OGL LOG][Proc: 0]p_local_coeffs: call_update: 0 [ms]
[OGL LOG][Proc: 0]p_non_local_coeffs: call_update: 0 [ms]
[OGL LOG][Proc: 0]p: update_local_matrix_data: 11.079 [ms]
[OGL LOG][Proc: 0]p: update_non_local_matrix_data: 0.08400000000000001 [ms]
[OGL LOG][Proc: 0]p_matrix: call_update: 3.303 [ms]
[OGL LOG][Proc: 0]p_rhs: call_update: 2.319 [ms]
[OGL LOG][Preconditioner.H:121] Generate preconditioner BJ MaxBlockSize 1
[OGL LOG][Proc: 0]p: init_precond: 0.256 [ms]
[OGL LOG][StoppingCriterion.H:373] Creating stopping criterion with minIter 437 frequency 7
[OGL LOG][Proc: 0]p: generate_solver: 0.001 [ms]
[OGL LOG][Proc: 0]p: solve: 563.077 [ms]
[OGL LOG][Proc: 0]p: copy_x_back: 1.068 [ms]
[OGL LOG][lduLduBase.H:336] 
Statistics:
	Time per iteration: 1273 [mu s]
	Time per residual norm calculation: 250.000000 [mu s]
	Time per iteration and DOF: 0.201835 [ns]
	Retrieve results bandwidth 1.952000 [GByte/s]
[OGL LOG][Proc: 0]p: solve_multi_gpu: 570.625 [ms]
BJhipGKOCG:  Solving for p, Initial residual = 0.04419317527718356, Final residual = 0.0001600287047170529, No Iterations 442
[INFO] SolveP: 586.109 [ms]
time step continuity errors : sum local = 0.001300824171091605, global = 0.0002765990387650341, cumulative = 0.002166503162612204
[INFO] postSolveP: 20.437 [ms]
smoothSolver:  Solving for nuTilda, Initial residual = 0.02522469390903216, Final residual = 0.00222171386966942, No Iterations 3
[INFO] TimeStep: 1855.062 [ms]
ExecutionTime = 56.57 s  ClockTime = 57 s

Time = 22

velocityDampingConstraint velocityDamping damped 0 (0%) of cells, with max limit 300
[INFO] MatrixAssemblyU: 449.643 [ms]
smoothSolver:  Solving for Ux, Initial residual = 0.01050442501334244, Final residual = 0.001048748317178364, No Iterations 12
smoothSolver:  Solving for Uy, Initial residual = 0.04057237150031936, Final residual = 0.003994982527622767, No Iterations 12
smoothSolver:  Solving for Uz, Initial residual = 0.04330023087124218, Final residual = 0.004102683247390186, No Iterations 12
[INFO] MomentumPredictor: 380.715 [ms]
[INFO] MatrixAssemblyPI: 78.03700000000001 [ms]
[INFO] MatrixAssemblyPII: 36.477 [ms]
[OGL LOG][Proc: 0]: global_index_init: 0.138 [ms]
[OGL LOG][Proc: 0]p_local_coeffs: call_update: 0 [ms]
[OGL LOG][Proc: 0]p_non_local_coeffs: call_update: 0 [ms]
[OGL LOG][Proc: 0]p: update_local_matrix_data: 11.207 [ms]
[OGL LOG][Proc: 0]p: update_non_local_matrix_data: 0.09 [ms]
[OGL LOG][Proc: 0]p_matrix: call_update: 5.472 [ms]
[OGL LOG][Proc: 0]p_rhs: call_update: 0.328 [ms]
[OGL LOG][Preconditioner.H:121] Generate preconditioner BJ MaxBlockSize 1
[OGL LOG][Proc: 0]p: init_precond: 0.254 [ms]
[OGL LOG][StoppingCriterion.H:373] Creating stopping criterion with minIter 265 frequency 5
[OGL LOG][Proc: 0]p: generate_solver: 0 [ms]
[OGL LOG][Proc: 0]p: solve: 426.707 [ms]
[OGL LOG][Proc: 0]p: copy_x_back: 1.07 [ms]
[OGL LOG][lduLduBase.H:336] 
Statistics:
	Time per iteration: 1289 [mu s]
	Time per residual norm calculation: 225.000000 [mu s]
	Time per iteration and DOF: 0.204372 [ns]
	Retrieve results bandwidth 1.948000 [GByte/s]
[OGL LOG][Proc: 0]p: solve_multi_gpu: 434.438 [ms]
BJhipGKOCG:  Solving for p, Initial residual = 0.04414382427076237, Final residual = 0.0004374677248185937, No Iterations 331
[INFO] SolveP: 447.931 [ms]
time step continuity errors : sum local = 0.003586582254955477, global = 0.0005942294441288285, cumulative = 0.002760732606741033
[INFO] postSolveP: 20.818 [ms]
smoothSolver:  Solving for nuTilda, Initial residual = 0.03797156651609367, Final residual = 0.00202218149932003, No Iterations 3
[INFO] TimeStep: 1697.269 [ms]
ExecutionTime = 58.6 s  ClockTime = 59 s

Time = 23

velocityDampingConstraint velocityDamping damped 0 (0%) of cells, with max limit 300
[INFO] MatrixAssemblyU: 448.254 [ms]
smoothSolver:  Solving for Ux, Initial residual = 0.01038036801338634, Final residual = 0.0008867249076228028, No Iterations 13
smoothSolver:  Solving for Uy, Initial residual = 0.04109685745585165, Final residual = 0.003997811175777851, No Iterations 12
smoothSolver:  Solving for Uz, Initial residual = 0.04287309464959515, Final residual = 0.004020636370498328, No Iterations 12
[INFO] MomentumPredictor: 385.734 [ms]
[INFO] MatrixAssemblyPI: 78.044 [ms]
[INFO] MatrixAssemblyPII: 36.614 [ms]
[OGL LOG][Proc: 0]: global_index_init: 0.057 [ms]
[OGL LOG][Proc: 0]p_local_coeffs: call_update: 0 [ms]
[OGL LOG][Proc: 0]p_non_local_coeffs: call_update: 0 [ms]
[OGL LOG][Proc: 0]p: update_local_matrix_data: 11.055 [ms]
[OGL LOG][Proc: 0]p: update_non_local_matrix_data: 0.08700000000000001 [ms]
[OGL LOG][Proc: 0]p_matrix: call_update: 2.398 [ms]
[OGL LOG][Proc: 0]p_rhs: call_update: 2.6 [ms]
[OGL LOG][Preconditioner.H:121] Generate preconditioner BJ MaxBlockSize 1
[OGL LOG][Proc: 0]p: init_precond: 0.255 [ms]
[OGL LOG][StoppingCriterion.H:373] Creating stopping criterion with minIter 198 frequency 5
[OGL LOG][Proc: 0]p: generate_solver: 0.001 [ms]
[OGL LOG][Proc: 0]p: solve: 1015.116 [ms]
[OGL LOG][Proc: 0]p: copy_x_back: 1.263 [ms]
[OGL LOG][lduLduBase.H:336] 
Statistics:
	Time per iteration: 1316 [mu s]
	Time per residual norm calculation: 228.000000 [mu s]
	Time per iteration and DOF: 0.208653 [ns]
	Retrieve results bandwidth 1.651000 [GByte/s]
[OGL LOG][Proc: 0]p: solve_multi_gpu: 1022.239 [ms]
BJhipGKOCG:  Solving for p, Initial residual = 0.04385618390780537, Final residual = 0.0004257871724510032, No Iterations 771
[INFO] SolveP: 1035.502 [ms]
time step continuity errors : sum local = 0.00354302339307434, global = -3.662972480209718e-05, cumulative = 0.002724102881938935
[INFO] postSolveP: 20.179 [ms]
smoothSolver:  Solving for nuTilda, Initial residual = 0.02341148587081868, Final residual = 0.002090432496087367, No Iterations 3
[INFO] TimeStep: 2287.622 [ms]
ExecutionTime = 61.23 s  ClockTime = 62 s

Time = 24

velocityDampingConstraint velocityDamping damped 0 (0%) of cells, with max limit 300
[INFO] MatrixAssemblyU: 447.74 [ms]
smoothSolver:  Solving for Ux, Initial residual = 0.01040291656198117, Final residual = 0.001032857554210935, No Iterations 12
smoothSolver:  Solving for Uy, Initial residual = 0.04207073427589552, Final residual = 0.004046059446202862, No Iterations 12
smoothSolver:  Solving for Uz, Initial residual = 0.04263773055983543, Final residual = 0.003948155347955998, No Iterations 12
[INFO] MomentumPredictor: 392.765 [ms]
[INFO] MatrixAssemblyPI: 78.786 [ms]
[INFO] MatrixAssemblyPII: 36.917 [ms]
[OGL LOG][Proc: 0]: global_index_init: 0.131 [ms]
[OGL LOG][Proc: 0]p_local_coeffs: call_update: 0 [ms]
[OGL LOG][Proc: 0]p_non_local_coeffs: call_update: 0 [ms]
[OGL LOG][Proc: 0]p: update_local_matrix_data: 11.003 [ms]
[OGL LOG][Proc: 0]p: update_non_local_matrix_data: 0.081 [ms]
[OGL LOG][Proc: 0]p_matrix: call_update: 5.019 [ms]
[OGL LOG][Proc: 0]p_rhs: call_update: 1.035 [ms]
[OGL LOG][Preconditioner.H:121] Generate preconditioner BJ MaxBlockSize 1
[OGL LOG][Proc: 0]p: init_precond: 0.27 [ms]
[OGL LOG][StoppingCriterion.H:373] Creating stopping criterion with minIter 462 frequency 7
[OGL LOG][Proc: 0]p: generate_solver: 0 [ms]
[OGL LOG][Proc: 0]p: solve: 583.63 [ms]
[OGL LOG][Proc: 0]p: copy_x_back: 1.072 [ms]
[OGL LOG][lduLduBase.H:336] 
Statistics:
	Time per iteration: 1260 [mu s]
	Time per residual norm calculation: 244.000000 [mu s]
	Time per iteration and DOF: 0.199774 [ns]
	Retrieve results bandwidth 1.945000 [GByte/s]
[OGL LOG][Proc: 0]p: solve_multi_gpu: 591.59 [ms]
BJhipGKOCG:  Solving for p, Initial residual = 0.04203121885700019, Final residual = 0.0001014472092927168, No Iterations 463
[INFO] SolveP: 604.896 [ms]
time step continuity errors : sum local = 0.0008853815707319886, global = -8.050113182165076e-05, cumulative = 0.002643601750117285
[INFO] postSolveP: 20.141 [ms]
smoothSolver:  Solving for nuTilda, Initial residual = 0.03446803577645208, Final residual = 0.001912004758787714, No Iterations 3
[INFO] TimeStep: 1863.304 [ms]
ExecutionTime = 63.44 s  ClockTime = 64 s

Time = 25

velocityDampingConstraint velocityDamping damped 0 (0%) of cells, with max limit 300
[INFO] MatrixAssemblyU: 448.413 [ms]
smoothSolver:  Solving for Ux, Initial residual = 0.01029211431138363, Final residual = 0.0008817230138024898, No Iterations 13
smoothSolver:  Solving for Uy, Initial residual = 0.04270636462296113, Final residual = 0.004139055935832787, No Iterations 12
smoothSolver:  Solving for Uz, Initial residual = 0.04215638567196234, Final residual = 0.003907898325105159, No Iterations 12
[INFO] MomentumPredictor: 392.684 [ms]
[INFO] MatrixAssemblyPI: 77.333 [ms]
[INFO] MatrixAssemblyPII: 35.732 [ms]
[OGL LOG][Proc: 0]: global_index_init: 0.159 [ms]
[OGL LOG][Proc: 0]p_local_coeffs: call_update: 0 [ms]
[OGL LOG][Proc: 0]p_non_local_coeffs: call_update: 0 [ms]
[OGL LOG][Proc: 0]p: update_local_matrix_data: 11.041 [ms]
[OGL LOG][Proc: 0]p: update_non_local_matrix_data: 0.109 [ms]
[OGL LOG][Proc: 0]p_matrix: call_update: 2.345 [ms]
[OGL LOG][Proc: 0]p_rhs: call_update: 2.998 [ms]
[OGL LOG][Preconditioner.H:121] Generate preconditioner BJ MaxBlockSize 1
[OGL LOG][Proc: 0]p: init_precond: 0.313 [ms]
[OGL LOG][StoppingCriterion.H:373] Creating stopping criterion with minIter 277 frequency 6
[OGL LOG][Proc: 0]p: generate_solver: 0.001 [ms]
[OGL LOG][Proc: 0]p: solve: 422.553 [ms]
[OGL LOG][Proc: 0]p: copy_x_back: 1.097 [ms]
[OGL LOG][lduLduBase.H:336] 
Statistics:
	Time per iteration: 1324 [mu s]
	Time per residual norm calculation: 225.000000 [mu s]
	Time per iteration and DOF: 0.209921 [ns]
	Retrieve results bandwidth 1.900000 [GByte/s]
[OGL LOG][Proc: 0]p: solve_multi_gpu: 429.898 [ms]
BJhipGKOCG:  Solving for p, Initial residual = 0.04172824771271533, Final residual = 0.0004108054600353451, No Iterations 319
[INFO] SolveP: 443.29 [ms]
time step continuity errors : sum local = 0.003613427440112654, global = -0.0001616802801355739, cumulative = 0.002481921469981711
[INFO] postSolveP: 21.632 [ms]
smoothSolver:  Solving for nuTilda, Initial residual = 0.02154686002082824, Final residual = 0.001958463182797624, No Iterations 3
[INFO] TimeStep: 1703.873 [ms]
ExecutionTime = 65.48 s  ClockTime = 66 s

Time = 26

velocityDampingConstraint velocityDamping damped 0 (0%) of cells, with max limit 300
[INFO] MatrixAssemblyU: 448.451 [ms]
smoothSolver:  Solving for Ux, Initial residual = 0.01038450558716998, Final residual = 0.00103582020083385, No Iterations 12
smoothSolver:  Solving for Uy, Initial residual = 0.04364468396111109, Final residual = 0.004300567292836506, No Iterations 12
smoothSolver:  Solving for Uz, Initial residual = 0.04226798495375806, Final residual = 0.003955033738874319, No Iterations 12
[INFO] MomentumPredictor: 376.018 [ms]
[INFO] MatrixAssemblyPI: 77.45699999999999 [ms]
[INFO] MatrixAssemblyPII: 36.64 [ms]
[OGL LOG][Proc: 0]: global_index_init: 0.027 [ms]
[OGL LOG][Proc: 0]p_local_coeffs: call_update: 0 [ms]
[OGL LOG][Proc: 0]p_non_local_coeffs: call_update: 0 [ms]
[OGL LOG][Proc: 0]p: update_local_matrix_data: 11.342 [ms]
[OGL LOG][Proc: 0]p: update_non_local_matrix_data: 0.09 [ms]
[OGL LOG][Proc: 0]p_matrix: call_update: 2.536 [ms]
[OGL LOG][Proc: 0]p_rhs: call_update: 2.202 [ms]
[OGL LOG][Preconditioner.H:121] Generate preconditioner BJ MaxBlockSize 1
[OGL LOG][Proc: 0]p: init_precond: 0.252 [ms]
[OGL LOG][StoppingCriterion.H:373] Creating stopping criterion with minIter 191 frequency 5
[OGL LOG][Proc: 0]p: generate_solver: 0.001 [ms]
[OGL LOG][Proc: 0]p: solve: 453.69 [ms]
[OGL LOG][Proc: 0]p: copy_x_back: 1.085 [ms]
[OGL LOG][lduLduBase.H:336] 
Statistics:
	Time per iteration: 1311 [mu s]
	Time per residual norm calculation: 232.000000 [mu s]
	Time per iteration and DOF: 0.207860 [ns]
	Retrieve results bandwidth 1.921000 [GByte/s]
[OGL LOG][Proc: 0]p: solve_multi_gpu: 460.353 [ms]
BJhipGKOCG:  Solving for p, Initial residual = 0.04165148533441752, Final residual = 0.000405616760794332, No Iterations 346
[INFO] SolveP: 473.76 [ms]
time step continuity errors : sum local = 0.003594672200212018, global = -0.0001183781130952278, cumulative = 0.002363543356886483
[INFO] postSolveP: 19.871 [ms]
smoothSolver:  Solving for nuTilda, Initial residual = 0.03149514412155526, Final residual = 0.001805712110088388, No Iterations 3
[INFO] TimeStep: 1721.737 [ms]
ExecutionTime = 67.55 s  ClockTime = 68 s

Time = 27

velocityDampingConstraint velocityDamping damped 0 (0%) of cells, with max limit 300
[INFO] MatrixAssemblyU: 449.074 [ms]
smoothSolver:  Solving for Ux, Initial residual = 0.01039018468746557, Final residual = 0.00103810567481174, No Iterations 12
smoothSolver:  Solving for Uy, Initial residual = 0.04473846590214071, Final residual = 0.004466970937453249, No Iterations 12
smoothSolver:  Solving for Uz, Initial residual = 0.04252273575537403, Final residual = 0.004024353382676813, No Iterations 12
[INFO] MomentumPredictor: 383.423 [ms]
[INFO] MatrixAssemblyPI: 77.324 [ms]
[INFO] MatrixAssemblyPII: 36.685 [ms]
[OGL LOG][Proc: 0]: global_index_init: 0.162 [ms]
[OGL LOG][Proc: 0]p_local_coeffs: call_update: 0 [ms]
[OGL LOG][Proc: 0]p_non_local_coeffs: call_update: 0 [ms]
[OGL LOG][Proc: 0]p: update_local_matrix_data: 11.082 [ms]
[OGL LOG][Proc: 0]p: update_non_local_matrix_data: 0.081 [ms]
[OGL LOG][Proc: 0]p_matrix: call_update: 2.353 [ms]
[OGL LOG][Proc: 0]p_rhs: call_update: 3.065 [ms]
[OGL LOG][Preconditioner.H:121] Generate preconditioner BJ MaxBlockSize 1
[OGL LOG][Proc: 0]p: init_precond: 0.259 [ms]
[OGL LOG][StoppingCriterion.H:373] Creating stopping criterion with minIter 207 frequency 5
[OGL LOG][Proc: 0]p: generate_solver: 0.001 [ms]
[OGL LOG][Proc: 0]p: solve: 441.046 [ms]
[OGL LOG][Proc: 0]p: copy_x_back: 1.078 [ms]
[OGL LOG][lduLduBase.H:336] 
Statistics:
	Time per iteration: 1274 [mu s]
	Time per residual norm calculation: 225.000000 [mu s]
	Time per iteration and DOF: 0.201993 [ns]
	Retrieve results bandwidth 1.934000 [GByte/s]
[OGL LOG][Proc: 0]p: solve_multi_gpu: 448.382 [ms]
BJhipGKOCG:  Solving for p, Initial residual = 0.0419351113366714, Final residual = 0.0004079724271583523, No Iterations 346
[INFO] SolveP: 461.612 [ms]
time step continuity errors : sum local = 0.003659937254613275, global = -6.414626743751242e-05, cumulative = 0.002299397089448971
[INFO] postSolveP: 19.885 [ms]
smoothSolver:  Solving for nuTilda, Initial residual = 0.01985178296410724, Final residual = 0.001833039194896175, No Iterations 3
[INFO] TimeStep: 1712.872 [ms]
ExecutionTime = 69.59999999999999 s  ClockTime = 70 s

Time = 28

velocityDampingConstraint velocityDamping damped 0 (0%) of cells, with max limit 300
[INFO] MatrixAssemblyU: 454.051 [ms]
smoothSolver:  Solving for Ux, Initial residual = 0.01053550515180753, Final residual = 0.001042347105962078, No Iterations 12
smoothSolver:  Solving for Uy, Initial residual = 0.04611267077275381, Final residual = 0.003964367914320742, No Iterations 13
smoothSolver:  Solving for Uz, Initial residual = 0.0434853165284822, Final residual = 0.004134575129370353, No Iterations 12
[INFO] MomentumPredictor: 390.32 [ms]
[INFO] MatrixAssemblyPI: 78.36 [ms]
[INFO] MatrixAssemblyPII: 37.208 [ms]
[OGL LOG][Proc: 0]: global_index_init: 0.058 [ms]
[OGL LOG][Proc: 0]p_local_coeffs: call_update: 0 [ms]
[OGL LOG][Proc: 0]p_non_local_coeffs: call_update: 0 [ms]
[OGL LOG][Proc: 0]p: update_local_matrix_data: 11.079 [ms]
[OGL LOG][Proc: 0]p: update_non_local_matrix_data: 0.092 [ms]
[OGL LOG][Proc: 0]p_matrix: call_update: 2.333 [ms]
[OGL LOG][Proc: 0]p_rhs: call_update: 3.497 [ms]
[OGL LOG][Preconditioner.H:121] Generate preconditioner BJ MaxBlockSize 1
[OGL LOG][Proc: 0]p: init_precond: 0.256 [ms]
[OGL LOG][StoppingCriterion.H:373] Creating stopping criterion with minIter 207 frequency 5
[OGL LOG][Proc: 0]p: generate_solver: 0.001 [ms]
[OGL LOG][Proc: 0]p: solve: 416.781 [ms]
[OGL LOG][Proc: 0]p: copy_x_back: 1.08 [ms]
[OGL LOG][lduLduBase.H:336] 
Statistics:
	Time per iteration: 1278 [mu s]
	Time per residual norm calculation: 226.000000 [mu s]
	Time per iteration and DOF: 0.202628 [ns]
	Retrieve results bandwidth 1.930000 [GByte/s]
[OGL LOG][Proc: 0]p: solve_multi_gpu: 424.518 [ms]
BJhipGKOCG:  Solving for p, Initial residual = 0.042941330302845, Final residual = 0.0004181370344513182, No Iterations 326
[INFO] SolveP: 437.7 [ms]
time step continuity errors : sum local = 0.003793812294082887, global = 4.963868467473806e-05, cumulative = 0.002349035774123709
[INFO] postSolveP: 19.974 [ms]
smoothSolver:  Solving for nuTilda, Initial residual = 0.02896467742332803, Final residual = 0.001698919392440155, No Iterations 3
[INFO] TimeStep: 1699.911 [ms]
ExecutionTime = 71.65000000000001 s  ClockTime = 72 s

Time = 29

velocityDampingConstraint velocityDamping damped 0 (0%) of cells, with max limit 300
[INFO] MatrixAssemblyU: 451.501 [ms]
smoothSolver:  Solving for Ux, Initial residual = 0.01057275972605463, Final residual = 0.001044568366469808, No Iterations 12
smoothSolver:  Solving for Uy, Initial residual = 0.04765841669452391, Final residual = 0.004104378704309785, No Iterations 13
smoothSolver:  Solving for Uz, Initial residual = 0.04487251180577306, Final residual = 0.004277265091280485, No Iterations 12
[INFO] MomentumPredictor: 397.344 [ms]
[INFO] MatrixAssemblyPI: 77.818 [ms]
[INFO] MatrixAssemblyPII: 36.459 [ms]
[OGL LOG][Proc: 0]: global_index_init: 0.113 [ms]
[OGL LOG][Proc: 0]p_local_coeffs: call_update: 0 [ms]
[OGL LOG][Proc: 0]p_non_local_coeffs: call_update: 0 [ms]
[OGL LOG][Proc: 0]p: update_local_matrix_data: 10.444 [ms]
[OGL LOG][Proc: 0]p: update_non_local_matrix_data: 0.096 [ms]
[OGL LOG][Proc: 0]p_matrix: call_update: 2.348 [ms]
[OGL LOG][Proc: 0]p_rhs: call_update: 3.282 [ms]
[OGL LOG][Preconditioner.H:121] Generate preconditioner BJ MaxBlockSize 1
[OGL LOG][Proc: 0]p: init_precond: 0.347 [ms]
[OGL LOG][StoppingCriterion.H:373] Creating stopping criterion with minIter 195 frequency 5
[OGL LOG][Proc: 0]p: generate_solver: 0.001 [ms]
[OGL LOG][Proc: 0]p: solve: 422.43 [ms]
[OGL LOG][Proc: 0]p: copy_x_back: 1.104 [ms]
[OGL LOG][lduLduBase.H:336] 
Statistics:
	Time per iteration: 1295 [mu s]
	Time per residual norm calculation: 224.000000 [mu s]
	Time per iteration and DOF: 0.205323 [ns]
	Retrieve results bandwidth 1.888000 [GByte/s]
[OGL LOG][Proc: 0]p: solve_multi_gpu: 430.097 [ms]
BJhipGKOCG:  Solving for p, Initial residual = 0.04387970894311655, Final residual = 0.000428212132751707, No Iterations 326
[INFO] SolveP: 442.654 [ms]
time step continuity errors : sum local = 0.003924117433659421, global = 0.0002143117173720096, cumulative = 0.002563347491495718
[INFO] postSolveP: 20.115 [ms]
smoothSolver:  Solving for nuTilda, Initial residual = 0.01835903469375107, Final residual = 0.001709925010096646, No Iterations 3
[INFO] TimeStep: 1709.636 [ms]
ExecutionTime = 73.69 s  ClockTime = 74 s

Time = 30

velocityDampingConstraint velocityDamping damped 0 (0%) of cells, with max limit 300
[INFO] MatrixAssemblyU: 450.586 [ms]
smoothSolver:  Solving for Ux, Initial residual = 0.01077441656143161, Final residual = 0.001050564563411276, No Iterations 12
smoothSolver:  Solving for Uy, Initial residual = 0.04974265215766546, Final residual = 0.004255559886539697, No Iterations 13
smoothSolver:  Solving for Uz, Initial residual = 0.04648876622583992, Final residual = 0.004415938651909534, No Iterations 12
[INFO] MomentumPredictor: 383.597 [ms]
[INFO] MatrixAssemblyPI: 77.748 [ms]
[INFO] MatrixAssemblyPII: 36.224 [ms]
[OGL LOG][Proc: 0]: global_index_init: 0.133 [ms]
[OGL LOG][Proc: 0]p_local_coeffs: call_update: 0 [ms]
[OGL LOG][Proc: 0]p_non_local_coeffs: call_update: 0 [ms]
[OGL LOG][Proc: 0]p: update_local_matrix_data: 11.074 [ms]
[OGL LOG][Proc: 0]p: update_non_local_matrix_data: 0.08799999999999999 [ms]
[OGL LOG][Proc: 0]p_matrix: call_update: 2.559 [ms]
[OGL LOG][Proc: 0]p_rhs: call_update: 5.887 [ms]
[OGL LOG][Preconditioner.H:121] Generate preconditioner BJ MaxBlockSize 1
[OGL LOG][Proc: 0]p: init_precond: 0.33 [ms]
[OGL LOG][StoppingCriterion.H:373] Creating stopping criterion with minIter 195 frequency 5
[OGL LOG][Proc: 0]p: generate_solver: 0.001 [ms]
[OGL LOG][Proc: 0]p: solve: 343.191 [ms]
[OGL LOG][Proc: 0]p: copy_x_back: 1.058 [ms]
[OGL LOG][lduLduBase.H:336] 
Statistics:
	Time per iteration: 1314 [mu s]
	Time per residual norm calculation: 229.000000 [mu s]
	Time per iteration and DOF: 0.208335 [ns]
	Retrieve results bandwidth 1.971000 [GByte/s]
[OGL LOG][Proc: 0]p: solve_multi_gpu: 353.62 [ms]
BJhipGKOCG:  Solving for p, Initial residual = 0.04488054400045041, Final residual = 0.0004432156309286771, No Iterations 261
[INFO] SolveP: 367.081 [ms]
time step continuity errors : sum local = 0.004114584024525489, global = 0.0004085598835447487, cumulative = 0.002971907375040467
[INFO] postSolveP: 19.883 [ms]
smoothSolver:  Solving for nuTilda, Initial residual = 0.02677562311852335, Final residual = 0.001591948918783162, No Iterations 3
[INFO] TimeStep: 1620.954 [ms]
ExecutionTime = 75.66 s  ClockTime = 76 s

Time = 31

velocityDampingConstraint velocityDamping damped 0 (0%) of cells, with max limit 300
[INFO] MatrixAssemblyU: 449.417 [ms]
smoothSolver:  Solving for Ux, Initial residual = 0.01084501755800647, Final residual = 0.001057278562097483, No Iterations 12
smoothSolver:  Solving for Uy, Initial residual = 0.05203573086540194, Final residual = 0.004423272588917759, No Iterations 13
smoothSolver:  Solving for Uz, Initial residual = 0.04820106126716261, Final residual = 0.004579935983593592, No Iterations 12
[INFO] MomentumPredictor: 384.888 [ms]
[INFO] MatrixAssemblyPI: 77.361 [ms]
[INFO] MatrixAssemblyPII: 36.808 [ms]
[OGL LOG][Proc: 0]: global_index_init: 0.12 [ms]
[OGL LOG][Proc: 0]p_local_coeffs: call_update: 0 [ms]
[OGL LOG][Proc: 0]p_non_local_coeffs: call_update: 0 [ms]
[OGL LOG][Proc: 0]p: update_local_matrix_data: 11.144 [ms]
[OGL LOG][Proc: 0]p: update_non_local_matrix_data: 0.091 [ms]
[OGL LOG][Proc: 0]p_matrix: call_update: 6.413 [ms]
[OGL LOG][Proc: 0]p_rhs: call_update: 4.122 [ms]
[OGL LOG][Preconditioner.H:121] Generate preconditioner BJ MaxBlockSize 1
[OGL LOG][Proc: 0]p: init_precond: 0.288 [ms]
[OGL LOG][StoppingCriterion.H:373] Creating stopping criterion with minIter 156 frequency 4
[OGL LOG][Proc: 0]p: generate_solver: 0.001 [ms]
[OGL LOG][Proc: 0]p: solve: 367.764 [ms]
[OGL LOG][Proc: 0]p: copy_x_back: 1.143 [ms]
[OGL LOG][lduLduBase.H:336] 
Statistics:
	Time per iteration: 1387 [mu s]
	Time per residual norm calculation: 223.000000 [mu s]
	Time per iteration and DOF: 0.219910 [ns]
	Retrieve results bandwidth 1.824000 [GByte/s]
[OGL LOG][Proc: 0]p: solve_multi_gpu: 380.319 [ms]
BJhipGKOCG:  Solving for p, Initial residual = 0.04632275152919688, Final residual = 0.0004506092323997853, No Iterations 265
[INFO] SolveP: 393.739 [ms]
[...]
BJhipGKOCG:  Solving for p, Initial residual = 0.05722966726910299, Final residual = 0.0005641574822539196, No Iterations 229
[INFO] SolveP: 321.117 [ms]
time step continuity errors : sum local = 0.005706914003142068, global = -0.0001997651441747297, cumulative = 0.008263585753470817
[INFO] postSolveP: 19.852 [ms]
smoothSolver:  Solving for nuTilda, Initial residual = 0.01295671575495413, Final residual = 0.001161159191448785, No Iterations 3
[INFO] TimeStep: 1590.3 [ms]
ExecutionTime = 97.23999999999999 s  ClockTime = 98 s

Time = 42

velocityDampingConstraint velocityDamping damped 0 (0%) of cells, with max limit 300
[INFO] MatrixAssemblyU: 452.022 [ms]
smoothSolver:  Solving for Ux, Initial residual = 0.01209502864751555, Final residual = 0.001208026754265502, No Iterations 12
smoothSolver:  Solving for Uy, Initial residual = 0.07119262036386798, Final residual = 0.006690289850697539, No Iterations 13
smoothSolver:  Solving for Uz, Initial residual = 0.07092315330811723, Final residual = 0.006080786507873104, No Iterations 13
[INFO] MomentumPredictor: 397.67 [ms]
[INFO] MatrixAssemblyPI: 78.45699999999999 [ms]
[INFO] MatrixAssemblyPII: 36.598 [ms]
[OGL LOG][Proc: 0]: global_index_init: 0.08500000000000001 [ms]
[OGL LOG][Proc: 0]p_local_coeffs: call_update: 0 [ms]
[OGL LOG][Proc: 0]p_non_local_coeffs: call_update: 0 [ms]
[OGL LOG][Proc: 0]p: update_local_matrix_data: 11.164 [ms]
[OGL LOG][Proc: 0]p: update_non_local_matrix_data: 0.08700000000000001 [ms]
[OGL LOG][Proc: 0]p_matrix: call_update: 2.513 [ms]
[OGL LOG][Proc: 0]p_rhs: call_update: 3.013 [ms]
[OGL LOG][Preconditioner.H:121] Generate preconditioner BJ MaxBlockSize 1
[OGL LOG][Proc: 0]p: init_precond: 0.256 [ms]
[OGL LOG][StoppingCriterion.H:373] Creating stopping criterion with minIter 137 frequency 4
[OGL LOG][Proc: 0]p: generate_solver: 0.001 [ms]
[OGL LOG][Proc: 0]p: solve: 311.511 [ms]
[OGL LOG][Proc: 0]p: copy_x_back: 1.101 [ms]
[OGL LOG][lduLduBase.H:336] 
Statistics:
	Time per iteration: 1336 [mu s]
	Time per residual norm calculation: 227.000000 [mu s]
	Time per iteration and DOF: 0.211824 [ns]
	Retrieve results bandwidth 1.894000 [GByte/s]
[OGL LOG][Proc: 0]p: solve_multi_gpu: 318.963 [ms]
BJhipGKOCG:  Solving for p, Initial residual = 0.05699020797015259, Final residual = 0.0005635558064796738, No Iterations 233
[INFO] SolveP: 332.152 [ms]
time step continuity errors : sum local = 0.005700027991115826, global = -0.000432497527890644, cumulative = 0.007831088225580173
[INFO] postSolveP: 20.334 [ms]
smoothSolver:  Solving for nuTilda, Initial residual = 0.01846881987409835, Final residual = 0.001114325771525171, No Iterations 3
[INFO] TimeStep: 1600.418 [ms]
ExecutionTime = 99.19 s  ClockTime = 100 s

Time = 43

velocityDampingConstraint velocityDamping damped 0 (0%) of cells, with max limit 300
[INFO] MatrixAssemblyU: 450.278 [ms]
smoothSolver:  Solving for Ux, Initial residual = 0.01200134916722876, Final residual = 0.001035174122382041, No Iterations 13
smoothSolver:  Solving for Uy, Initial residual = 0.07193572957195181, Final residual = 0.006914237803803723, No Iterations 13
smoothSolver:  Solving for Uz, Initial residual = 0.07063978314467528, Final residual = 0.006169380114242841, No Iterations 13
[INFO] MomentumPredictor: 412.223 [ms]
[INFO] MatrixAssemblyPI: 77.557 [ms]
[INFO] MatrixAssemblyPII: 36.578 [ms]
[OGL LOG][Proc: 0]: global_index_init: 0.243 [ms]
[OGL LOG][Proc: 0]p_local_coeffs: call_update: 0 [ms]
[OGL LOG][Proc: 0]p_non_local_coeffs: call_update: 0 [ms]
[OGL LOG][Proc: 0]p: update_local_matrix_data: 10.476 [ms]
[OGL LOG][Proc: 0]p: update_non_local_matrix_data: 0.074 [ms]
[OGL LOG][Proc: 0]p_matrix: call_update: 2.412 [ms]
[OGL LOG][Proc: 0]p_rhs: call_update: 3.787 [ms]
[OGL LOG][Preconditioner.H:121] Generate preconditioner BJ MaxBlockSize 1
[OGL LOG][Proc: 0]p: init_precond: 0.256 [ms]
[OGL LOG][StoppingCriterion.H:373] Creating stopping criterion with minIter 139 frequency 4
[OGL LOG][Proc: 0]p: generate_solver: 0.001 [ms]
[OGL LOG][Proc: 0]p: solve: 326.822 [ms]
[OGL LOG][Proc: 0]p: copy_x_back: 1.094 [ms]
[OGL LOG][lduLduBase.H:336] 
Statistics:
	Time per iteration: 1402 [mu s]
	Time per residual norm calculation: 225.000000 [mu s]
	Time per iteration and DOF: 0.222288 [ns]
	Retrieve results bandwidth 1.906000 [GByte/s]
[OGL LOG][Proc: 0]p: solve_multi_gpu: 334.96 [ms]
BJhipGKOCG:  Solving for p, Initial residual = 0.05636156517140101, Final residual = 0.0005613445169810869, No Iterations 233
[INFO] SolveP: 347.561 [ms]
time step continuity errors : sum local = 0.005664264947629943, global = -0.0006823912858775115, cumulative = 0.007148696939702661
[INFO] postSolveP: 20.226 [ms]
smoothSolver:  Solving for nuTilda, Initial residual = 0.01236747218167604, Final residual = 0.001104727356304291, No Iterations 3
[INFO] TimeStep: 1630.695 [ms]
ExecutionTime = 101.17 s  ClockTime = 102 s

Time = 44

velocityDampingConstraint velocityDamping damped 0 (0%) of cells, with max limit 300
[INFO] MatrixAssemblyU: 450.616 [ms]
smoothSolver:  Solving for Ux, Initial residual = 0.0120222629548621, Final residual = 0.001043783344204358, No Iterations 13
smoothSolver:  Solving for Uy, Initial residual = 0.07244247611114984, Final residual = 0.007116993331557108, No Iterations 13
smoothSolver:  Solving for Uz, Initial residual = 0.0700320790197952, Final residual = 0.006238032970456008, No Iterations 13
[INFO] MomentumPredictor: 400.83 [ms]
[INFO] MatrixAssemblyPI: 78.03700000000001 [ms]
[INFO] MatrixAssemblyPII: 36.515 [ms]
[OGL LOG][Proc: 0]: global_index_init: 0.051 [ms]
[OGL LOG][Proc: 0]p_local_coeffs: call_update: 0 [ms]
[OGL LOG][Proc: 0]p_non_local_coeffs: call_update: 0 [ms]
[OGL LOG][Proc: 0]p: update_local_matrix_data: 11.429 [ms]
[OGL LOG][Proc: 0]p: update_non_local_matrix_data: 0.075 [ms]
[OGL LOG][Proc: 0]p_matrix: call_update: 2.414 [ms]
[OGL LOG][Proc: 0]p_rhs: call_update: 3.131 [ms]
[OGL LOG][Preconditioner.H:121] Generate preconditioner BJ MaxBlockSize 1
[OGL LOG][Proc: 0]p: init_precond: 0.28 [ms]
[OGL LOG][StoppingCriterion.H:373] Creating stopping criterion with minIter 139 frequency 3
[OGL LOG][Proc: 0]p: generate_solver: 0.001 [ms]
[OGL LOG][Proc: 0]p: solve: 358.348 [ms]
[OGL LOG][Proc: 0]p: copy_x_back: 1.076 [ms]
[OGL LOG][lduLduBase.H:336] 
Statistics:
	Time per iteration: 1322 [mu s]
	Time per residual norm calculation: 221.000000 [mu s]
	Time per iteration and DOF: 0.209604 [ns]
	Retrieve results bandwidth 1.938000 [GByte/s]
[OGL LOG][Proc: 0]p: solve_multi_gpu: 365.783 [ms]
BJhipGKOCG:  Solving for p, Initial residual = 0.05562085966468135, Final residual = 0.0005558047717193911, No Iterations 271
[INFO] SolveP: 379.47 [ms]
time step continuity errors : sum local = 0.005567225929564084, global = -0.0009435703358732121, cumulative = 0.006205126603829448
[INFO] postSolveP: 20.556 [ms]
smoothSolver:  Solving for nuTilda, Initial residual = 0.01752589510523481, Final residual = 0.001061979628959741, No Iterations 3
[INFO] TimeStep: 1651.378 [ms]
ExecutionTime = 103.16 s  ClockTime = 104 s

Time = 45

velocityDampingConstraint velocityDamping damped 0 (0%) of cells, with max limit 300
[INFO] MatrixAssemblyU: 451.341 [ms]
smoothSolver:  Solving for Ux, Initial residual = 0.01188318475426962, Final residual = 0.001053087345525838, No Iterations 13
smoothSolver:  Solving for Uy, Initial residual = 0.07250576547091087, Final residual = 0.007245876014119542, No Iterations 13
smoothSolver:  Solving for Uz, Initial residual = 0.0692020792795543, Final residual = 0.00629100765423453, No Iterations 13
[INFO] MomentumPredictor: 406.28 [ms]
[INFO] MatrixAssemblyPI: 77.907 [ms]
[INFO] MatrixAssemblyPII: 36.873 [ms]
[OGL LOG][Proc: 0]: global_index_init: 0.035 [ms]
[OGL LOG][Proc: 0]p_local_coeffs: call_update: 0 [ms]
[OGL LOG][Proc: 0]p_non_local_coeffs: call_update: 0 [ms]
[OGL LOG][Proc: 0]p: update_local_matrix_data: 10.96 [ms]
[OGL LOG][Proc: 0]p: update_non_local_matrix_data: 0.081 [ms]
[OGL LOG][Proc: 0]p_matrix: call_update: 3.884 [ms]
[OGL LOG][Proc: 0]p_rhs: call_update: 1.336 [ms]
[OGL LOG][Preconditioner.H:121] Generate preconditioner BJ MaxBlockSize 1
[OGL LOG][Proc: 0]p: init_precond: 0.26 [ms]
[OGL LOG][StoppingCriterion.H:373] Creating stopping criterion with minIter 162 frequency 4
[OGL LOG][Proc: 0]p: generate_solver: 0.001 [ms]
[OGL LOG][Proc: 0]p: solve: 759.361 [ms]
[OGL LOG][Proc: 0]p: copy_x_back: 1.104 [ms]
[OGL LOG][lduLduBase.H:336] 
Statistics:
	Time per iteration: 1289 [mu s]
	Time per residual norm calculation: 224.000000 [mu s]
	Time per iteration and DOF: 0.204372 [ns]
	Retrieve results bandwidth 1.888000 [GByte/s]
[OGL LOG][Proc: 0]p: solve_multi_gpu: 766.499 [ms]
BJhipGKOCG:  Solving for p, Initial residual = 0.05508122547574527, Final residual = 0.0005365759320733321, No Iterations 589
[INFO] SolveP: 779.736 [ms]
time step continuity errors : sum local = 0.005310056306093345, global = -3.339338581658589e-05, cumulative = 0.006171733218012863
[INFO] postSolveP: 20.02 [ms]
smoothSolver:  Solving for nuTilda, Initial residual = 0.01181220295321256, Final residual = 0.00105137655785338, No Iterations 3
[INFO] TimeStep: 2058.568 [ms]
ExecutionTime = 105.57 s  ClockTime = 106 s

Time = 46

velocityDampingConstraint velocityDamping damped 0 (0%) of cells, with max limit 300
[INFO] MatrixAssemblyU: 452.287 [ms]
smoothSolver:  Solving for Ux, Initial residual = 0.01195287411431948, Final residual = 0.001056916300537511, No Iterations 13
smoothSolver:  Solving for Uy, Initial residual = 0.07265983021907982, Final residual = 0.006223834983833449, No Iterations 14
smoothSolver:  Solving for Uz, Initial residual = 0.0683204137729371, Final residual = 0.006335620229302497, No Iterations 13
[INFO] MomentumPredictor: 417.493 [ms]
[INFO] MatrixAssemblyPI: 77.495 [ms]
[INFO] MatrixAssemblyPII: 36.782 [ms]
[OGL LOG][Proc: 0]: global_index_init: 0.347 [ms]
[OGL LOG][Proc: 0]p_local_coeffs: call_update: 0 [ms]
[OGL LOG][Proc: 0]p_non_local_coeffs: call_update: 0 [ms]
[OGL LOG][Proc: 0]p: update_local_matrix_data: 10.997 [ms]
[OGL LOG][Proc: 0]p: update_non_local_matrix_data: 0.094 [ms]
[OGL LOG][Proc: 0]p_matrix: call_update: 2.578 [ms]
[OGL LOG][Proc: 0]p_rhs: call_update: 2.58 [ms]
[OGL LOG][Preconditioner.H:121] Generate preconditioner BJ MaxBlockSize 1
[OGL LOG][Proc: 0]p: init_precond: 0.251 [ms]
[OGL LOG][StoppingCriterion.H:373] Creating stopping criterion with minIter 353 frequency 6
[OGL LOG][Proc: 0]p: generate_solver: 0 [ms]
[OGL LOG][Proc: 0]p: solve: 446.085 [ms]
[OGL LOG][Proc: 0]p: copy_x_back: 1.097 [ms]
[OGL LOG][lduLduBase.H:336] 
Statistics:
	Time per iteration: 1256 [mu s]
	Time per residual norm calculation: 244.000000 [mu s]
	Time per iteration and DOF: 0.199140 [ns]
	Retrieve results bandwidth 1.900000 [GByte/s]
[OGL LOG][Proc: 0]p: solve_multi_gpu: 453.146 [ms]
BJhipGKOCG:  Solving for p, Initial residual = 0.05642391061819713, Final residual = 0.0003638196043316409, No Iterations 355
[INFO] SolveP: 466.792 [ms]
time step continuity errors : sum local = 0.003443620257211379, global = 0.0005647132938479846, cumulative = 0.006736446511860847
[INFO] postSolveP: 20.271 [ms]
smoothSolver:  Solving for nuTilda, Initial residual = 0.01664862314029053, Final residual = 0.001013815004259629, No Iterations 3
[INFO] TimeStep: 1754.28 [ms]
ExecutionTime = 107.68 s  ClockTime = 108 s

Time = 47

velocityDampingConstraint velocityDamping damped 0 (0%) of cells, with max limit 300
[INFO] MatrixAssemblyU: 452.446 [ms]
smoothSolver:  Solving for Ux, Initial residual = 0.01164724735170346, Final residual = 0.001061505432392145, No Iterations 13
smoothSolver:  Solving for Uy, Initial residual = 0.0719059199099492, Final residual = 0.006213030581164727, No Iterations 14
smoothSolver:  Solving for Uz, Initial residual = 0.06671190701197587, Final residual = 0.006355175098225353, No Iterations 13
[INFO] MomentumPredictor: 413.578 [ms]
[INFO] MatrixAssemblyPI: 77.617 [ms]
[INFO] MatrixAssemblyPII: 36.567 [ms]
[OGL LOG][Proc: 0]: global_index_init: 0.081 [ms]
[OGL LOG][Proc: 0]p_local_coeffs: call_update: 0 [ms]
[OGL LOG][Proc: 0]p_non_local_coeffs: call_update: 0 [ms]
[OGL LOG][Proc: 0]p: update_local_matrix_data: 10.987 [ms]
[OGL LOG][Proc: 0]p: update_non_local_matrix_data: 0.09 [ms]
[OGL LOG][Proc: 0]p_matrix: call_update: 2.274 [ms]
[OGL LOG][Proc: 0]p_rhs: call_update: 3.55 [ms]
[OGL LOG][Preconditioner.H:121] Generate preconditioner BJ MaxBlockSize 1
[OGL LOG][Proc: 0]p: init_precond: 0.282 [ms]
[OGL LOG][StoppingCriterion.H:373] Creating stopping criterion with minIter 213 frequency 5
[OGL LOG][Proc: 0]p: generate_solver: 0.001 [ms]
[OGL LOG][Proc: 0]p: solve: 451.655 [ms]
[OGL LOG][Proc: 0]p: copy_x_back: 1.099 [ms]
[OGL LOG][lduLduBase.H:336] 
Statistics:
	Time per iteration: 1407 [mu s]
	Time per residual norm calculation: 227.000000 [mu s]
	Time per iteration and DOF: 0.223081 [ns]
	Retrieve results bandwidth 1.897000 [GByte/s]
[OGL LOG][Proc: 0]p: solve_multi_gpu: 459.447 [ms]
BJhipGKOCG:  Solving for p, Initial residual = 0.05519353674183936, Final residual = 0.0005456420581594879, No Iterations 321
[INFO] SolveP: 472.653 [ms]
time step continuity errors : sum local = 0.005161371922771317, global = 0.0008783385867612081, cumulative = 0.007614785098622056
[INFO] postSolveP: 19.869 [ms]
smoothSolver:  Solving for nuTilda, Initial residual = 0.01129645970508538, Final residual = 0.00100420598625392, No Iterations 3
[INFO] TimeStep: 1757.096 [ms]
ExecutionTime = 109.78 s  ClockTime = 111 s

Time = 48

velocityDampingConstraint velocityDamping damped 0 (0%) of cells, with max limit 300
[INFO] MatrixAssemblyU: 451.339 [ms]
smoothSolver:  Solving for Ux, Initial residual = 0.01158628234286451, Final residual = 0.001069114043187642, No Iterations 13
smoothSolver:  Solving for Uy, Initial residual = 0.07150443641456965, Final residual = 0.006195960995032221, No Iterations 14
smoothSolver:  Solving for Uz, Initial residual = 0.06552719774554384, Final residual = 0.00635162611472519, No Iterations 13
[INFO] MomentumPredictor: 422.344 [ms]
[INFO] MatrixAssemblyPI: 79.193 [ms]
[INFO] MatrixAssemblyPII: 36.782 [ms]
[OGL LOG][Proc: 0]: global_index_init: 0.239 [ms]
[OGL LOG][Proc: 0]p_local_coeffs: call_update: 0 [ms]
[OGL LOG][Proc: 0]p_non_local_coeffs: call_update: 0 [ms]
[OGL LOG][Proc: 0]p: update_local_matrix_data: 11.656 [ms]
[OGL LOG][Proc: 0]p: update_non_local_matrix_data: 0.097 [ms]
[OGL LOG][Proc: 0]p_matrix: call_update: 2.422 [ms]
[OGL LOG][Proc: 0]p_rhs: call_update: 2.701 [ms]
[OGL LOG][Preconditioner.H:121] Generate preconditioner BJ MaxBlockSize 1
[OGL LOG][Proc: 0]p: init_precond: 0.339 [ms]
[OGL LOG][StoppingCriterion.H:373] Creating stopping criterion with minIter 192 frequency 4
[OGL LOG][Proc: 0]p: generate_solver: 0.001 [ms]
[OGL LOG][Proc: 0]p: solve: 790.91 [ms]
[OGL LOG][Proc: 0]p: copy_x_back: 1.141 [ms]
[OGL LOG][lduLduBase.H:336] 
Statistics:
	Time per iteration: 1290 [mu s]
	Time per residual norm calculation: 223.000000 [mu s]
	Time per iteration and DOF: 0.204530 [ns]
	Retrieve results bandwidth 1.827000 [GByte/s]
[OGL LOG][Proc: 0]p: solve_multi_gpu: 798.0790000000001 [ms]
BJhipGKOCG:  Solving for p, Initial residual = 0.05403617591253831, Final residual = 0.0005265537932229463, No Iterations 613
[INFO] SolveP: 812.098 [ms]
time step continuity errors : sum local = 0.00497729822444883, global = -7.787531960164391e-05, cumulative = 0.007536909779020412
[INFO] postSolveP: 20.232 [ms]
smoothSolver:  Solving for nuTilda, Initial residual = 0.01586284158061017, Final residual = 0.0009724850868546755, No Iterations 3
[INFO] TimeStep: 2105.976 [ms]
ExecutionTime = 112.23 s  ClockTime = 113 s

Time = 49

velocityDampingConstraint velocityDamping damped 0 (0%) of cells, with max limit 300
[INFO] MatrixAssemblyU: 453.618 [ms]
smoothSolver:  Solving for Ux, Initial residual = 0.01138864019346005, Final residual = 0.001073462420152551, No Iterations 13
smoothSolver:  Solving for Uy, Initial residual = 0.07110744087940668, Final residual = 0.006179239345706353, No Iterations 14
smoothSolver:  Solving for Uz, Initial residual = 0.06481107689012665, Final residual = 0.006341571089152606, No Iterations 13
[INFO] MomentumPredictor: 420.268 [ms]
[INFO] MatrixAssemblyPI: 78.557 [ms]
[INFO] MatrixAssemblyPII: 36.806 [ms]
[OGL LOG][Proc: 0]: global_index_init: 0.089 [ms]
[OGL LOG][Proc: 0]p_local_coeffs: call_update: 0 [ms]
[OGL LOG][Proc: 0]p_non_local_coeffs: call_update: 0 [ms]
[OGL LOG][Proc: 0]p: update_local_matrix_data: 11.13 [ms]
[OGL LOG][Proc: 0]p: update_non_local_matrix_data: 0.093 [ms]
[OGL LOG][Proc: 0]p_matrix: call_update: 2.524 [ms]
[OGL LOG][Proc: 0]p_rhs: call_update: 3.168 [ms]
[OGL LOG][Preconditioner.H:121] Generate preconditioner BJ MaxBlockSize 1
[OGL LOG][Proc: 0]p: init_precond: 0.284 [ms]
[OGL LOG][StoppingCriterion.H:373] Creating stopping criterion with minIter 367 frequency 7
[OGL LOG][Proc: 0]p: generate_solver: 0.001 [ms]
[OGL LOG][Proc: 0]p: solve: 465.346 [ms]
[OGL LOG][Proc: 0]p: copy_x_back: 1.051 [ms]
[OGL LOG][lduLduBase.H:336] 
Statistics:
	Time per iteration: 1250 [mu s]
	Time per residual norm calculation: 242.000000 [mu s]
	Time per iteration and DOF: 0.198188 [ns]
	Retrieve results bandwidth 1.984000 [GByte/s]
[OGL LOG][Proc: 0]p: solve_multi_gpu: 472.949 [ms]
BJhipGKOCG:  Solving for p, Initial residual = 0.05173449394040669, Final residual = 0.0003591292056298818, No Iterations 372
[INFO] SolveP: 486.164 [ms]
time step continuity errors : sum local = 0.003495379052894082, global = -0.0004616794710385616, cumulative = 0.00707523030798185
[INFO] postSolveP: 20.216 [ms]
smoothSolver:  Solving for nuTilda, Initial residual = 0.01085461962597931, Final residual = 0.000966199992195703, No Iterations 3
[INFO] TimeStep: 1780.312 [ms]
ExecutionTime = 114.36 s  ClockTime = 115 s

Time = 50

velocityDampingConstraint velocityDamping damped 0 (0%) of cells, with max limit 300
[INFO] MatrixAssemblyU: 451.691 [ms]
smoothSolver:  Solving for Ux, Initial residual = 0.01142895708484703, Final residual = 0.001076718420047299, No Iterations 13
smoothSolver:  Solving for Uy, Initial residual = 0.07001143542420553, Final residual = 0.00612188398455241, No Iterations 14
smoothSolver:  Solving for Uz, Initial residual = 0.06402728950867489, Final residual = 0.006334141767287409, No Iterations 13
[INFO] MomentumPredictor: 421.119 [ms]
[INFO] MatrixAssemblyPI: 77.111 [ms]
[INFO] MatrixAssemblyPII: 36.347 [ms]
[OGL LOG][Proc: 0]: global_index_init: 2.044 [ms]
[OGL LOG][Proc: 0]p_local_coeffs: call_update: 0 [ms]
[OGL LOG][Proc: 0]p_non_local_coeffs: call_update: 0 [ms]
[OGL LOG][Proc: 0]p: update_local_matrix_data: 10.675 [ms]
[OGL LOG][Proc: 0]p: update_non_local_matrix_data: 0.073 [ms]
[OGL LOG][Proc: 0]p_matrix: call_update: 2.216 [ms]
[OGL LOG][Proc: 0]p_rhs: call_update: 5.572 [ms]
[OGL LOG][Preconditioner.H:121] Generate preconditioner BJ MaxBlockSize 1
[OGL LOG][Proc: 0]p: init_precond: 0.252 [ms]
[OGL LOG][StoppingCriterion.H:373] Creating stopping criterion with minIter 223 frequency 5
[OGL LOG][Proc: 0]p: generate_solver: 0 [ms]
[OGL LOG][Proc: 0]p: solve: 815.241 [ms]
[OGL LOG][Proc: 0]p: copy_x_back: 1.075 [ms]
[OGL LOG][lduLduBase.H:336] 
Statistics:
	Time per iteration: 1302 [mu s]
	Time per residual norm calculation: 225.000000 [mu s]
	Time per iteration and DOF: 0.206433 [ns]
	Retrieve results bandwidth 1.939000 [GByte/s]
[OGL LOG][Proc: 0]p: solve_multi_gpu: 824.9930000000001 [ms]
BJhipGKOCG:  Solving for p, Initial residual = 0.05185187561706543, Final residual = 0.0005181796265569335, No Iterations 626
[INFO] SolveP: 840.217 [ms]
time step continuity errors : sum local = 0.004982158074427757, global = -1.50834966730989e-05, cumulative = 0.007060146811308751
[INFO] postSolveP: 20.669 [ms]
smoothSolver:  Solving for nuTilda, Initial residual = 0.01518091938562595, Final residual = 0.0009409207339619465, No Iterations 3
[INFO] TimeStep: 2131.918 [ms]
ExecutionTime = 116.84 s  ClockTime = 118 s

End

Finalising parallel run
