/*---------------------------------------------------------------------------*\
| =========                 |                                                 |
| \\      /  F ield         | OpenFOAM: The Open Source CFD Toolbox           |
|  \\    /   O peration     | Version:  2306                                  |
|   \\  /    A nd           | Website:  www.openfoam.com                      |
|    \\/     M anipulation  |                                                 |
\*---------------------------------------------------------------------------*/
Build  : a6e826bd55-20230630 OPENFOAM=2306 version=v2306
Arch   : "LSB;label=32;scalar=64"
Exec   : icoFoam -parallel -case /home/greole/data/code/exasim_project/micro_benchmarks/LidDrivenCavity3D/workspace/ceeabb28166680991da21830c4404399/case
Date   : Jul 11 2023
Time   : 15:16:39
Host   : nla-gpu2.ianm.kit.edu
PID    : 519961
I/O    : uncollated
Case   : /home/greole/data/code/exasim_project/micro_benchmarks/LidDrivenCavity3D/workspace/ceeabb28166680991da21830c4404399/case
nProcs : 32
Hosts  :
(
    (nla-gpu2.ianm.kit.edu 32)
)
Pstream initialized with:
    floatTransfer      : false
    nProcsSimpleSum    : 0
    nonBlockingExchange: 0 (tuning: 0)
    exchange algorithm : -1
    commsType          : nonBlocking
    polling iterations : 0
trapFpe: Floating point exception trapping enabled (FOAM_SIGFPE).
fileModificationChecking : Monitoring run-time modified files using timeStampMaster (fileModificationSkew 5, maxFileModificationPolls 20)
allowSystemOperations : Allowing user-supplied system call operations

// * * * * * * * * * * * * * * * * * * * * * * * * * * * * * * * * * * * * * //
Create time

--> FOAM Warning : 
    From void* Foam::dlLibraryTable::openLibrary(const Foam::fileName&, bool)
    in file db/dynamicLibrary/dlLibraryTable/dlLibraryTable.C at line 188
    Could not load "libpetscFoam.so"
libpetscFoam.so: cannot open shared object file: No such file or directory
Create mesh for time = 0


PISO: Operating solver in PISO mode

Reading transportProperties

Reading field p

Reading field U

Reading/calculating face flux field phi


Starting time loop

Time = 0.0005

Courant Number mean: 8.62851e-18 max: 8.67362e-15
[INFO] MatrixAssemblyU: 7.182 [ms]
DILUPBiCGStab:  Solving for Ux, Initial residual = 1, Final residual = 0.00283431, No Iterations 5
DILUPBiCGStab:  Solving for Uy:  solution singularity
DILUPBiCGStab:  Solving for Uz:  solution singularity
[INFO] MomentumPredictor: 24.9 [ms]
[INFO] MatrixAssemblyPI: 5.399 [ms]
[INFO] AdjustPhi: 0.561 [ms]
[INFO] ConstrainPressure: 0.007 [ms]
[INFO] MatrixAssemblyPII: 1.672 [ms]
GAMG:  Solving for p, Initial residual = 1, Final residual = 8.84664e-05, No Iterations 22
[INFO] SolveP: 135.1 [ms]
time step continuity errors : sum local = 1.9169e-08, global = 2.03574e-21, cumulative = 2.03574e-21
[INFO] ContinuityError: 0.993 [ms]
[INFO] CorrectBoundary: 0.078 [ms]
[INFO] PISOStep: 146.137 [ms]
[INFO] MatrixAssemblyPI: 7.066 [ms]
[INFO] AdjustPhi: 1.615 [ms]
[INFO] ConstrainPressure: 0.003 [ms]
[INFO] MatrixAssemblyPII: 1.751 [ms]
GAMG:  Solving for p, Initial residual = 0.73116, Final residual = 8.26601e-05, No Iterations 26
[INFO] SolveP: 129.372 [ms]
time step continuity errors : sum local = 2.36391e-08, global = -1.96011e-21, cumulative = 7.56353e-23
[INFO] ContinuityError: 1.059 [ms]
[INFO] CorrectBoundary: 0.067 [ms]
[INFO] PISOStep: 143.171 [ms]
[INFO] TimeStep: 322.717 [ms]
ExecutionTime = 0.68 s  ClockTime = 0 s

Time = 0.001

Courant Number mean: 0.0215183 max: 0.377124
[INFO] MatrixAssemblyU: 3.341 [ms]
DILUPBiCGStab:  Solving for Ux, Initial residual = 0.15031, Final residual = 0.0014087, No Iterations 5
DILUPBiCGStab:  Solving for Uy, Initial residual = 0.368269, Final residual = 0.0028708, No Iterations 5
DILUPBiCGStab:  Solving for Uz, Initial residual = 0.984465, Final residual = 0.00793905, No Iterations 5
[INFO] MomentumPredictor: 40.467 [ms]
[INFO] MatrixAssemblyPI: 5.424 [ms]
[INFO] AdjustPhi: 0.403 [ms]
[INFO] ConstrainPressure: 0.003 [ms]
[INFO] MatrixAssemblyPII: 1.643 [ms]
GAMG:  Solving for p, Initial residual = 0.693069, Final residual = 8.43377e-05, No Iterations 21
[INFO] SolveP: 117.999 [ms]
time step continuity errors : sum local = 2.70427e-08, global = -1.11261e-20, cumulative = -1.10505e-20
[INFO] ContinuityError: 0.996 [ms]
[INFO] CorrectBoundary: 0.443 [ms]
[INFO] PISOStep: 128.959 [ms]
[INFO] MatrixAssemblyPI: 5.253 [ms]
[INFO] AdjustPhi: 2.482 [ms]
[INFO] ConstrainPressure: 0.001 [ms]
[INFO] MatrixAssemblyPII: 1.59 [ms]
GAMG:  Solving for p, Initial residual = 0.622451, Final residual = 9.12443e-05, No Iterations 24
[INFO] SolveP: 117.382 [ms]
time step continuity errors : sum local = 2.9936e-08, global = 3.45296e-21, cumulative = -7.5975e-21
[INFO] ContinuityError: 0.879 [ms]
[INFO] CorrectBoundary: 0.051 [ms]
[INFO] PISOStep: 130.253 [ms]
[INFO] TimeStep: 304.53 [ms]
ExecutionTime = 0.99 s  ClockTime = 1 s

Time = 0.0015

Courant Number mean: 0.0324761 max: 0.441228
[INFO] MatrixAssemblyU: 3.641 [ms]
DILUPBiCGStab:  Solving for Ux, Initial residual = 0.0531254, Final residual = 0.000432349, No Iterations 5
DILUPBiCGStab:  Solving for Uy, Initial residual = 0.124795, Final residual = 0.000734787, No Iterations 5
DILUPBiCGStab:  Solving for Uz, Initial residual = 0.597935, Final residual = 0.00558584, No Iterations 5
[INFO] MomentumPredictor: 40.355 [ms]
[INFO] MatrixAssemblyPI: 5.431 [ms]
[INFO] AdjustPhi: 0.429 [ms]
[INFO] ConstrainPressure: 0.002 [ms]
[INFO] MatrixAssemblyPII: 1.692 [ms]
GAMG:  Solving for p, Initial residual = 0.63373, Final residual = 9.33132e-05, No Iterations 20
[INFO] SolveP: 109.007 [ms]
time step continuity errors : sum local = 2.15629e-08, global = -5.44409e-21, cumulative = -1.30416e-20
[INFO] ContinuityError: 0.817 [ms]
[INFO] CorrectBoundary: 0.056 [ms]
[INFO] PISOStep: 120.192 [ms]
[INFO] MatrixAssemblyPI: 5.96 [ms]
[INFO] AdjustPhi: 1.673 [ms]
[INFO] ConstrainPressure: 0.001 [ms]
[INFO] MatrixAssemblyPII: 1.741 [ms]
GAMG:  Solving for p, Initial residual = 0.581231, Final residual = 9.29626e-05, No Iterations 20
[INFO] SolveP: 102.508 [ms]
time step continuity errors : sum local = 2.09176e-08, global = 3.28835e-21, cumulative = -9.75323e-21
[INFO] ContinuityError: 0.824 [ms]
[INFO] CorrectBoundary: 0.725 [ms]
[INFO] PISOStep: 115.829 [ms]
[INFO] TimeStep: 281.442 [ms]
ExecutionTime = 1.27 s  ClockTime = 1 s

Time = 0.002

Courant Number mean: 0.0388755 max: 0.452935
[INFO] MatrixAssemblyU: 3.623 [ms]
DILUPBiCGStab:  Solving for Ux, Initial residual = 0.0319205, Final residual = 0.000229, No Iterations 5
DILUPBiCGStab:  Solving for Uy, Initial residual = 0.0814083, Final residual = 0.000474758, No Iterations 5
DILUPBiCGStab:  Solving for Uz, Initial residual = 0.314308, Final residual = 0.00242892, No Iterations 5
[INFO] MomentumPredictor: 40.226 [ms]
[INFO] MatrixAssemblyPI: 5.426 [ms]
[INFO] AdjustPhi: 0.373 [ms]
[INFO] ConstrainPressure: 0.002 [ms]
[INFO] MatrixAssemblyPII: 1.682 [ms]
GAMG:  Solving for p, Initial residual = 0.41492, Final residual = 9.78216e-05, No Iterations 18
[INFO] SolveP: 88.755 [ms]
time step continuity errors : sum local = 1.93715e-08, global = 9.99544e-22, cumulative = -8.75369e-21
[INFO] ContinuityError: 0.965 [ms]
[INFO] CorrectBoundary: 0.057 [ms]
[INFO] PISOStep: 99.335 [ms]
[INFO] MatrixAssemblyPI: 5.046 [ms]
[INFO] AdjustPhi: 0.67 [ms]
[INFO] ConstrainPressure: 0.003 [ms]
[INFO] MatrixAssemblyPII: 1.66 [ms]
GAMG:  Solving for p, Initial residual = 0.352935, Final residual = 8.7455e-05, No Iterations 18
[INFO] SolveP: 91.499 [ms]
time step continuity errors : sum local = 1.74903e-08, global = -1.64842e-21, cumulative = -1.04021e-20
[INFO] ContinuityError: 1.073 [ms]
[INFO] CorrectBoundary: 0.264 [ms]
[INFO] PISOStep: 104.153 [ms]
[INFO] TimeStep: 248.251 [ms]
ExecutionTime = 1.51 s  ClockTime = 1 s

Time = 0.0025

Courant Number mean: 0.0439279 max: 0.459606
[INFO] MatrixAssemblyU: 3.34 [ms]
DILUPBiCGStab:  Solving for Ux, Initial residual = 0.023522, Final residual = 0.000146217, No Iterations 5
DILUPBiCGStab:  Solving for Uy, Initial residual = 0.0515472, Final residual = 0.000276616, No Iterations 5
DILUPBiCGStab:  Solving for Uz, Initial residual = 0.128436, Final residual = 0.000862305, No Iterations 5
[INFO] MomentumPredictor: 40.361 [ms]
[INFO] MatrixAssemblyPI: 5.424 [ms]
[INFO] AdjustPhi: 0.338 [ms]
[INFO] ConstrainPressure: 0.002 [ms]
[INFO] MatrixAssemblyPII: 1.668 [ms]
GAMG:  Solving for p, Initial residual = 0.316619, Final residual = 9.65961e-05, No Iterations 19
[INFO] SolveP: 93.36 [ms]
time step continuity errors : sum local = 1.57051e-08, global = -5.76121e-21, cumulative = -1.61633e-20
[INFO] ContinuityError: 0.761 [ms]
[INFO] CorrectBoundary: 0.048 [ms]
[INFO] PISOStep: 104.08 [ms]
[INFO] MatrixAssemblyPI: 5.377 [ms]
[INFO] AdjustPhi: 0.557 [ms]
[INFO] ConstrainPressure: 0.003 [ms]
[INFO] MatrixAssemblyPII: 1.636 [ms]
GAMG:  Solving for p, Initial residual = 0.27108, Final residual = 9.21474e-05, No Iterations 18
[INFO] SolveP: 93.739 [ms]
time step continuity errors : sum local = 1.49302e-08, global = -5.54149e-21, cumulative = -2.17048e-20
[INFO] ContinuityError: 0.944 [ms]
[INFO] CorrectBoundary: 0.392 [ms]
[INFO] PISOStep: 104.676 [ms]
[INFO] TimeStep: 253.374 [ms]
ExecutionTime = 1.77 s  ClockTime = 1 s

Time = 0.003

Courant Number mean: 0.0479688 max: 0.463849
[INFO] MatrixAssemblyU: 3.55 [ms]
DILUPBiCGStab:  Solving for Ux, Initial residual = 0.0179098, Final residual = 0.000103914, No Iterations 5
DILUPBiCGStab:  Solving for Uy, Initial residual = 0.0401365, Final residual = 0.000165323, No Iterations 5
DILUPBiCGStab:  Solving for Uz, Initial residual = 0.108923, Final residual = 0.000732041, No Iterations 5
[INFO] MomentumPredictor: 41.452 [ms]
[INFO] MatrixAssemblyPI: 5.381 [ms]
[INFO] AdjustPhi: 0.419 [ms]
[INFO] ConstrainPressure: 0.003 [ms]
[INFO] MatrixAssemblyPII: 1.642 [ms]
GAMG:  Solving for p, Initial residual = 0.198788, Final residual = 9.52726e-05, No Iterations 18
[INFO] SolveP: 91.368 [ms]
time step continuity errors : sum local = 1.49558e-08, global = -4.87121e-21, cumulative = -2.6576e-20
[INFO] ContinuityError: 0.854 [ms]
[INFO] CorrectBoundary: 0.066 [ms]
[INFO] PISOStep: 101.81 [ms]
[INFO] MatrixAssemblyPI: 4.962 [ms]
[INFO] AdjustPhi: 1.34 [ms]
[INFO] ConstrainPressure: 0.002 [ms]
[INFO] MatrixAssemblyPII: 1.673 [ms]
GAMG:  Solving for p, Initial residual = 0.16549, Final residual = 8.61563e-05, No Iterations 17
[INFO] SolveP: 83.228 [ms]
time step continuity errors : sum local = 1.35077e-08, global = -4.95543e-21, cumulative = -3.15315e-20
[INFO] ContinuityError: 0.642 [ms]
[INFO] CorrectBoundary: 0.044 [ms]
[INFO] PISOStep: 95.175 [ms]
[INFO] TimeStep: 243.761 [ms]
ExecutionTime = 2.01 s  ClockTime = 2 s

Time = 0.0035

Courant Number mean: 0.051379 max: 0.466725
[INFO] MatrixAssemblyU: 4.22 [ms]
DILUPBiCGStab:  Solving for Ux, Initial residual = 0.0146495, Final residual = 7.21975e-05, No Iterations 5
DILUPBiCGStab:  Solving for Uy, Initial residual = 0.0317705, Final residual = 0.000141641, No Iterations 5
DILUPBiCGStab:  Solving for Uz, Initial residual = 0.0760963, Final residual = 0.000446754, No Iterations 5
[INFO] MomentumPredictor: 44.142 [ms]
[INFO] MatrixAssemblyPI: 5.036 [ms]
[INFO] AdjustPhi: 1.576 [ms]
[INFO] ConstrainPressure: 0.002 [ms]
[INFO] MatrixAssemblyPII: 1.541 [ms]
GAMG:  Solving for p, Initial residual = 0.140765, Final residual = 9.17103e-05, No Iterations 19
[INFO] SolveP: 94.966 [ms]
time step continuity errors : sum local = 1.36669e-08, global = 2.56473e-21, cumulative = -2.89667e-20
[INFO] ContinuityError: 0.809 [ms]
[INFO] CorrectBoundary: 0.514 [ms]
[INFO] PISOStep: 107.482 [ms]
[INFO] MatrixAssemblyPI: 4.708 [ms]
[INFO] AdjustPhi: 1.484 [ms]
[INFO] ConstrainPressure: 0.002 [ms]
[INFO] MatrixAssemblyPII: 1.632 [ms]
GAMG:  Solving for p, Initial residual = 0.117898, Final residual = 8.72729e-05, No Iterations 19
[INFO] SolveP: 96.039 [ms]
time step continuity errors : sum local = 1.30036e-08, global = -3.45038e-21, cumulative = -3.24171e-20
[INFO] ContinuityError: 0.806 [ms]
[INFO] CorrectBoundary: 0.042 [ms]
[INFO] PISOStep: 107.71 [ms]
[INFO] TimeStep: 264.486 [ms]
ExecutionTime = 2.27 s  ClockTime = 2 s

Time = 0.004

Courant Number mean: 0.0543192 max: 0.468936
[INFO] MatrixAssemblyU: 3.592 [ms]
DILUPBiCGStab:  Solving for Ux, Initial residual = 0.0122995, Final residual = 5.46262e-05, No Iterations 5
DILUPBiCGStab:  Solving for Uy, Initial residual = 0.0265115, Final residual = 8.82013e-05, No Iterations 5
DILUPBiCGStab:  Solving for Uz, Initial residual = 0.0665551, Final residual = 0.000309461, No Iterations 5
[INFO] MomentumPredictor: 40.447 [ms]
[INFO] MatrixAssemblyPI: 5.321 [ms]
[INFO] AdjustPhi: 0.468 [ms]
[INFO] ConstrainPressure: 0.002 [ms]
[INFO] MatrixAssemblyPII: 1.653 [ms]
GAMG:  Solving for p, Initial residual = 0.0925042, Final residual = 8.24775e-05, No Iterations 17
[INFO] SolveP: 82.802 [ms]
time step continuity errors : sum local = 1.20149e-08, global = -1.29604e-20, cumulative = -4.53775e-20
[INFO] ContinuityError: 0.886 [ms]
[INFO] CorrectBoundary: 0.053 [ms]
[INFO] PISOStep: 93.452 [ms]
[INFO] MatrixAssemblyPI: 5.058 [ms]
[INFO] AdjustPhi: 0.368 [ms]
[INFO] ConstrainPressure: 0.002 [ms]
[INFO] MatrixAssemblyPII: 1.607 [ms]
GAMG:  Solving for p, Initial residual = 0.0768003, Final residual = 8.15091e-05, No Iterations 17
[INFO] SolveP: 87.62 [ms]
time step continuity errors : sum local = 1.19418e-08, global = 5.76527e-21, cumulative = -3.96122e-20
[INFO] ContinuityError: 0.918 [ms]
[INFO] CorrectBoundary: 0.281 [ms]
[INFO] PISOStep: 98.24 [ms]
[INFO] TimeStep: 237.413 [ms]
ExecutionTime = 2.51 s  ClockTime = 2 s

Time = 0.0045

Courant Number mean: 0.0568976 max: 0.47064
[INFO] MatrixAssemblyU: 3.743 [ms]
DILUPBiCGStab:  Solving for Ux, Initial residual = 0.010542, Final residual = 4.2624e-05, No Iterations 5
DILUPBiCGStab:  Solving for Uy, Initial residual = 0.022675, Final residual = 7.57301e-05, No Iterations 5
DILUPBiCGStab:  Solving for Uz, Initial residual = 0.0549385, Final residual = 0.000234741, No Iterations 5
[INFO] MomentumPredictor: 44.36 [ms]
[INFO] MatrixAssemblyPI: 5.33 [ms]
[INFO] AdjustPhi: 1.28 [ms]
[INFO] ConstrainPressure: 0.002 [ms]
[INFO] MatrixAssemblyPII: 1.654 [ms]
GAMG:  Solving for p, Initial residual = 0.0681183, Final residual = 9.34869e-05, No Iterations 18
[INFO] SolveP: 90.442 [ms]
time step continuity errors : sum local = 1.3459e-08, global = -5.64551e-21, cumulative = -4.52577e-20
[INFO] ContinuityError: 1.105 [ms]
[INFO] CorrectBoundary: 0.258 [ms]
[INFO] PISOStep: 102.612 [ms]
[INFO] MatrixAssemblyPI: 4.785 [ms]
[INFO] AdjustPhi: 0.774 [ms]
[INFO] ConstrainPressure: 0.001 [ms]
[INFO] MatrixAssemblyPII: 1.599 [ms]
GAMG:  Solving for p, Initial residual = 0.05702, Final residual = 8.86703e-05, No Iterations 18
[INFO] SolveP: 87.227 [ms]
time step continuity errors : sum local = 1.27519e-08, global = -1.65736e-21, cumulative = -4.69151e-20
[INFO] ContinuityError: 0.689 [ms]
[INFO] CorrectBoundary: 0.063 [ms]
[INFO] PISOStep: 97.385 [ms]
[INFO] TimeStep: 249.237 [ms]
ExecutionTime = 2.76 s  ClockTime = 2 s

Time = 0.005

Courant Number mean: 0.0591941 max: 0.472035
[INFO] MatrixAssemblyU: 3.793 [ms]
DILUPBiCGStab:  Solving for Ux, Initial residual = 0.00923116, Final residual = 3.56562e-05, No Iterations 5
DILUPBiCGStab:  Solving for Uy, Initial residual = 0.0197242, Final residual = 5.86976e-05, No Iterations 5
DILUPBiCGStab:  Solving for Uz, Initial residual = 0.0498951, Final residual = 0.000196144, No Iterations 5
[INFO] MomentumPredictor: 41.864 [ms]
[INFO] MatrixAssemblyPI: 5.473 [ms]
[INFO] AdjustPhi: 0.692 [ms]
[INFO] ConstrainPressure: 0.002 [ms]
[INFO] MatrixAssemblyPII: 1.684 [ms]
GAMG:  Solving for p, Initial residual = 0.0467577, Final residual = 9.81211e-05, No Iterations 18
[INFO] SolveP: 95.554 [ms]
time step continuity errors : sum local = 1.39647e-08, global = -6.14957e-22, cumulative = -4.753e-20
[INFO] ContinuityError: 0.965 [ms]
[INFO] CorrectBoundary: 0.415 [ms]
[INFO] PISOStep: 106.984 [ms]
[INFO] MatrixAssemblyPI: 5.048 [ms]
[INFO] AdjustPhi: 1.093 [ms]
[INFO] ConstrainPressure: 0.002 [ms]
[INFO] MatrixAssemblyPII: 1.585 [ms]
GAMG:  Solving for p, Initial residual = 0.0397012, Final residual = 8.51032e-05, No Iterations 17
[INFO] SolveP: 82.143 [ms]
time step continuity errors : sum local = 1.21064e-08, global = -4.08053e-21, cumulative = -5.16106e-20
[INFO] ContinuityError: 0.688 [ms]
[INFO] CorrectBoundary: 0.059 [ms]
[INFO] PISOStep: 92.877 [ms]
[INFO] TimeStep: 246.445 [ms]
ExecutionTime = 3 s  ClockTime = 3 s

Time = 0.0055

Courant Number mean: 0.061255 max: 0.473186
[INFO] MatrixAssemblyU: 3.514 [ms]
DILUPBiCGStab:  Solving for Ux, Initial residual = 0.00814662, Final residual = 2.9832e-05, No Iterations 5
DILUPBiCGStab:  Solving for Uy, Initial residual = 0.0174479, Final residual = 5.23521e-05, No Iterations 5
DILUPBiCGStab:  Solving for Uz, Initial residual = 0.0452996, Final residual = 0.000175042, No Iterations 5
[INFO] MomentumPredictor: 40.706 [ms]
[INFO] MatrixAssemblyPI: 5.353 [ms]
[INFO] AdjustPhi: 0.406 [ms]
[INFO] ConstrainPressure: 0.002 [ms]
[INFO] MatrixAssemblyPII: 1.64 [ms]
GAMG:  Solving for p, Initial residual = 0.0371276, Final residual = 8.00576e-05, No Iterations 18
[INFO] SolveP: 88.347 [ms]
time step continuity errors : sum local = 1.13235e-08, global = 2.22643e-21, cumulative = -4.93841e-20
[INFO] ContinuityError: 0.869 [ms]
[INFO] CorrectBoundary: 0.046 [ms]
[INFO] PISOStep: 99.706 [ms]
[INFO] MatrixAssemblyPI: 5.389 [ms]
[INFO] AdjustPhi: 0.177 [ms]
[INFO] ConstrainPressure: 0.002 [ms]
[INFO] MatrixAssemblyPII: 1.937 [ms]
GAMG:  Solving for p, Initial residual = 0.0317826, Final residual = 9.77723e-05, No Iterations 17
[INFO] SolveP: 88.649 [ms]
time step continuity errors : sum local = 1.39114e-08, global = 1.86152e-21, cumulative = -4.75226e-20
[INFO] ContinuityError: 0.958 [ms]
[INFO] CorrectBoundary: 0.587 [ms]
[INFO] PISOStep: 99.71 [ms]
[INFO] TimeStep: 244.552 [ms]
ExecutionTime = 3.24 s  ClockTime = 3 s

Time = 0.006

Courant Number mean: 0.0631276 max: 0.474166
[INFO] MatrixAssemblyU: 3.097 [ms]
DILUPBiCGStab:  Solving for Ux, Initial residual = 0.00729596, Final residual = 2.60982e-05, No Iterations 5
DILUPBiCGStab:  Solving for Uy, Initial residual = 0.0155732, Final residual = 4.55678e-05, No Iterations 5
DILUPBiCGStab:  Solving for Uz, Initial residual = 0.0401719, Final residual = 0.000150704, No Iterations 5
[INFO] MomentumPredictor: 41.051 [ms]
[INFO] MatrixAssemblyPI: 5.478 [ms]
[INFO] AdjustPhi: 0.312 [ms]
[INFO] ConstrainPressure: 0.002 [ms]
[INFO] MatrixAssemblyPII: 1.657 [ms]
GAMG:  Solving for p, Initial residual = 0.0275001, Final residual = 9.47112e-05, No Iterations 18
[INFO] SolveP: 87.358 [ms]
time step continuity errors : sum local = 1.33605e-08, global = -9.95982e-21, cumulative = -5.74824e-20
[INFO] ContinuityError: 0.868 [ms]
[INFO] CorrectBoundary: 0.066 [ms]
[INFO] PISOStep: 98.012 [ms]
[INFO] MatrixAssemblyPI: 5.03 [ms]
[INFO] AdjustPhi: 0.373 [ms]
[INFO] ConstrainPressure: 0.003 [ms]
[INFO] MatrixAssemblyPII: 1.663 [ms]
GAMG:  Solving for p, Initial residual = 0.0241625, Final residual = 9.76619e-05, No Iterations 17
[INFO] SolveP: 82.235 [ms]
time step continuity errors : sum local = 1.38419e-08, global = 4.28273e-22, cumulative = -5.70542e-20
[INFO] ContinuityError: 0.673 [ms]
[INFO] CorrectBoundary: 0.064 [ms]
[INFO] PISOStep: 92.118 [ms]
[INFO] TimeStep: 235.449 [ms]
ExecutionTime = 3.48 s  ClockTime = 3 s

Time = 0.0065

Courant Number mean: 0.0648324 max: 0.475002
[INFO] MatrixAssemblyU: 3.553 [ms]
DILUPBiCGStab:  Solving for Ux, Initial residual = 0.00656279, Final residual = 2.28424e-05, No Iterations 5
DILUPBiCGStab:  Solving for Uy, Initial residual = 0.0140503, Final residual = 4.09489e-05, No Iterations 5
DILUPBiCGStab:  Solving for Uz, Initial residual = 0.0374705, Final residual = 0.000140548, No Iterations 5
[INFO] MomentumPredictor: 40.457 [ms]
[INFO] MatrixAssemblyPI: 5.391 [ms]
[INFO] AdjustPhi: 0.356 [ms]
[INFO] ConstrainPressure: 0.003 [ms]
[INFO] MatrixAssemblyPII: 1.678 [ms]
GAMG:  Solving for p, Initial residual = 0.0233163, Final residual = 9.22319e-05, No Iterations 18
[INFO] SolveP: 87.592 [ms]
time step continuity errors : sum local = 1.30104e-08, global = -3.01306e-21, cumulative = -6.00672e-20
[INFO] ContinuityError: 0.676 [ms]
[INFO] CorrectBoundary: 0.057 [ms]
[INFO] PISOStep: 98.047 [ms]
[INFO] MatrixAssemblyPI: 5.038 [ms]
[INFO] AdjustPhi: 0.401 [ms]
[INFO] ConstrainPressure: 0.002 [ms]
[INFO] MatrixAssemblyPII: 1.644 [ms]
GAMG:  Solving for p, Initial residual = 0.0206878, Final residual = 8.71975e-05, No Iterations 17
[INFO] SolveP: 82.286 [ms]
time step continuity errors : sum local = 1.2344e-08, global = -3.16919e-21, cumulative = -6.32364e-20
[INFO] ContinuityError: 0.691 [ms]
[INFO] CorrectBoundary: 0.071 [ms]
[INFO] PISOStep: 92.249 [ms]
[INFO] TimeStep: 235.238 [ms]
ExecutionTime = 3.71 s  ClockTime = 3 s

Time = 0.007

Courant Number mean: 0.0664008 max: 0.475734
[INFO] MatrixAssemblyU: 3.551 [ms]
DILUPBiCGStab:  Solving for Ux, Initial residual = 0.00596611, Final residual = 2.05307e-05, No Iterations 5
DILUPBiCGStab:  Solving for Uy, Initial residual = 0.0127533, Final residual = 3.68919e-05, No Iterations 5
DILUPBiCGStab:  Solving for Uz, Initial residual = 0.0339303, Final residual = 0.000126626, No Iterations 5
[INFO] MomentumPredictor: 40.495 [ms]
[INFO] MatrixAssemblyPI: 5.359 [ms]
[INFO] AdjustPhi: 0.415 [ms]
[INFO] ConstrainPressure: 0.002 [ms]
[INFO] MatrixAssemblyPII: 1.633 [ms]
GAMG:  Solving for p, Initial residual = 0.0189188, Final residual = 9.34753e-05, No Iterations 17
[INFO] SolveP: 82.421 [ms]
time step continuity errors : sum local = 1.32179e-08, global = 3.95289e-22, cumulative = -6.28411e-20
[INFO] ContinuityError: 0.713 [ms]
[INFO] CorrectBoundary: 0.069 [ms]
[INFO] PISOStep: 92.943 [ms]
[INFO] MatrixAssemblyPI: 5.097 [ms]
[INFO] AdjustPhi: 0.348 [ms]
[INFO] ConstrainPressure: 0.003 [ms]
[INFO] MatrixAssemblyPII: 1.64 [ms]
GAMG:  Solving for p, Initial residual = 0.0171855, Final residual = 8.5955e-05, No Iterations 17
[INFO] SolveP: 82.232 [ms]
time step continuity errors : sum local = 1.2159e-08, global = -8.17844e-21, cumulative = -7.10196e-20
[INFO] ContinuityError: 0.709 [ms]
[INFO] CorrectBoundary: 0.05 [ms]
[INFO] PISOStep: 92.17 [ms]
[INFO] TimeStep: 230.086 [ms]
ExecutionTime = 3.94 s  ClockTime = 4 s

Time = 0.0075

Courant Number mean: 0.0678484 max: 0.476374
[INFO] MatrixAssemblyU: 3.561 [ms]
DILUPBiCGStab:  Solving for Ux, Initial residual = 0.00543863, Final residual = 1.8501e-05, No Iterations 5
DILUPBiCGStab:  Solving for Uy, Initial residual = 0.0116614, Final residual = 3.35335e-05, No Iterations 5
DILUPBiCGStab:  Solving for Uz, Initial residual = 0.031054, Final residual = 0.000114912, No Iterations 5
[INFO] MomentumPredictor: 41.959 [ms]
[INFO] MatrixAssemblyPI: 5.355 [ms]
[INFO] AdjustPhi: 0.729 [ms]
[INFO] ConstrainPressure: 0.002 [ms]
[INFO] MatrixAssemblyPII: 1.65 [ms]
GAMG:  Solving for p, Initial residual = 0.0166441, Final residual = 8.93111e-05, No Iterations 17
[INFO] SolveP: 88.031 [ms]
time step continuity errors : sum local = 1.26119e-08, global = -1.12543e-21, cumulative = -7.2145e-20
[INFO] ContinuityError: 0.902 [ms]
[INFO] CorrectBoundary: 0.263 [ms]
[INFO] PISOStep: 99.776 [ms]
[INFO] MatrixAssemblyPI: 4.855 [ms]
[INFO] AdjustPhi: 0.68 [ms]
[INFO] ConstrainPressure: 0.001 [ms]
[INFO] MatrixAssemblyPII: 1.587 [ms]
GAMG:  Solving for p, Initial residual = 0.0152247, Final residual = 9.03481e-05, No Iterations 18
[INFO] SolveP: 87.34 [ms]
time step continuity errors : sum local = 1.27307e-08, global = -5.37719e-22, cumulative = -7.26827e-20
[INFO] ContinuityError: 0.685 [ms]
[INFO] CorrectBoundary: 0.072 [ms]
[INFO] PISOStep: 97.493 [ms]
[INFO] TimeStep: 243.694 [ms]
ExecutionTime = 4.18 s  ClockTime = 4 s

Time = 0.008

Courant Number mean: 0.0691861 max: 0.476944
[INFO] MatrixAssemblyU: 3.7 [ms]
DILUPBiCGStab:  Solving for Ux, Initial residual = 0.00499608, Final residual = 1.69116e-05, No Iterations 5
DILUPBiCGStab:  Solving for Uy, Initial residual = 0.0107096, Final residual = 3.06871e-05, No Iterations 5
DILUPBiCGStab:  Solving for Uz, Initial residual = 0.0291616, Final residual = 0.000108429, No Iterations 5
[INFO] MomentumPredictor: 40.407 [ms]
[INFO] MatrixAssemblyPI: 5.369 [ms]
[INFO] AdjustPhi: 0.343 [ms]
[INFO] ConstrainPressure: 0.003 [ms]
[INFO] MatrixAssemblyPII: 1.65 [ms]
GAMG:  Solving for p, Initial residual = 0.0148734, Final residual = 7.96658e-05, No Iterations 19
[INFO] SolveP: 98.795 [ms]
time step continuity errors : sum local = 1.12089e-08, global = -2.55578e-21, cumulative = -7.52385e-20
[INFO] ContinuityError: 0.895 [ms]
[INFO] CorrectBoundary: 0.476 [ms]
[INFO] PISOStep: 109.516 [ms]
[INFO] MatrixAssemblyPI: 5.299 [ms]
[INFO] AdjustPhi: 1.04 [ms]
[INFO] ConstrainPressure: 0.002 [ms]
[INFO] MatrixAssemblyPII: 1.581 [ms]
GAMG:  Solving for p, Initial residual = 0.0138128, Final residual = 9.55375e-05, No Iterations 18
[INFO] SolveP: 88.13 [ms]
time step continuity errors : sum local = 1.34949e-08, global = -3.99477e-21, cumulative = -7.92333e-20
[INFO] ContinuityError: 0.818 [ms]
[INFO] CorrectBoundary: 0.046 [ms]
[INFO] PISOStep: 100.455 [ms]
[INFO] TimeStep: 255.226 [ms]
ExecutionTime = 4.44 s  ClockTime = 4 s

Time = 0.0085

Courant Number mean: 0.0704321 max: 0.477454
[INFO] MatrixAssemblyU: 3.786 [ms]
DILUPBiCGStab:  Solving for Ux, Initial residual = 0.00459926, Final residual = 1.55016e-05, No Iterations 5
DILUPBiCGStab:  Solving for Uy, Initial residual = 0.00988721, Final residual = 2.81956e-05, No Iterations 5
DILUPBiCGStab:  Solving for Uz, Initial residual = 0.0274489, Final residual = 0.000102916, No Iterations 5
[INFO] MomentumPredictor: 40.453 [ms]
[INFO] MatrixAssemblyPI: 5.397 [ms]
[INFO] AdjustPhi: 0.328 [ms]
[INFO] ConstrainPressure: 0.003 [ms]
[INFO] MatrixAssemblyPII: 1.691 [ms]
GAMG:  Solving for p, Initial residual = 0.0135429, Final residual = 8.45794e-05, No Iterations 18
[INFO] SolveP: 91.44 [ms]
time step continuity errors : sum local = 1.1898e-08, global = 3.45425e-21, cumulative = -7.5779e-20
[INFO] ContinuityError: 1.043 [ms]
[INFO] CorrectBoundary: 0.875 [ms]
[INFO] PISOStep: 102.8 [ms]
[INFO] MatrixAssemblyPI: 6.451 [ms]
[INFO] AdjustPhi: 0.193 [ms]
[INFO] ConstrainPressure: 0.002 [ms]
[INFO] MatrixAssemblyPII: 2.014 [ms]
GAMG:  Solving for p, Initial residual = 0.0126211, Final residual = 9.70265e-05, No Iterations 14
[INFO] SolveP: 73.072 [ms]
time step continuity errors : sum local = 1.36474e-08, global = -1.42368e-21, cumulative = -7.72027e-20
[INFO] ContinuityError: 0.919 [ms]
[INFO] CorrectBoundary: 0.205 [ms]
[INFO] PISOStep: 84.959 [ms]
[INFO] TimeStep: 233.363 [ms]
ExecutionTime = 4.67 s  ClockTime = 4 s

Time = 0.009

Courant Number mean: 0.0715957 max: 0.477912
[INFO] MatrixAssemblyU: 2.887 [ms]
DILUPBiCGStab:  Solving for Ux, Initial residual = 0.00425935, Final residual = 1.43159e-05, No Iterations 5
DILUPBiCGStab:  Solving for Uy, Initial residual = 0.0091587, Final residual = 2.60588e-05, No Iterations 5
DILUPBiCGStab:  Solving for Uz, Initial residual = 0.0260728, Final residual = 9.84764e-05, No Iterations 5
[INFO] MomentumPredictor: 42.821 [ms]
[INFO] MatrixAssemblyPI: 5.282 [ms]
[INFO] AdjustPhi: 1.224 [ms]
[INFO] ConstrainPressure: 0.002 [ms]
[INFO] MatrixAssemblyPII: 1.742 [ms]
GAMG:  Solving for p, Initial residual = 0.0128423, Final residual = 8.26288e-05, No Iterations 19
[INFO] SolveP: 94.068 [ms]
time step continuity errors : sum local = 1.16626e-08, global = -5.58693e-21, cumulative = -8.27896e-20
[INFO] ContinuityError: 1 [ms]
[INFO] CorrectBoundary: 0.057 [ms]
[INFO] PISOStep: 105.676 [ms]
[INFO] MatrixAssemblyPI: 5.319 [ms]
[INFO] AdjustPhi: 1.18 [ms]
[INFO] ConstrainPressure: 0.002 [ms]
[INFO] MatrixAssemblyPII: 1.653 [ms]
GAMG:  Solving for p, Initial residual = 0.0120468, Final residual = 8.97071e-05, No Iterations 18
[INFO] SolveP: 91.348 [ms]
time step continuity errors : sum local = 1.26374e-08, global = -6.33496e-21, cumulative = -8.91246e-20
[INFO] ContinuityError: 0.828 [ms]
[INFO] CorrectBoundary: 0.05 [ms]
[INFO] PISOStep: 102.6 [ms]
[INFO] TimeStep: 255.184 [ms]
ExecutionTime = 4.93 s  ClockTime = 5 s

Time = 0.0095

Courant Number mean: 0.0726829 max: 0.478327
[INFO] MatrixAssemblyU: 3.862 [ms]
DILUPBiCGStab:  Solving for Ux, Initial residual = 0.00395002, Final residual = 1.32675e-05, No Iterations 5
DILUPBiCGStab:  Solving for Uy, Initial residual = 0.00851821, Final residual = 2.41556e-05, No Iterations 5
DILUPBiCGStab:  Solving for Uz, Initial residual = 0.0244343, Final residual = 9.30408e-05, No Iterations 5
[INFO] MomentumPredictor: 40.507 [ms]
[INFO] MatrixAssemblyPI: 5.344 [ms]
[INFO] AdjustPhi: 0.379 [ms]
[INFO] ConstrainPressure: 0.002 [ms]
[INFO] MatrixAssemblyPII: 1.646 [ms]
GAMG:  Solving for p, Initial residual = 0.0117627, Final residual = 8.11762e-05, No Iterations 15
[INFO] SolveP: 72.781 [ms]
time step continuity errors : sum local = 1.14708e-08, global = 3.18651e-21, cumulative = -8.59381e-20
[INFO] ContinuityError: 0.887 [ms]
[INFO] CorrectBoundary: 0.299 [ms]
[INFO] PISOStep: 83.452 [ms]
[INFO] MatrixAssemblyPI: 5.036 [ms]
[INFO] AdjustPhi: 0.339 [ms]
[INFO] ConstrainPressure: 0.002 [ms]
[INFO] MatrixAssemblyPII: 1.622 [ms]
GAMG:  Solving for p, Initial residual = 0.0110731, Final residual = 8.23209e-05, No Iterations 18
[INFO] SolveP: 89.651 [ms]
time step continuity errors : sum local = 1.15939e-08, global = -3.64745e-21, cumulative = -8.95855e-20
[INFO] ContinuityError: 0.889 [ms]
[INFO] CorrectBoundary: 0.259 [ms]
[INFO] PISOStep: 100.39 [ms]
[INFO] TimeStep: 229.534 [ms]
ExecutionTime = 5.15 s  ClockTime = 5 s

Time = 0.01

Courant Number mean: 0.0737005 max: 0.478704
[INFO] MatrixAssemblyU: 3.746 [ms]
DILUPBiCGStab:  Solving for Ux, Initial residual = 0.00368084, Final residual = 1.23312e-05, No Iterations 5
DILUPBiCGStab:  Solving for Uy, Initial residual = 0.00794218, Final residual = 2.24811e-05, No Iterations 5
DILUPBiCGStab:  Solving for Uz, Initial residual = 0.0223933, Final residual = 8.50041e-05, No Iterations 5
[INFO] MomentumPredictor: 42.003 [ms]
[INFO] MatrixAssemblyPI: 5.2 [ms]
[INFO] AdjustPhi: 2.405 [ms]
[INFO] ConstrainPressure: 0.002 [ms]
[INFO] MatrixAssemblyPII: 1.67 [ms]
GAMG:  Solving for p, Initial residual = 0.0109821, Final residual = 8.98002e-05, No Iterations 18
[INFO] SolveP: 87.566 [ms]
time step continuity errors : sum local = 1.26864e-08, global = -5.07036e-21, cumulative = -9.46559e-20
[INFO] ContinuityError: 0.895 [ms]
[INFO] CorrectBoundary: 0.059 [ms]
[INFO] PISOStep: 100.114 [ms]
[INFO] MatrixAssemblyPI: 5.051 [ms]
[INFO] AdjustPhi: 0.389 [ms]
[INFO] ConstrainPressure: 0.002 [ms]
[INFO] MatrixAssemblyPII: 1.634 [ms]
GAMG:  Solving for p, Initial residual = 0.0103294, Final residual = 7.47855e-05, No Iterations 16
[INFO] SolveP: 77.635 [ms]
time step continuity errors : sum local = 1.0511e-08, global = -1.04305e-20, cumulative = -1.05086e-19
[INFO] ContinuityError: 0.696 [ms]
[INFO] CorrectBoundary: 0.063 [ms]
[INFO] PISOStep: 87.576 [ms]
[INFO] TimeStep: 234.667 [ms]
ExecutionTime = 5.39 s  ClockTime = 5 s

End

Finalising parallel run
