/*---------------------------------------------------------------------------*\
| =========                 |                                                 |
| \\      /  F ield         | OpenFOAM: The Open Source CFD Toolbox           |
|  \\    /   O peration     | Version:  2312                                  |
|   \\  /    A nd           | Website:  www.openfoam.com                      |
|    \\/     M anipulation  |                                                 |
\*---------------------------------------------------------------------------*/
Build  : a46b310f-20240104 OPENFOAM=2312 version=v2312
Arch   : "LSB;label=32;scalar=64"
Exec   : decomposePar -force
Date   : Feb 16 2024
Time   : 21:50:30
Host   : i20r02c03s10
PID    : 16670
--> FOAM Warning : 
    From Foam::fileName Foam::cwd_L()
    in file POSIX.C at line 552
    PWD is not the cwd() - reverting to physical description
I/O    : uncollated
--> FOAM Warning : 
    From Foam::fileName Foam::cwd_L()
    in file POSIX.C at line 552
    PWD is not the cwd() - reverting to physical description
Case   : /hppfs/scratch/0B/di35yan/lidDriven3D/workspace/852f0c967e5469fb0bf53f93ea03d76b/case
nProcs : 1
trapFpe: Floating point exception trapping enabled (FOAM_SIGFPE).
fileModificationChecking : Monitoring run-time modified files using timeStampMaster (fileModificationSkew 5, maxFileModificationPolls 20)
allowSystemOperations : Allowing user-supplied system call operations

// * * * * * * * * * * * * * * * * * * * * * * * * * * * * * * * * * * * * * //
Create time

--> FOAM Warning : 
    From void* Foam::dlLibraryTable::openLibrary(const Foam::fileName&, bool)
    in file db/dynamicLibrary/dlLibraryTable/dlLibraryTable.C at line 188
    Could not load "libpetscFoam.so"
libpetscFoam.so: cannot open shared object file: No such file or directory


Decomposing mesh

Create mesh

Calculating distribution of cells
Decomposition method simple [448] (region region0)

Finished decomposition in 84.75 s

Calculating original mesh data

Distributing cells to processors

Distributing faces to processors

Distributing points to processors

Constructing processor meshes

Processor 0
    Number of cells = 281405
    Number of points = 296255
    Number of faces shared with processor 1 = 4451
    Number of faces shared with processor 8 = 2268
    Number of faces shared with processor 32 = 7969
    Number of processor patches = 3
    Number of processor faces = 14688
    Number of boundary faces = 14562

Processor 1
    Number of cells = 275001
    Number of points = 289658
    Number of faces shared with processor 0 = 4451
    Number of faces shared with processor 2 = 4420
    Number of faces shared with processor 9 = 2232
    Number of faces shared with processor 33 = 7843
    Number of processor patches = 4
    Number of processor faces = 18946
    Number of boundary faces = 9920

Processor 2
    Number of cells = 277446
    Number of points = 292234
    Number of faces shared with processor 1 = 4420
    Number of faces shared with processor 3 = 4388
    Number of faces shared with processor 10 = 2268
    Number of faces shared with processor 34 = 7970
    Number of processor patches = 4
    Number of processor faces = 19046
    Number of boundary faces = 10080

Processor 3
    Number of cells = 271419
    Number of points = 285976
    Number of faces shared with processor 2 = 4388
    Number of faces shared with processor 4 = 4375
    Number of faces shared with processor 11 = 2195
    Number of faces shared with processor 35 = 7788
    Number of processor patches = 4
    Number of processor faces = 18746
    Number of boundary faces = 9920

Processor 4
    Number of cells = 275625
    Number of points = 290304
    Number of faces shared with processor 3 = 4375
    Number of faces shared with processor 5 = 4375
    Number of faces shared with processor 12 = 2205
    Number of faces shared with processor 36 = 7875
    Number of processor patches = 4
    Number of processor faces = 18830
    Number of boundary faces = 10080

Processor 5
    Number of cells = 271250
    Number of points = 285768
    Number of faces shared with processor 4 = 4375
    Number of faces shared with processor 6 = 4375
    Number of faces shared with processor 13 = 2170
    Number of faces shared with processor 37 = 7750
    Number of processor patches = 4
    Number of processor faces = 18670
    Number of boundary faces = 9920

Processor 6
    Number of cells = 275625
    Number of points = 290304
    Number of faces shared with processor 5 = 4375
    Number of faces shared with processor 7 = 4375
    Number of faces shared with processor 14 = 2205
    Number of faces shared with processor 38 = 7875
    Number of processor patches = 4
    Number of processor faces = 18830
    Number of boundary faces = 10080

Processor 7
    Number of cells = 271250
    Number of points = 285768
    Number of faces shared with processor 6 = 4375
    Number of faces shared with processor 15 = 2170
    Number of faces shared with processor 39 = 7750
    Number of processor patches = 3
    Number of processor faces = 14295
    Number of boundary faces = 14295

Processor 8
    Number of cells = 283500
    Number of points = 298368
    Number of faces shared with processor 0 = 2268
    Number of faces shared with processor 9 = 4500
    Number of faces shared with processor 16 = 2268
    Number of faces shared with processor 40 = 7875
    Number of processor patches = 4
    Number of processor faces = 16911
    Number of boundary faces = 12375

Processor 9
    Number of cells = 279000
    Number of points = 293706
    Number of faces shared with processor 1 = 2232
    Number of faces shared with processor 8 = 4500
    Number of faces shared with processor 10 = 4500
    Number of faces shared with processor 17 = 2232
    Number of faces shared with processor 41 = 7750
    Number of processor patches = 5
    Number of processor faces = 21214
    Number of boundary faces = 7750

Processor 10
    Number of cells = 283500
    Number of points = 298368
    Number of faces shared with processor 2 = 2268
    Number of faces shared with processor 9 = 4500
    Number of faces shared with processor 11 = 4500
    Number of faces shared with processor 18 = 2268
    Number of faces shared with processor 42 = 7875
    Number of processor patches = 5
    Number of processor faces = 21411
    Number of boundary faces = 7875

Processor 11
    Number of cells = 278676
    Number of points = 293382
    Number of faces shared with processor 3 = 2195
    Number of faces shared with processor 10 = 4500
    Number of faces shared with processor 12 = 4482
    Number of faces shared with processor 19 = 2232
    Number of faces shared with processor 35 = 2
    Number of faces shared with processor 43 = 7803
    Number of processor patches = 6
    Number of processor faces = 21214
    Number of boundary faces = 7750

Processor 12
    Number of cells = 281374
    Number of points = 296224
    Number of faces shared with processor 4 = 2205
    Number of faces shared with processor 11 = 4482
    Number of faces shared with processor 13 = 4450
    Number of faces shared with processor 20 = 2268
    Number of faces shared with processor 44 = 7969
    Number of faces shared with processor 45 = 1
    Number of processor patches = 6
    Number of processor faces = 21375
    Number of boundary faces = 7875

Processor 13
    Number of cells = 274970
    Number of points = 289626
    Number of faces shared with processor 5 = 2170
    Number of faces shared with processor 12 = 4450
    Number of faces shared with processor 14 = 4419
    Number of faces shared with processor 21 = 2232
    Number of faces shared with processor 45 = 7842
    Number of faces shared with processor 46 = 1
    Number of processor patches = 6
    Number of processor faces = 21114
    Number of boundary faces = 7750

Processor 14
    Number of cells = 277436
    Number of points = 292223
    Number of faces shared with processor 6 = 2205
    Number of faces shared with processor 13 = 4419
    Number of faces shared with processor 15 = 4388
    Number of faces shared with processor 22 = 2268
    Number of faces shared with processor 46 = 7969
    Number of processor patches = 5
    Number of processor faces = 21249
    Number of boundary faces = 7875

Processor 15
    Number of cells = 271419
    Number of points = 285976
    Number of faces shared with processor 7 = 2170
    Number of faces shared with processor 14 = 4388
    Number of faces shared with processor 23 = 2195
    Number of faces shared with processor 47 = 7788
    Number of processor patches = 4
    Number of processor faces = 16541
    Number of boundary faces = 12125

Processor 16
    Number of cells = 283500
    Number of points = 298368
    Number of faces shared with processor 8 = 2268
    Number of faces shared with processor 17 = 4500
    Number of faces shared with processor 24 = 2268
    Number of faces shared with processor 48 = 7875
    Number of processor patches = 4
    Number of processor faces = 16911
    Number of boundary faces = 12375

Processor 17
    Number of cells = 279000
    Number of points = 293706
    Number of faces shared with processor 9 = 2232
    Number of faces shared with processor 16 = 4500
    Number of faces shared with processor 18 = 4500
    Number of faces shared with processor 25 = 2232
    Number of faces shared with processor 49 = 7750
    Number of processor patches = 5
    Number of processor faces = 21214
    Number of boundary faces = 7750

Processor 18
    Number of cells = 283500
    Number of points = 298368
    Number of faces shared with processor 10 = 2268
    Number of faces shared with processor 17 = 4500
    Number of faces shared with processor 19 = 4500
    Number of faces shared with processor 26 = 2268
    Number of faces shared with processor 50 = 7875
    Number of processor patches = 5
    Number of processor faces = 21411
    Number of boundary faces = 7875

Processor 19
    Number of cells = 279000
    Number of points = 293706
    Number of faces shared with processor 11 = 2232
    Number of faces shared with processor 18 = 4500
    Number of faces shared with processor 20 = 4500
    Number of faces shared with processor 27 = 2232
    Number of faces shared with processor 51 = 7750
    Number of processor patches = 5
    Number of processor faces = 21214
    Number of boundary faces = 7750

Processor 20
    Number of cells = 283500
    Number of points = 298368
    Number of faces shared with processor 12 = 2268
    Number of faces shared with processor 19 = 4500
    Number of faces shared with processor 21 = 4500
    Number of faces shared with processor 28 = 2268
    Number of faces shared with processor 52 = 7875
    Number of processor patches = 5
    Number of processor faces = 21411
    Number of boundary faces = 7875

Processor 21
    Number of cells = 279000
    Number of points = 293706
    Number of faces shared with processor 13 = 2232
    Number of faces shared with processor 20 = 4500
    Number of faces shared with processor 22 = 4500
    Number of faces shared with processor 29 = 2232
    Number of faces shared with processor 53 = 7750
    Number of processor patches = 5
    Number of processor faces = 21214
    Number of boundary faces = 7750

Processor 22
    Number of cells = 283500
    Number of points = 298368
    Number of faces shared with processor 14 = 2268
    Number of faces shared with processor 21 = 4500
    Number of faces shared with processor 23 = 4500
    Number of faces shared with processor 30 = 2268
    Number of faces shared with processor 54 = 7875
    Number of processor patches = 5
    Number of processor faces = 21411
    Number of boundary faces = 7875

Processor 23
    Number of cells = 278676
    Number of points = 293382
    Number of faces shared with processor 15 = 2195
    Number of faces shared with processor 22 = 4500
    Number of faces shared with processor 31 = 2232
    Number of faces shared with processor 47 = 2
    Number of faces shared with processor 55 = 7803
    Number of processor patches = 5
    Number of processor faces = 16732
    Number of boundary faces = 12232

Processor 24
    Number of cells = 282870
    Number of points = 297738
    Number of faces shared with processor 16 = 2268
    Number of faces shared with processor 25 = 4570
    Number of faces shared with processor 56 = 7839
    Number of faces shared with processor 57 = 1
    Number of processor patches = 4
    Number of processor faces = 14678
    Number of boundary faces = 14608

Processor 25
    Number of cells = 279630
    Number of points = 294407
    Number of faces shared with processor 17 = 2232
    Number of faces shared with processor 24 = 4570
    Number of faces shared with processor 26 = 4500
    Number of faces shared with processor 57 = 7785
    Number of processor patches = 4
    Number of processor faces = 19087
    Number of boundary faces = 10017

Processor 26
    Number of cells = 282870
    Number of points = 297738
    Number of faces shared with processor 18 = 2268
    Number of faces shared with processor 25 = 4500
    Number of faces shared with processor 27 = 4570
    Number of faces shared with processor 58 = 7839
    Number of faces shared with processor 59 = 1
    Number of processor patches = 5
    Number of processor faces = 19178
    Number of boundary faces = 10108

Processor 27
    Number of cells = 279630
    Number of points = 294407
    Number of faces shared with processor 19 = 2232
    Number of faces shared with processor 26 = 4570
    Number of faces shared with processor 28 = 4500
    Number of faces shared with processor 59 = 7785
    Number of processor patches = 4
    Number of processor faces = 19087
    Number of boundary faces = 10017

Processor 28
    Number of cells = 282870
    Number of points = 297738
    Number of faces shared with processor 20 = 2268
    Number of faces shared with processor 27 = 4500
    Number of faces shared with processor 29 = 4570
    Number of faces shared with processor 60 = 7839
    Number of faces shared with processor 61 = 1
    Number of processor patches = 5
    Number of processor faces = 19178
    Number of boundary faces = 10108

Processor 29
    Number of cells = 279630
    Number of points = 294407
    Number of faces shared with processor 21 = 2232
    Number of faces shared with processor 28 = 4570
    Number of faces shared with processor 30 = 4500
    Number of faces shared with processor 61 = 7785
    Number of processor patches = 4
    Number of processor faces = 19087
    Number of boundary faces = 10017

Processor 30
    Number of cells = 282870
    Number of points = 297738
    Number of faces shared with processor 22 = 2268
    Number of faces shared with processor 29 = 4500
    Number of faces shared with processor 31 = 4570
    Number of faces shared with processor 62 = 7839
    Number of faces shared with processor 63 = 1
    Number of processor patches = 5
    Number of processor faces = 19178
    Number of boundary faces = 10108

Processor 31
    Number of cells = 279630
    Number of points = 294407
    Number of faces shared with processor 23 = 2232
    Number of faces shared with processor 30 = 4570
    Number of faces shared with processor 63 = 7785
    Number of processor patches = 3
    Number of processor faces = 14587
    Number of boundary faces = 14517

Processor 32
    Number of cells = 277720
    Number of points = 292512
    Number of faces shared with processor 0 = 7969
    Number of faces shared with processor 33 = 4424
    Number of faces shared with processor 40 = 2205
    Number of faces shared with processor 64 = 7875
    Number of processor patches = 4
    Number of processor faces = 22473
    Number of boundary faces = 6661

Processor 33
    Number of cells = 275249
    Number of points = 289910
    Number of faces shared with processor 1 = 7843
    Number of faces shared with processor 32 = 4424
    Number of faces shared with processor 34 = 4455
    Number of faces shared with processor 41 = 2170
    Number of faces shared with processor 65 = 7750
    Number of processor patches = 5
    Number of processor faces = 26642
    Number of boundary faces = 2232

Processor 34
    Number of cells = 281679
    Number of points = 296534
    Number of faces shared with processor 2 = 7970
    Number of faces shared with processor 33 = 4455
    Number of faces shared with processor 35 = 4487
    Number of faces shared with processor 42 = 2205
    Number of faces shared with processor 66 = 7875
    Number of processor patches = 5
    Number of processor faces = 26992
    Number of boundary faces = 2268

Processor 35
    Number of cells = 278831
    Number of points = 293537
    Number of faces shared with processor 3 = 7788
    Number of faces shared with processor 11 = 2
    Number of faces shared with processor 34 = 4487
    Number of faces shared with processor 36 = 4500
    Number of faces shared with processor 43 = 2205
    Number of faces shared with processor 67 = 7750
    Number of processor patches = 6
    Number of processor faces = 26732
    Number of boundary faces = 2232

Processor 36
    Number of cells = 283500
    Number of points = 298368
    Number of faces shared with processor 4 = 7875
    Number of faces shared with processor 35 = 4500
    Number of faces shared with processor 37 = 4500
    Number of faces shared with processor 44 = 2268
    Number of faces shared with processor 68 = 7875
    Number of processor patches = 5
    Number of processor faces = 27018
    Number of boundary faces = 2268

Processor 37
    Number of cells = 279000
    Number of points = 293706
    Number of faces shared with processor 5 = 7750
    Number of faces shared with processor 36 = 4500
    Number of faces shared with processor 38 = 4500
    Number of faces shared with processor 45 = 2232
    Number of faces shared with processor 69 = 7750
    Number of processor patches = 5
    Number of processor faces = 26732
    Number of boundary faces = 2232

Processor 38
    Number of cells = 283500
    Number of points = 298368
    Number of faces shared with processor 6 = 7875
    Number of faces shared with processor 37 = 4500
    Number of faces shared with processor 39 = 4500
    Number of faces shared with processor 46 = 2268
    Number of faces shared with processor 70 = 7875
    Number of processor patches = 5
    Number of processor faces = 27018
    Number of boundary faces = 2268

Processor 39
    Number of cells = 279000
    Number of points = 293706
    Number of faces shared with processor 7 = 7750
    Number of faces shared with processor 38 = 4500
    Number of faces shared with processor 47 = 2232
    Number of faces shared with processor 71 = 7750
    Number of processor patches = 4
    Number of processor faces = 22232
    Number of boundary faces = 6732

Processor 40
    Number of cells = 280271
    Number of points = 295103
    Number of faces shared with processor 8 = 7875
    Number of faces shared with processor 32 = 2205
    Number of faces shared with processor 41 = 4433
    Number of faces shared with processor 48 = 2268
    Number of faces shared with processor 72 = 7969
    Number of processor patches = 5
    Number of processor faces = 24750
    Number of boundary faces = 4464

Processor 41
    Number of cells = 273885
    Number of points = 288524
    Number of faces shared with processor 9 = 7750
    Number of faces shared with processor 33 = 2170
    Number of faces shared with processor 40 = 4433
    Number of faces shared with processor 42 = 4402
    Number of faces shared with processor 49 = 2232
    Number of faces shared with processor 73 = 7843
    Number of processor patches = 6
    Number of processor faces = 28830
    Number of boundary faces = 0

Processor 42
    Number of cells = 276354
    Number of points = 291114
    Number of faces shared with processor 10 = 7875
    Number of faces shared with processor 34 = 2205
    Number of faces shared with processor 41 = 4402
    Number of faces shared with processor 43 = 4375
    Number of faces shared with processor 50 = 2258
    Number of faces shared with processor 74 = 7955
    Number of processor patches = 6
    Number of processor faces = 29070
    Number of boundary faces = 0

Processor 43
    Number of cells = 271574
    Number of points = 286146
    Number of faces shared with processor 11 = 7803
    Number of faces shared with processor 35 = 2205
    Number of faces shared with processor 42 = 4375
    Number of faces shared with processor 44 = 4393
    Number of faces shared with processor 51 = 2170
    Number of faces shared with processor 75 = 7750
    Number of processor patches = 6
    Number of processor faces = 28696
    Number of boundary faces = 0

Processor 44
    Number of cells = 277751
    Number of points = 292543
    Number of faces shared with processor 12 = 7969
    Number of faces shared with processor 36 = 2268
    Number of faces shared with processor 43 = 4393
    Number of faces shared with processor 45 = 4424
    Number of faces shared with processor 52 = 2205
    Number of faces shared with processor 76 = 7875
    Number of processor patches = 6
    Number of processor faces = 29134
    Number of boundary faces = 0

Processor 45
    Number of cells = 275280
    Number of points = 289941
    Number of faces shared with processor 12 = 1
    Number of faces shared with processor 13 = 7842
    Number of faces shared with processor 37 = 2232
    Number of faces shared with processor 44 = 4424
    Number of faces shared with processor 46 = 4455
    Number of faces shared with processor 53 = 2170
    Number of faces shared with processor 77 = 7750
    Number of processor patches = 7
    Number of processor faces = 28874
    Number of boundary faces = 0

Processor 46
    Number of cells = 281689
    Number of points = 296544
    Number of faces shared with processor 13 = 1
    Number of faces shared with processor 14 = 7969
    Number of faces shared with processor 38 = 2268
    Number of faces shared with processor 45 = 4455
    Number of faces shared with processor 47 = 4487
    Number of faces shared with processor 54 = 2205
    Number of faces shared with processor 78 = 7875
    Number of processor patches = 7
    Number of processor faces = 29260
    Number of boundary faces = 0

Processor 47
    Number of cells = 278831
    Number of points = 293537
    Number of faces shared with processor 15 = 7788
    Number of faces shared with processor 23 = 2
    Number of faces shared with processor 39 = 2232
    Number of faces shared with processor 46 = 4487
    Number of faces shared with processor 55 = 2205
    Number of faces shared with processor 79 = 7750
    Number of processor patches = 6
    Number of processor faces = 24464
    Number of boundary faces = 4500

Processor 48
    Number of cells = 283500
    Number of points = 298368
    Number of faces shared with processor 16 = 7875
    Number of faces shared with processor 40 = 2268
    Number of faces shared with processor 49 = 4500
    Number of faces shared with processor 56 = 2268
    Number of faces shared with processor 80 = 7875
    Number of processor patches = 5
    Number of processor faces = 24786
    Number of boundary faces = 4500

Processor 49
    Number of cells = 279000
    Number of points = 293706
    Number of faces shared with processor 17 = 7750
    Number of faces shared with processor 41 = 2232
    Number of faces shared with processor 48 = 4500
    Number of faces shared with processor 50 = 4500
    Number of faces shared with processor 57 = 2232
    Number of faces shared with processor 81 = 7750
    Number of processor patches = 6
    Number of processor faces = 28964
    Number of boundary faces = 0

Processor 50
    Number of cells = 283480
    Number of points = 298348
    Number of faces shared with processor 18 = 7875
    Number of faces shared with processor 42 = 2258
    Number of faces shared with processor 49 = 4500
    Number of faces shared with processor 51 = 4495
    Number of faces shared with processor 58 = 2268
    Number of faces shared with processor 74 = 2
    Number of faces shared with processor 82 = 7887
    Number of faces shared with processor 83 = 1
    Number of processor patches = 8
    Number of processor faces = 29286
    Number of boundary faces = 0

Processor 51
    Number of cells = 277760
    Number of points = 292461
    Number of faces shared with processor 19 = 7750
    Number of faces shared with processor 43 = 2170
    Number of faces shared with processor 50 = 4495
    Number of faces shared with processor 52 = 4464
    Number of faces shared with processor 59 = 2232
    Number of faces shared with processor 83 = 7842
    Number of faces shared with processor 84 = 1
    Number of processor patches = 7
    Number of processor faces = 28954
    Number of boundary faces = 0

Processor 52
    Number of cells = 280259
    Number of points = 295091
    Number of faces shared with processor 20 = 7875
    Number of faces shared with processor 44 = 2205
    Number of faces shared with processor 51 = 4464
    Number of faces shared with processor 53 = 4432
    Number of faces shared with processor 60 = 2268
    Number of faces shared with processor 84 = 7969
    Number of faces shared with processor 85 = 1
    Number of processor patches = 7
    Number of processor faces = 29214
    Number of boundary faces = 0

Processor 53
    Number of cells = 273854
    Number of points = 288492
    Number of faces shared with processor 21 = 7750
    Number of faces shared with processor 45 = 2170
    Number of faces shared with processor 52 = 4432
    Number of faces shared with processor 54 = 4401
    Number of faces shared with processor 61 = 2232
    Number of faces shared with processor 85 = 7842
    Number of faces shared with processor 86 = 1
    Number of processor patches = 7
    Number of processor faces = 28828
    Number of boundary faces = 0

Processor 54
    Number of cells = 276327
    Number of points = 291085
    Number of faces shared with processor 22 = 7875
    Number of faces shared with processor 46 = 2205
    Number of faces shared with processor 53 = 4401
    Number of faces shared with processor 55 = 4375
    Number of faces shared with processor 62 = 2257
    Number of faces shared with processor 86 = 7953
    Number of processor patches = 6
    Number of processor faces = 29066
    Number of boundary faces = 0

Processor 55
    Number of cells = 271574
    Number of points = 286146
    Number of faces shared with processor 23 = 7803
    Number of faces shared with processor 47 = 2205
    Number of faces shared with processor 54 = 4375
    Number of faces shared with processor 63 = 2170
    Number of faces shared with processor 87 = 7750
    Number of processor patches = 5
    Number of processor faces = 24303
    Number of boundary faces = 4393

Processor 56
    Number of cells = 281574
    Number of points = 296406
    Number of faces shared with processor 24 = 7839
    Number of faces shared with processor 48 = 2268
    Number of faces shared with processor 57 = 4571
    Number of faces shared with processor 88 = 7803
    Number of faces shared with processor 89 = 1
    Number of processor patches = 5
    Number of processor faces = 22482
    Number of boundary faces = 6732

Processor 57
    Number of cells = 280926
    Number of points = 295740
    Number of faces shared with processor 24 = 1
    Number of faces shared with processor 25 = 7785
    Number of faces shared with processor 49 = 2232
    Number of faces shared with processor 56 = 4571
    Number of faces shared with processor 58 = 4500
    Number of faces shared with processor 89 = 7821
    Number of processor patches = 6
    Number of processor faces = 26910
    Number of boundary faces = 2268

Processor 58
    Number of cells = 281574
    Number of points = 296406
    Number of faces shared with processor 26 = 7839
    Number of faces shared with processor 50 = 2268
    Number of faces shared with processor 57 = 4500
    Number of faces shared with processor 59 = 4571
    Number of faces shared with processor 90 = 7803
    Number of faces shared with processor 91 = 1
    Number of processor patches = 6
    Number of processor faces = 26982
    Number of boundary faces = 2232

Processor 59
    Number of cells = 280926
    Number of points = 295740
    Number of faces shared with processor 26 = 1
    Number of faces shared with processor 27 = 7785
    Number of faces shared with processor 51 = 2232
    Number of faces shared with processor 58 = 4571
    Number of faces shared with processor 60 = 4500
    Number of faces shared with processor 91 = 7821
    Number of processor patches = 6
    Number of processor faces = 26910
    Number of boundary faces = 2268

Processor 60
    Number of cells = 281574
    Number of points = 296406
    Number of faces shared with processor 28 = 7839
    Number of faces shared with processor 52 = 2268
    Number of faces shared with processor 59 = 4500
    Number of faces shared with processor 61 = 4571
    Number of faces shared with processor 92 = 7803
    Number of faces shared with processor 93 = 1
    Number of processor patches = 6
    Number of processor faces = 26982
    Number of boundary faces = 2232

Processor 61
    Number of cells = 280926
    Number of points = 295740
    Number of faces shared with processor 28 = 1
    Number of faces shared with processor 29 = 7785
    Number of faces shared with processor 53 = 2232
    Number of faces shared with processor 60 = 4571
    Number of faces shared with processor 62 = 4500
    Number of faces shared with processor 93 = 7821
    Number of processor patches = 6
    Number of processor faces = 26910
    Number of boundary faces = 2268

Processor 62
    Number of cells = 281549
    Number of points = 296381
    Number of faces shared with processor 30 = 7839
    Number of faces shared with processor 54 = 2257
    Number of faces shared with processor 61 = 4500
    Number of faces shared with processor 63 = 4566
    Number of faces shared with processor 86 = 2
    Number of faces shared with processor 94 = 7817
    Number of faces shared with processor 95 = 1
    Number of processor patches = 7
    Number of processor faces = 26982
    Number of boundary faces = 2232

Processor 63
    Number of cells = 279655
    Number of points = 294464
    Number of faces shared with processor 30 = 1
    Number of faces shared with processor 31 = 7785
    Number of faces shared with processor 55 = 2170
    Number of faces shared with processor 62 = 4566
    Number of faces shared with processor 95 = 7914
    Number of processor patches = 5
    Number of processor faces = 22436
    Number of boundary faces = 6732

Processor 64
    Number of cells = 283500
    Number of points = 298368
    Number of faces shared with processor 32 = 7875
    Number of faces shared with processor 65 = 4500
    Number of faces shared with processor 72 = 2268
    Number of faces shared with processor 96 = 7875
    Number of processor patches = 4
    Number of processor faces = 22518
    Number of boundary faces = 6768

Processor 65
    Number of cells = 279000
    Number of points = 293706
    Number of faces shared with processor 33 = 7750
    Number of faces shared with processor 64 = 4500
    Number of faces shared with processor 66 = 4500
    Number of faces shared with processor 73 = 2232
    Number of faces shared with processor 97 = 7750
    Number of processor patches = 5
    Number of processor faces = 26732
    Number of boundary faces = 2232

Processor 66
    Number of cells = 283500
    Number of points = 298368
    Number of faces shared with processor 34 = 7875
    Number of faces shared with processor 65 = 4500
    Number of faces shared with processor 67 = 4500
    Number of faces shared with processor 74 = 2268
    Number of faces shared with processor 98 = 7875
    Number of processor patches = 5
    Number of processor faces = 27018
    Number of boundary faces = 2268

Processor 67
    Number of cells = 279000
    Number of points = 293706
    Number of faces shared with processor 35 = 7750
    Number of faces shared with processor 66 = 4500
    Number of faces shared with processor 68 = 4500
    Number of faces shared with processor 75 = 2232
    Number of faces shared with processor 99 = 7750
    Number of processor patches = 5
    Number of processor faces = 26732
    Number of boundary faces = 2232

Processor 68
    Number of cells = 283500
    Number of points = 298368
    Number of faces shared with processor 36 = 7875
    Number of faces shared with processor 67 = 4500
    Number of faces shared with processor 69 = 4500
    Number of faces shared with processor 76 = 2268
    Number of faces shared with processor 100 = 7875
    Number of processor patches = 5
    Number of processor faces = 27018
    Number of boundary faces = 2268

Processor 69
    Number of cells = 279000
    Number of points = 293706
    Number of faces shared with processor 37 = 7750
    Number of faces shared with processor 68 = 4500
    Number of faces shared with processor 70 = 4500
    Number of faces shared with processor 77 = 2232
    Number of faces shared with processor 101 = 7750
    Number of processor patches = 5
    Number of processor faces = 26732
    Number of boundary faces = 2232

Processor 70
    Number of cells = 282991
    Number of points = 297859
    Number of faces shared with processor 38 = 7875
    Number of faces shared with processor 69 = 4500
    Number of faces shared with processor 71 = 4477
    Number of faces shared with processor 78 = 2268
    Number of faces shared with processor 102 = 7942
    Number of processor patches = 5
    Number of processor faces = 27062
    Number of boundary faces = 2224

Processor 71
    Number of cells = 276613
    Number of points = 291296
    Number of faces shared with processor 39 = 7750
    Number of faces shared with processor 70 = 4477
    Number of faces shared with processor 79 = 2232
    Number of faces shared with processor 103 = 7843
    Number of processor patches = 4
    Number of processor faces = 22302
    Number of boundary faces = 6616

Processor 72
    Number of cells = 278854
    Number of points = 293664
    Number of faces shared with processor 40 = 7969
    Number of faces shared with processor 64 = 2268
    Number of faces shared with processor 73 = 4442
    Number of faces shared with processor 80 = 2205
    Number of faces shared with processor 104 = 7875
    Number of processor patches = 5
    Number of processor faces = 24759
    Number of boundary faces = 4411

Processor 73
    Number of cells = 276365
    Number of points = 291044
    Number of faces shared with processor 41 = 7843
    Number of faces shared with processor 65 = 2232
    Number of faces shared with processor 72 = 4442
    Number of faces shared with processor 74 = 4473
    Number of faces shared with processor 81 = 2170
    Number of faces shared with processor 105 = 7750
    Number of processor patches = 6
    Number of processor faces = 28910
    Number of boundary faces = 0

Processor 74
    Number of cells = 282771
    Number of points = 297639
    Number of faces shared with processor 42 = 7955
    Number of faces shared with processor 50 = 2
    Number of faces shared with processor 66 = 2268
    Number of faces shared with processor 73 = 4473
    Number of faces shared with processor 75 = 4500
    Number of faces shared with processor 82 = 2213
    Number of faces shared with processor 106 = 7875
    Number of processor patches = 7
    Number of processor faces = 29286
    Number of boundary faces = 0

Processor 75
    Number of cells = 279000
    Number of points = 293706
    Number of faces shared with processor 43 = 7750
    Number of faces shared with processor 67 = 2232
    Number of faces shared with processor 74 = 4500
    Number of faces shared with processor 76 = 4500
    Number of faces shared with processor 83 = 2232
    Number of faces shared with processor 107 = 7750
    Number of processor patches = 6
    Number of processor faces = 28964
    Number of boundary faces = 0

Processor 76
    Number of cells = 283500
    Number of points = 298368
    Number of faces shared with processor 44 = 7875
    Number of faces shared with processor 68 = 2268
    Number of faces shared with processor 75 = 4500
    Number of faces shared with processor 77 = 4500
    Number of faces shared with processor 84 = 2268
    Number of faces shared with processor 108 = 7875
    Number of processor patches = 6
    Number of processor faces = 29286
    Number of boundary faces = 0

Processor 77
    Number of cells = 279000
    Number of points = 293706
    Number of faces shared with processor 45 = 7750
    Number of faces shared with processor 69 = 2232
    Number of faces shared with processor 76 = 4500
    Number of faces shared with processor 78 = 4500
    Number of faces shared with processor 85 = 2232
    Number of faces shared with processor 109 = 7750
    Number of processor patches = 6
    Number of processor faces = 28964
    Number of boundary faces = 0

Processor 78
    Number of cells = 283500
    Number of points = 298368
    Number of faces shared with processor 46 = 7875
    Number of faces shared with processor 70 = 2268
    Number of faces shared with processor 77 = 4500
    Number of faces shared with processor 79 = 4500
    Number of faces shared with processor 86 = 2268
    Number of faces shared with processor 110 = 7875
    Number of processor patches = 6
    Number of processor faces = 29286
    Number of boundary faces = 0

Processor 79
    Number of cells = 279000
    Number of points = 293706
    Number of faces shared with processor 47 = 7750
    Number of faces shared with processor 71 = 2232
    Number of faces shared with processor 78 = 4500
    Number of faces shared with processor 87 = 2232
    Number of faces shared with processor 111 = 7750
    Number of processor patches = 5
    Number of processor faces = 24464
    Number of boundary faces = 4500

Processor 80
    Number of cells = 279137
    Number of points = 293951
    Number of faces shared with processor 48 = 7875
    Number of faces shared with processor 72 = 2205
    Number of faces shared with processor 81 = 4415
    Number of faces shared with processor 88 = 2268
    Number of faces shared with processor 112 = 7969
    Number of processor patches = 5
    Number of processor faces = 24732
    Number of boundary faces = 4446

Processor 81
    Number of cells = 272769
    Number of points = 287390
    Number of faces shared with processor 49 = 7750
    Number of faces shared with processor 73 = 2170
    Number of faces shared with processor 80 = 4415
    Number of faces shared with processor 82 = 4384
    Number of faces shared with processor 89 = 2232
    Number of faces shared with processor 113 = 7843
    Number of processor patches = 6
    Number of processor faces = 28794
    Number of boundary faces = 0

Processor 82
    Number of cells = 275726
    Number of points = 290445
    Number of faces shared with processor 50 = 7887
    Number of faces shared with processor 74 = 2213
    Number of faces shared with processor 81 = 4384
    Number of faces shared with processor 83 = 4379
    Number of faces shared with processor 90 = 2222
    Number of faces shared with processor 114 = 7901
    Number of processor patches = 6
    Number of processor faces = 28986
    Number of boundary faces = 0

Processor 83
    Number of cells = 272490
    Number of points = 287106
    Number of faces shared with processor 50 = 1
    Number of faces shared with processor 51 = 7842
    Number of faces shared with processor 75 = 2232
    Number of faces shared with processor 82 = 4379
    Number of faces shared with processor 84 = 4410
    Number of faces shared with processor 91 = 2170
    Number of faces shared with processor 115 = 7750
    Number of processor patches = 7
    Number of processor faces = 28784
    Number of boundary faces = 0

Processor 84
    Number of cells = 278866
    Number of points = 293676
    Number of faces shared with processor 51 = 1
    Number of faces shared with processor 52 = 7969
    Number of faces shared with processor 76 = 2268
    Number of faces shared with processor 83 = 4410
    Number of faces shared with processor 85 = 4442
    Number of faces shared with processor 92 = 2205
    Number of faces shared with processor 116 = 7875
    Number of processor patches = 7
    Number of processor faces = 29170
    Number of boundary faces = 0

Processor 85
    Number of cells = 276396
    Number of points = 291075
    Number of faces shared with processor 52 = 1
    Number of faces shared with processor 53 = 7842
    Number of faces shared with processor 77 = 2232
    Number of faces shared with processor 84 = 4442
    Number of faces shared with processor 86 = 4473
    Number of faces shared with processor 93 = 2170
    Number of faces shared with processor 117 = 7750
    Number of processor patches = 7
    Number of processor faces = 28910
    Number of boundary faces = 0

Processor 86
    Number of cells = 282798
    Number of points = 297666
    Number of faces shared with processor 53 = 1
    Number of faces shared with processor 54 = 7953
    Number of faces shared with processor 62 = 2
    Number of faces shared with processor 78 = 2268
    Number of faces shared with processor 85 = 4473
    Number of faces shared with processor 87 = 4500
    Number of faces shared with processor 94 = 2214
    Number of faces shared with processor 118 = 7875
    Number of processor patches = 8
    Number of processor faces = 29286
    Number of boundary faces = 0

Processor 87
    Number of cells = 279000
    Number of points = 293706
    Number of faces shared with processor 55 = 7750
    Number of faces shared with processor 79 = 2232
    Number of faces shared with processor 86 = 4500
    Number of faces shared with processor 95 = 2232
    Number of faces shared with processor 119 = 7750
    Number of processor patches = 5
    Number of processor faces = 24464
    Number of boundary faces = 4500

Processor 88
    Number of cells = 280278
    Number of points = 295074
    Number of faces shared with processor 56 = 7803
    Number of faces shared with processor 80 = 2268
    Number of faces shared with processor 89 = 4571
    Number of faces shared with processor 120 = 7767
    Number of faces shared with processor 121 = 1
    Number of processor patches = 5
    Number of processor faces = 22410
    Number of boundary faces = 6732

Processor 89
    Number of cells = 282222
    Number of points = 297072
    Number of faces shared with processor 56 = 1
    Number of faces shared with processor 57 = 7821
    Number of faces shared with processor 81 = 2232
    Number of faces shared with processor 88 = 4571
    Number of faces shared with processor 90 = 4500
    Number of faces shared with processor 121 = 7857
    Number of processor patches = 6
    Number of processor faces = 26982
    Number of boundary faces = 2268

Processor 90
    Number of cells = 279776
    Number of points = 294571
    Number of faces shared with processor 58 = 7803
    Number of faces shared with processor 82 = 2222
    Number of faces shared with processor 89 = 4500
    Number of faces shared with processor 91 = 4547
    Number of faces shared with processor 114 = 2
    Number of faces shared with processor 122 = 7833
    Number of faces shared with processor 123 = 1
    Number of processor patches = 7
    Number of processor faces = 26908
    Number of boundary faces = 2232

Processor 91
    Number of cells = 279862
    Number of points = 294689
    Number of faces shared with processor 58 = 1
    Number of faces shared with processor 59 = 7821
    Number of faces shared with processor 83 = 2170
    Number of faces shared with processor 90 = 4547
    Number of faces shared with processor 92 = 4446
    Number of faces shared with processor 123 = 7950
    Number of faces shared with processor 124 = 1
    Number of processor patches = 7
    Number of processor faces = 26936
    Number of boundary faces = 2268

Processor 92
    Number of cells = 275982
    Number of points = 290723
    Number of faces shared with processor 60 = 7803
    Number of faces shared with processor 84 = 2205
    Number of faces shared with processor 91 = 4446
    Number of faces shared with processor 93 = 4484
    Number of faces shared with processor 124 = 7860
    Number of faces shared with processor 125 = 2
    Number of processor patches = 6
    Number of processor faces = 26800
    Number of boundary faces = 2232

Processor 93
    Number of cells = 275924
    Number of points = 290688
    Number of faces shared with processor 60 = 1
    Number of faces shared with processor 61 = 7821
    Number of faces shared with processor 85 = 2170
    Number of faces shared with processor 92 = 4484
    Number of faces shared with processor 94 = 4384
    Number of faces shared with processor 125 = 7950
    Number of processor patches = 6
    Number of processor faces = 26810
    Number of boundary faces = 2268

Processor 94
    Number of cells = 272616
    Number of points = 287265
    Number of faces shared with processor 62 = 7817
    Number of faces shared with processor 86 = 2214
    Number of faces shared with processor 93 = 4384
    Number of faces shared with processor 95 = 4449
    Number of faces shared with processor 126 = 7794
    Number of faces shared with processor 127 = 1
    Number of processor patches = 6
    Number of processor faces = 26659
    Number of boundary faces = 2187

Processor 95
    Number of cells = 275636
    Number of points = 290395
    Number of faces shared with processor 62 = 1
    Number of faces shared with processor 63 = 7914
    Number of faces shared with processor 87 = 2232
    Number of faces shared with processor 94 = 4449
    Number of faces shared with processor 127 = 7856
    Number of processor patches = 5
    Number of processor faces = 22452
    Number of boundary faces = 6616

Processor 96
    Number of cells = 283500
    Number of points = 298368
    Number of faces shared with processor 128 = 7875
    Number of faces shared with processor 64 = 7875
    Number of faces shared with processor 97 = 4500
    Number of faces shared with processor 104 = 2268
    Number of processor patches = 4
    Number of processor faces = 22518
    Number of boundary faces = 6768

Processor 97
    Number of cells = 278919
    Number of points = 293625
    Number of faces shared with processor 129 = 7776
    Number of faces shared with processor 65 = 7750
    Number of faces shared with processor 96 = 4500
    Number of faces shared with processor 98 = 4491
    Number of faces shared with processor 105 = 2232
    Number of processor patches = 5
    Number of processor faces = 26749
    Number of boundary faces = 2215

Processor 98
    Number of cells = 281941
    Number of points = 296800
    Number of faces shared with processor 130 = 7969
    Number of faces shared with processor 131 = 1
    Number of faces shared with processor 66 = 7875
    Number of faces shared with processor 97 = 4491
    Number of faces shared with processor 99 = 4459
    Number of faces shared with processor 106 = 2268
    Number of processor patches = 6
    Number of processor faces = 27063
    Number of boundary faces = 2205

Processor 99
    Number of cells = 275528
    Number of points = 290193
    Number of faces shared with processor 131 = 7842
    Number of faces shared with processor 132 = 1
    Number of faces shared with processor 67 = 7750
    Number of faces shared with processor 98 = 4459
    Number of faces shared with processor 100 = 4428
    Number of faces shared with processor 107 = 2232
    Number of processor patches = 6
    Number of processor faces = 26712
    Number of boundary faces = 2170

Processor 100
    Number of cells = 278003
    Number of points = 292799
    Number of faces shared with processor 132 = 7969
    Number of faces shared with processor 68 = 7875
    Number of faces shared with processor 99 = 4428
    Number of faces shared with processor 101 = 4397
    Number of faces shared with processor 108 = 2268
    Number of processor patches = 5
    Number of processor faces = 26937
    Number of boundary faces = 2205

Processor 101
    Number of cells = 271734
    Number of points = 286318
    Number of faces shared with processor 133 = 7815
    Number of faces shared with processor 69 = 7750
    Number of faces shared with processor 100 = 4397
    Number of faces shared with processor 102 = 4375
    Number of faces shared with processor 109 = 2213
    Number of processor patches = 5
    Number of processor faces = 26550
    Number of boundary faces = 2170

Processor 102
    Number of cells = 276134
    Number of points = 290881
    Number of faces shared with processor 134 = 7875
    Number of faces shared with processor 70 = 7942
    Number of faces shared with processor 101 = 4375
    Number of faces shared with processor 103 = 4398
    Number of faces shared with processor 110 = 2205
    Number of processor patches = 5
    Number of processor faces = 26795
    Number of boundary faces = 2249

Processor 103
    Number of cells = 273637
    Number of points = 288272
    Number of faces shared with processor 135 = 7750
    Number of faces shared with processor 71 = 7843
    Number of faces shared with processor 102 = 4398
    Number of faces shared with processor 111 = 2170
    Number of processor patches = 4
    Number of processor faces = 22161
    Number of boundary faces = 6661

Processor 104
    Number of cells = 283500
    Number of points = 298368
    Number of faces shared with processor 136 = 7875
    Number of faces shared with processor 72 = 7875
    Number of faces shared with processor 96 = 2268
    Number of faces shared with processor 105 = 4500
    Number of faces shared with processor 112 = 2268
    Number of processor patches = 5
    Number of processor faces = 24786
    Number of boundary faces = 4500

Processor 105
    Number of cells = 279000
    Number of points = 293706
    Number of faces shared with processor 137 = 7750
    Number of faces shared with processor 73 = 7750
    Number of faces shared with processor 97 = 2232
    Number of faces shared with processor 104 = 4500
    Number of faces shared with processor 106 = 4500
    Number of faces shared with processor 113 = 2232
    Number of processor patches = 6
    Number of processor faces = 28964
    Number of boundary faces = 0

Processor 106
    Number of cells = 283500
    Number of points = 298368
    Number of faces shared with processor 138 = 7875
    Number of faces shared with processor 74 = 7875
    Number of faces shared with processor 98 = 2268
    Number of faces shared with processor 105 = 4500
    Number of faces shared with processor 107 = 4500
    Number of faces shared with processor 114 = 2268
    Number of processor patches = 6
    Number of processor faces = 29286
    Number of boundary faces = 0

Processor 107
    Number of cells = 279000
    Number of points = 293706
    Number of faces shared with processor 139 = 7750
    Number of faces shared with processor 75 = 7750
    Number of faces shared with processor 99 = 2232
    Number of faces shared with processor 106 = 4500
    Number of faces shared with processor 108 = 4500
    Number of faces shared with processor 115 = 2232
    Number of processor patches = 6
    Number of processor faces = 28964
    Number of boundary faces = 0

Processor 108
    Number of cells = 283500
    Number of points = 298368
    Number of faces shared with processor 140 = 7875
    Number of faces shared with processor 76 = 7875
    Number of faces shared with processor 100 = 2268
    Number of faces shared with processor 107 = 4500
    Number of faces shared with processor 109 = 4500
    Number of faces shared with processor 116 = 2268
    Number of processor patches = 6
    Number of processor faces = 29286
    Number of boundary faces = 0

Processor 109
    Number of cells = 278919
    Number of points = 293625
    Number of faces shared with processor 133 = 2
    Number of faces shared with processor 141 = 7776
    Number of faces shared with processor 77 = 7750
    Number of faces shared with processor 101 = 2213
    Number of faces shared with processor 108 = 4500
    Number of faces shared with processor 110 = 4491
    Number of faces shared with processor 117 = 2232
    Number of processor patches = 7
    Number of processor faces = 28964
    Number of boundary faces = 0

Processor 110
    Number of cells = 281941
    Number of points = 296800
    Number of faces shared with processor 142 = 7969
    Number of faces shared with processor 143 = 1
    Number of faces shared with processor 78 = 7875
    Number of faces shared with processor 102 = 2205
    Number of faces shared with processor 109 = 4491
    Number of faces shared with processor 111 = 4459
    Number of faces shared with processor 118 = 2268
    Number of processor patches = 7
    Number of processor faces = 29268
    Number of boundary faces = 0

Processor 111
    Number of cells = 275528
    Number of points = 290193
    Number of faces shared with processor 143 = 7842
    Number of faces shared with processor 79 = 7750
    Number of faces shared with processor 103 = 2170
    Number of faces shared with processor 110 = 4459
    Number of faces shared with processor 119 = 2232
    Number of processor patches = 5
    Number of processor faces = 24453
    Number of boundary faces = 4429

Processor 112
    Number of cells = 279835
    Number of points = 294663
    Number of faces shared with processor 144 = 7857
    Number of faces shared with processor 145 = 1
    Number of faces shared with processor 80 = 7969
    Number of faces shared with processor 104 = 2268
    Number of faces shared with processor 113 = 4494
    Number of faces shared with processor 120 = 2187
    Number of faces shared with processor 121 = 1
    Number of processor patches = 7
    Number of processor faces = 24777
    Number of boundary faces = 4429

Processor 113
    Number of cells = 277634
    Number of points = 292366
    Number of faces shared with processor 145 = 7767
    Number of faces shared with processor 81 = 7843
    Number of faces shared with processor 105 = 2232
    Number of faces shared with processor 112 = 4494
    Number of faces shared with processor 114 = 4491
    Number of faces shared with processor 121 = 2187
    Number of processor patches = 6
    Number of processor faces = 29014
    Number of boundary faces = 0

Processor 114
    Number of cells = 283266
    Number of points = 298134
    Number of faces shared with processor 146 = 7857
    Number of faces shared with processor 147 = 1
    Number of faces shared with processor 82 = 7901
    Number of faces shared with processor 90 = 2
    Number of faces shared with processor 106 = 2268
    Number of faces shared with processor 113 = 4491
    Number of faces shared with processor 115 = 4534
    Number of faces shared with processor 122 = 2231
    Number of faces shared with processor 123 = 1
    Number of processor patches = 9
    Number of processor faces = 29286
    Number of boundary faces = 0

Processor 115
    Number of cells = 279153
    Number of points = 293894
    Number of faces shared with processor 147 = 7767
    Number of faces shared with processor 83 = 7750
    Number of faces shared with processor 107 = 2232
    Number of faces shared with processor 114 = 4534
    Number of faces shared with processor 116 = 4500
    Number of faces shared with processor 123 = 2249
    Number of processor patches = 6
    Number of processor faces = 29032
    Number of boundary faces = 0

Processor 116
    Number of cells = 283347
    Number of points = 298215
    Number of faces shared with processor 148 = 7857
    Number of faces shared with processor 149 = 1
    Number of faces shared with processor 84 = 7875
    Number of faces shared with processor 108 = 2268
    Number of faces shared with processor 115 = 4500
    Number of faces shared with processor 117 = 4534
    Number of faces shared with processor 124 = 2250
    Number of faces shared with processor 125 = 1
    Number of processor patches = 8
    Number of processor faces = 29286
    Number of boundary faces = 0

Processor 117
    Number of cells = 279153
    Number of points = 293894
    Number of faces shared with processor 149 = 7767
    Number of faces shared with processor 85 = 7750
    Number of faces shared with processor 109 = 2232
    Number of faces shared with processor 116 = 4534
    Number of faces shared with processor 118 = 4500
    Number of faces shared with processor 125 = 2249
    Number of processor patches = 6
    Number of processor faces = 29032
    Number of boundary faces = 0

Processor 118
    Number of cells = 283347
    Number of points = 298215
    Number of faces shared with processor 150 = 7857
    Number of faces shared with processor 151 = 1
    Number of faces shared with processor 86 = 7875
    Number of faces shared with processor 110 = 2268
    Number of faces shared with processor 117 = 4500
    Number of faces shared with processor 119 = 4534
    Number of faces shared with processor 126 = 2250
    Number of faces shared with processor 127 = 1
    Number of processor patches = 8
    Number of processor faces = 29286
    Number of boundary faces = 0

Processor 119
    Number of cells = 279153
    Number of points = 293894
    Number of faces shared with processor 151 = 7767
    Number of faces shared with processor 87 = 7750
    Number of faces shared with processor 111 = 2232
    Number of faces shared with processor 118 = 4534
    Number of faces shared with processor 127 = 2249
    Number of processor patches = 5
    Number of processor faces = 24532
    Number of boundary faces = 4500

Processor 120
    Number of cells = 273790
    Number of points = 288460
    Number of faces shared with processor 152 = 7843
    Number of faces shared with processor 88 = 7767
    Number of faces shared with processor 112 = 2187
    Number of faces shared with processor 121 = 4432
    Number of processor patches = 4
    Number of processor faces = 22229
    Number of boundary faces = 6661

Processor 121
    Number of cells = 275985
    Number of points = 290732
    Number of faces shared with processor 153 = 7942
    Number of faces shared with processor 88 = 1
    Number of faces shared with processor 89 = 7857
    Number of faces shared with processor 112 = 1
    Number of faces shared with processor 113 = 2187
    Number of faces shared with processor 120 = 4432
    Number of faces shared with processor 122 = 4375
    Number of processor patches = 7
    Number of processor faces = 26795
    Number of boundary faces = 2249

Processor 122
    Number of cells = 271905
    Number of points = 286526
    Number of faces shared with processor 154 = 7750
    Number of faces shared with processor 90 = 7833
    Number of faces shared with processor 114 = 2231
    Number of faces shared with processor 121 = 4375
    Number of faces shared with processor 123 = 4433
    Number of processor patches = 5
    Number of processor faces = 26622
    Number of boundary faces = 2170

Processor 123
    Number of cells = 277832
    Number of points = 292628
    Number of faces shared with processor 155 = 7875
    Number of faces shared with processor 90 = 1
    Number of faces shared with processor 91 = 7950
    Number of faces shared with processor 114 = 1
    Number of faces shared with processor 115 = 2249
    Number of faces shared with processor 122 = 4433
    Number of faces shared with processor 124 = 4428
    Number of processor patches = 7
    Number of processor faces = 26937
    Number of boundary faces = 2205

Processor 124
    Number of cells = 275699
    Number of points = 290401
    Number of faces shared with processor 156 = 7750
    Number of faces shared with processor 91 = 1
    Number of faces shared with processor 92 = 7860
    Number of faces shared with processor 116 = 2250
    Number of faces shared with processor 123 = 4428
    Number of faces shared with processor 125 = 4495
    Number of processor patches = 6
    Number of processor faces = 26784
    Number of boundary faces = 2170

Processor 125
    Number of cells = 281770
    Number of points = 296629
    Number of faces shared with processor 157 = 7875
    Number of faces shared with processor 92 = 2
    Number of faces shared with processor 93 = 7950
    Number of faces shared with processor 116 = 1
    Number of faces shared with processor 117 = 2249
    Number of faces shared with processor 124 = 4495
    Number of faces shared with processor 126 = 4491
    Number of processor patches = 7
    Number of processor faces = 27063
    Number of boundary faces = 2205

Processor 126
    Number of cells = 279090
    Number of points = 293833
    Number of faces shared with processor 158 = 7750
    Number of faces shared with processor 94 = 7794
    Number of faces shared with processor 118 = 2250
    Number of faces shared with processor 125 = 4491
    Number of faces shared with processor 127 = 4536
    Number of processor patches = 5
    Number of processor faces = 26821
    Number of boundary faces = 2215

Processor 127
    Number of cells = 283329
    Number of points = 298197
    Number of faces shared with processor 159 = 7875
    Number of faces shared with processor 94 = 1
    Number of faces shared with processor 95 = 7856
    Number of faces shared with processor 118 = 1
    Number of faces shared with processor 119 = 2249
    Number of faces shared with processor 126 = 4536
    Number of processor patches = 6
    Number of processor faces = 22518
    Number of boundary faces = 6768

Processor 128
    Number of cells = 276901
    Number of points = 291680
    Number of faces shared with processor 129 = 4379
    Number of faces shared with processor 136 = 2268
    Number of faces shared with processor 160 = 7969
    Number of faces shared with processor 161 = 1
    Number of faces shared with processor 96 = 7875
    Number of processor patches = 5
    Number of processor faces = 22492
    Number of boundary faces = 6616

Processor 129
    Number of cells = 271351
    Number of points = 285909
    Number of faces shared with processor 128 = 4379
    Number of faces shared with processor 130 = 4384
    Number of faces shared with processor 137 = 2178
    Number of faces shared with processor 161 = 7762
    Number of faces shared with processor 97 = 7776
    Number of processor patches = 5
    Number of processor faces = 26479
    Number of boundary faces = 2187

Processor 130
    Number of cells = 277184
    Number of points = 291967
    Number of faces shared with processor 129 = 4384
    Number of faces shared with processor 131 = 4415
    Number of faces shared with processor 138 = 2205
    Number of faces shared with processor 162 = 7875
    Number of faces shared with processor 98 = 7969
    Number of processor patches = 5
    Number of processor faces = 26848
    Number of boundary faces = 2268

Processor 131
    Number of cells = 274722
    Number of points = 289374
    Number of faces shared with processor 130 = 4415
    Number of faces shared with processor 132 = 4446
    Number of faces shared with processor 139 = 2170
    Number of faces shared with processor 163 = 7750
    Number of faces shared with processor 98 = 1
    Number of faces shared with processor 99 = 7842
    Number of processor patches = 6
    Number of processor faces = 26624
    Number of boundary faces = 2232

Processor 132
    Number of cells = 281122
    Number of points = 295968
    Number of faces shared with processor 131 = 4446
    Number of faces shared with processor 133 = 4478
    Number of faces shared with processor 140 = 2205
    Number of faces shared with processor 164 = 7875
    Number of faces shared with processor 99 = 1
    Number of faces shared with processor 100 = 7969
    Number of processor patches = 6
    Number of processor faces = 26974
    Number of boundary faces = 2268

Processor 133
    Number of cells = 278516
    Number of points = 293222
    Number of faces shared with processor 132 = 4478
    Number of faces shared with processor 134 = 4500
    Number of faces shared with processor 141 = 2187
    Number of faces shared with processor 165 = 7750
    Number of faces shared with processor 101 = 7815
    Number of faces shared with processor 109 = 2
    Number of processor patches = 6
    Number of processor faces = 26732
    Number of boundary faces = 2232

Processor 134
    Number of cells = 283500
    Number of points = 298368
    Number of faces shared with processor 133 = 4500
    Number of faces shared with processor 135 = 4500
    Number of faces shared with processor 142 = 2268
    Number of faces shared with processor 166 = 7875
    Number of faces shared with processor 102 = 7875
    Number of processor patches = 5
    Number of processor faces = 27018
    Number of boundary faces = 2268

Processor 135
    Number of cells = 279000
    Number of points = 293706
    Number of faces shared with processor 134 = 4500
    Number of faces shared with processor 143 = 2232
    Number of faces shared with processor 167 = 7750
    Number of faces shared with processor 103 = 7750
    Number of processor patches = 4
    Number of processor faces = 22232
    Number of boundary faces = 6732

Processor 136
    Number of cells = 283500
    Number of points = 298368
    Number of faces shared with processor 128 = 2268
    Number of faces shared with processor 137 = 4500
    Number of faces shared with processor 144 = 2268
    Number of faces shared with processor 168 = 7875
    Number of faces shared with processor 104 = 7875
    Number of processor patches = 5
    Number of processor faces = 24786
    Number of boundary faces = 4500

Processor 137
    Number of cells = 278298
    Number of points = 293004
    Number of faces shared with processor 129 = 2178
    Number of faces shared with processor 136 = 4500
    Number of faces shared with processor 138 = 4473
    Number of faces shared with processor 145 = 2232
    Number of faces shared with processor 161 = 2
    Number of faces shared with processor 169 = 7828
    Number of faces shared with processor 170 = 1
    Number of faces shared with processor 105 = 7750
    Number of processor patches = 8
    Number of processor faces = 28964
    Number of boundary faces = 0

Processor 138
    Number of cells = 280838
    Number of points = 295679
    Number of faces shared with processor 130 = 2205
    Number of faces shared with processor 137 = 4473
    Number of faces shared with processor 139 = 4442
    Number of faces shared with processor 146 = 2268
    Number of faces shared with processor 170 = 7969
    Number of faces shared with processor 106 = 7875
    Number of processor patches = 6
    Number of processor faces = 29232
    Number of boundary faces = 0

Processor 139
    Number of cells = 274428
    Number of points = 289076
    Number of faces shared with processor 131 = 2170
    Number of faces shared with processor 138 = 4442
    Number of faces shared with processor 140 = 4410
    Number of faces shared with processor 147 = 2232
    Number of faces shared with processor 171 = 7843
    Number of faces shared with processor 172 = 1
    Number of faces shared with processor 107 = 7750
    Number of processor patches = 7
    Number of processor faces = 28848
    Number of boundary faces = 0

Processor 140
    Number of cells = 276869
    Number of points = 291647
    Number of faces shared with processor 132 = 2205
    Number of faces shared with processor 139 = 4410
    Number of faces shared with processor 141 = 4379
    Number of faces shared with processor 148 = 2268
    Number of faces shared with processor 172 = 7969
    Number of faces shared with processor 108 = 7875
    Number of processor patches = 6
    Number of processor faces = 29106
    Number of boundary faces = 0

Processor 141
    Number of cells = 271347
    Number of points = 285904
    Number of faces shared with processor 133 = 2187
    Number of faces shared with processor 140 = 4379
    Number of faces shared with processor 142 = 4384
    Number of faces shared with processor 149 = 2177
    Number of faces shared with processor 173 = 7761
    Number of faces shared with processor 109 = 7776
    Number of processor patches = 6
    Number of processor faces = 28664
    Number of boundary faces = 0

Processor 142
    Number of cells = 277184
    Number of points = 291967
    Number of faces shared with processor 134 = 2268
    Number of faces shared with processor 141 = 4384
    Number of faces shared with processor 143 = 4415
    Number of faces shared with processor 150 = 2205
    Number of faces shared with processor 174 = 7875
    Number of faces shared with processor 110 = 7969
    Number of processor patches = 6
    Number of processor faces = 29116
    Number of boundary faces = 0

Processor 143
    Number of cells = 274722
    Number of points = 289374
    Number of faces shared with processor 135 = 2232
    Number of faces shared with processor 142 = 4415
    Number of faces shared with processor 151 = 2170
    Number of faces shared with processor 175 = 7750
    Number of faces shared with processor 110 = 1
    Number of faces shared with processor 111 = 7842
    Number of processor patches = 6
    Number of processor faces = 24410
    Number of boundary faces = 4446

Processor 144
    Number of cells = 282222
    Number of points = 297072
    Number of faces shared with processor 136 = 2268
    Number of faces shared with processor 145 = 4571
    Number of faces shared with processor 152 = 2232
    Number of faces shared with processor 176 = 7821
    Number of faces shared with processor 177 = 1
    Number of faces shared with processor 112 = 7857
    Number of processor patches = 6
    Number of processor faces = 24750
    Number of boundary faces = 4500

Processor 145
    Number of cells = 280278
    Number of points = 295074
    Number of faces shared with processor 137 = 2232
    Number of faces shared with processor 144 = 4571
    Number of faces shared with processor 146 = 4500
    Number of faces shared with processor 153 = 2268
    Number of faces shared with processor 177 = 7803
    Number of faces shared with processor 112 = 1
    Number of faces shared with processor 113 = 7767
    Number of processor patches = 7
    Number of processor faces = 29142
    Number of boundary faces = 0

Processor 146
    Number of cells = 282222
    Number of points = 297072
    Number of faces shared with processor 138 = 2268
    Number of faces shared with processor 145 = 4500
    Number of faces shared with processor 147 = 4571
    Number of faces shared with processor 154 = 2232
    Number of faces shared with processor 178 = 7821
    Number of faces shared with processor 179 = 1
    Number of faces shared with processor 114 = 7857
    Number of processor patches = 7
    Number of processor faces = 29250
    Number of boundary faces = 0

Processor 147
    Number of cells = 280278
    Number of points = 295074
    Number of faces shared with processor 139 = 2232
    Number of faces shared with processor 146 = 4571
    Number of faces shared with processor 148 = 4500
    Number of faces shared with processor 155 = 2268
    Number of faces shared with processor 179 = 7803
    Number of faces shared with processor 114 = 1
    Number of faces shared with processor 115 = 7767
    Number of processor patches = 7
    Number of processor faces = 29142
    Number of boundary faces = 0

Processor 148
    Number of cells = 282222
    Number of points = 297072
    Number of faces shared with processor 140 = 2268
    Number of faces shared with processor 147 = 4500
    Number of faces shared with processor 149 = 4571
    Number of faces shared with processor 156 = 2232
    Number of faces shared with processor 180 = 7821
    Number of faces shared with processor 181 = 1
    Number of faces shared with processor 116 = 7857
    Number of processor patches = 7
    Number of processor faces = 29250
    Number of boundary faces = 0

Processor 149
    Number of cells = 279549
    Number of points = 294345
    Number of faces shared with processor 141 = 2177
    Number of faces shared with processor 148 = 4571
    Number of faces shared with processor 150 = 4473
    Number of faces shared with processor 157 = 2268
    Number of faces shared with processor 173 = 2
    Number of faces shared with processor 181 = 7883
    Number of faces shared with processor 116 = 1
    Number of faces shared with processor 117 = 7767
    Number of processor patches = 8
    Number of processor faces = 29142
    Number of boundary faces = 0

Processor 150
    Number of cells = 279529
    Number of points = 294352
    Number of faces shared with processor 142 = 2205
    Number of faces shared with processor 149 = 4473
    Number of faces shared with processor 151 = 4512
    Number of faces shared with processor 158 = 2232
    Number of faces shared with processor 182 = 7915
    Number of faces shared with processor 183 = 2
    Number of faces shared with processor 118 = 7857
    Number of processor patches = 7
    Number of processor faces = 29196
    Number of boundary faces = 0

Processor 151
    Number of cells = 275690
    Number of points = 290427
    Number of faces shared with processor 143 = 2170
    Number of faces shared with processor 150 = 4512
    Number of faces shared with processor 159 = 2268
    Number of faces shared with processor 183 = 7895
    Number of faces shared with processor 118 = 1
    Number of faces shared with processor 119 = 7767
    Number of processor patches = 6
    Number of processor faces = 24613
    Number of boundary faces = 4411

Processor 152
    Number of cells = 276613
    Number of points = 291296
    Number of faces shared with processor 144 = 2232
    Number of faces shared with processor 153 = 4477
    Number of faces shared with processor 184 = 7750
    Number of faces shared with processor 120 = 7843
    Number of processor patches = 4
    Number of processor faces = 22302
    Number of boundary faces = 6616

Processor 153
    Number of cells = 282987
    Number of points = 297855
    Number of faces shared with processor 145 = 2268
    Number of faces shared with processor 152 = 4477
    Number of faces shared with processor 154 = 4500
    Number of faces shared with processor 185 = 7875
    Number of faces shared with processor 121 = 7942
    Number of processor patches = 5
    Number of processor faces = 27062
    Number of boundary faces = 2224

Processor 154
    Number of cells = 279000
    Number of points = 293706
    Number of faces shared with processor 146 = 2232
    Number of faces shared with processor 153 = 4500
    Number of faces shared with processor 155 = 4500
    Number of faces shared with processor 186 = 7750
    Number of faces shared with processor 122 = 7750
    Number of processor patches = 5
    Number of processor faces = 26732
    Number of boundary faces = 2232

Processor 155
    Number of cells = 283500
    Number of points = 298368
    Number of faces shared with processor 147 = 2268
    Number of faces shared with processor 154 = 4500
    Number of faces shared with processor 156 = 4500
    Number of faces shared with processor 187 = 7875
    Number of faces shared with processor 123 = 7875
    Number of processor patches = 5
    Number of processor faces = 27018
    Number of boundary faces = 2268

Processor 156
    Number of cells = 279000
    Number of points = 293706
    Number of faces shared with processor 148 = 2232
    Number of faces shared with processor 155 = 4500
    Number of faces shared with processor 157 = 4500
    Number of faces shared with processor 188 = 7750
    Number of faces shared with processor 124 = 7750
    Number of processor patches = 5
    Number of processor faces = 26732
    Number of boundary faces = 2232

Processor 157
    Number of cells = 283500
    Number of points = 298368
    Number of faces shared with processor 149 = 2268
    Number of faces shared with processor 156 = 4500
    Number of faces shared with processor 158 = 4500
    Number of faces shared with processor 189 = 7875
    Number of faces shared with processor 125 = 7875
    Number of processor patches = 5
    Number of processor faces = 27018
    Number of boundary faces = 2268

Processor 158
    Number of cells = 279000
    Number of points = 293706
    Number of faces shared with processor 150 = 2232
    Number of faces shared with processor 157 = 4500
    Number of faces shared with processor 159 = 4500
    Number of faces shared with processor 190 = 7750
    Number of faces shared with processor 126 = 7750
    Number of processor patches = 5
    Number of processor faces = 26732
    Number of boundary faces = 2232

Processor 159
    Number of cells = 283500
    Number of points = 298368
    Number of faces shared with processor 151 = 2268
    Number of faces shared with processor 158 = 4500
    Number of faces shared with processor 191 = 7875
    Number of faces shared with processor 127 = 7875
    Number of processor patches = 4
    Number of processor faces = 22518
    Number of boundary faces = 6768

Processor 160
    Number of cells = 282224
    Number of points = 297087
    Number of faces shared with processor 128 = 7969
    Number of faces shared with processor 161 = 4495
    Number of faces shared with processor 168 = 2205
    Number of faces shared with processor 192 = 7875
    Number of processor patches = 4
    Number of processor faces = 22544
    Number of boundary faces = 6732

Processor 161
    Number of cells = 278980
    Number of points = 293686
    Number of faces shared with processor 128 = 1
    Number of faces shared with processor 129 = 7762
    Number of faces shared with processor 137 = 2
    Number of faces shared with processor 160 = 4495
    Number of faces shared with processor 162 = 4500
    Number of faces shared with processor 169 = 2222
    Number of faces shared with processor 193 = 7750
    Number of processor patches = 7
    Number of processor faces = 26732
    Number of boundary faces = 2232

Processor 162
    Number of cells = 283500
    Number of points = 298368
    Number of faces shared with processor 130 = 7875
    Number of faces shared with processor 161 = 4500
    Number of faces shared with processor 163 = 4500
    Number of faces shared with processor 170 = 2268
    Number of faces shared with processor 194 = 7875
    Number of processor patches = 5
    Number of processor faces = 27018
    Number of boundary faces = 2268

Processor 163
    Number of cells = 279000
    Number of points = 293706
    Number of faces shared with processor 131 = 7750
    Number of faces shared with processor 162 = 4500
    Number of faces shared with processor 164 = 4500
    Number of faces shared with processor 171 = 2232
    Number of faces shared with processor 195 = 7750
    Number of processor patches = 5
    Number of processor faces = 26732
    Number of boundary faces = 2232

Processor 164
    Number of cells = 283500
    Number of points = 298368
    Number of faces shared with processor 132 = 7875
    Number of faces shared with processor 163 = 4500
    Number of faces shared with processor 165 = 4500
    Number of faces shared with processor 172 = 2268
    Number of faces shared with processor 196 = 7875
    Number of processor patches = 5
    Number of processor faces = 27018
    Number of boundary faces = 2268

Processor 165
    Number of cells = 279000
[...]
    in file db/dynamicLibrary/dlLibraryTable/dlLibraryTable.C at line 188
    Could not load "libpetscFoam.so"
libpetscFoam.so: cannot open shared object file: No such file or directory
Processor 385: field transfer
--> FOAM Warning : 
    From void* Foam::dlLibraryTable::openLibrary(const Foam::fileName&, bool)
    in file db/dynamicLibrary/dlLibraryTable/dlLibraryTable.C at line 188
    Could not load "libpetscFoam.so"
libpetscFoam.so: cannot open shared object file: No such file or directory
Processor 386: field transfer
--> FOAM Warning : 
    From void* Foam::dlLibraryTable::openLibrary(const Foam::fileName&, bool)
    in file db/dynamicLibrary/dlLibraryTable/dlLibraryTable.C at line 188
    Could not load "libpetscFoam.so"
libpetscFoam.so: cannot open shared object file: No such file or directory
Processor 387: field transfer
--> FOAM Warning : 
    From void* Foam::dlLibraryTable::openLibrary(const Foam::fileName&, bool)
    in file db/dynamicLibrary/dlLibraryTable/dlLibraryTable.C at line 188
    Could not load "libpetscFoam.so"
libpetscFoam.so: cannot open shared object file: No such file or directory
Processor 388: field transfer
--> FOAM Warning : 
    From void* Foam::dlLibraryTable::openLibrary(const Foam::fileName&, bool)
    in file db/dynamicLibrary/dlLibraryTable/dlLibraryTable.C at line 188
    Could not load "libpetscFoam.so"
libpetscFoam.so: cannot open shared object file: No such file or directory
Processor 389: field transfer
--> FOAM Warning : 
    From void* Foam::dlLibraryTable::openLibrary(const Foam::fileName&, bool)
    in file db/dynamicLibrary/dlLibraryTable/dlLibraryTable.C at line 188
    Could not load "libpetscFoam.so"
libpetscFoam.so: cannot open shared object file: No such file or directory
Processor 390: field transfer
--> FOAM Warning : 
    From void* Foam::dlLibraryTable::openLibrary(const Foam::fileName&, bool)
    in file db/dynamicLibrary/dlLibraryTable/dlLibraryTable.C at line 188
    Could not load "libpetscFoam.so"
libpetscFoam.so: cannot open shared object file: No such file or directory
Processor 391: field transfer
--> FOAM Warning : 
    From void* Foam::dlLibraryTable::openLibrary(const Foam::fileName&, bool)
    in file db/dynamicLibrary/dlLibraryTable/dlLibraryTable.C at line 188
    Could not load "libpetscFoam.so"
libpetscFoam.so: cannot open shared object file: No such file or directory
Processor 392: field transfer
--> FOAM Warning : 
    From void* Foam::dlLibraryTable::openLibrary(const Foam::fileName&, bool)
    in file db/dynamicLibrary/dlLibraryTable/dlLibraryTable.C at line 188
    Could not load "libpetscFoam.so"
libpetscFoam.so: cannot open shared object file: No such file or directory
Processor 393: field transfer
--> FOAM Warning : 
    From void* Foam::dlLibraryTable::openLibrary(const Foam::fileName&, bool)
    in file db/dynamicLibrary/dlLibraryTable/dlLibraryTable.C at line 188
    Could not load "libpetscFoam.so"
libpetscFoam.so: cannot open shared object file: No such file or directory
Processor 394: field transfer
--> FOAM Warning : 
    From void* Foam::dlLibraryTable::openLibrary(const Foam::fileName&, bool)
    in file db/dynamicLibrary/dlLibraryTable/dlLibraryTable.C at line 188
    Could not load "libpetscFoam.so"
libpetscFoam.so: cannot open shared object file: No such file or directory
Processor 395: field transfer
--> FOAM Warning : 
    From void* Foam::dlLibraryTable::openLibrary(const Foam::fileName&, bool)
    in file db/dynamicLibrary/dlLibraryTable/dlLibraryTable.C at line 188
    Could not load "libpetscFoam.so"
libpetscFoam.so: cannot open shared object file: No such file or directory
Processor 396: field transfer
--> FOAM Warning : 
    From void* Foam::dlLibraryTable::openLibrary(const Foam::fileName&, bool)
    in file db/dynamicLibrary/dlLibraryTable/dlLibraryTable.C at line 188
    Could not load "libpetscFoam.so"
libpetscFoam.so: cannot open shared object file: No such file or directory
Processor 397: field transfer
--> FOAM Warning : 
    From void* Foam::dlLibraryTable::openLibrary(const Foam::fileName&, bool)
    in file db/dynamicLibrary/dlLibraryTable/dlLibraryTable.C at line 188
    Could not load "libpetscFoam.so"
libpetscFoam.so: cannot open shared object file: No such file or directory
Processor 398: field transfer
--> FOAM Warning : 
    From void* Foam::dlLibraryTable::openLibrary(const Foam::fileName&, bool)
    in file db/dynamicLibrary/dlLibraryTable/dlLibraryTable.C at line 188
    Could not load "libpetscFoam.so"
libpetscFoam.so: cannot open shared object file: No such file or directory
Processor 399: field transfer
--> FOAM Warning : 
    From void* Foam::dlLibraryTable::openLibrary(const Foam::fileName&, bool)
    in file db/dynamicLibrary/dlLibraryTable/dlLibraryTable.C at line 188
    Could not load "libpetscFoam.so"
libpetscFoam.so: cannot open shared object file: No such file or directory
Processor 400: field transfer
--> FOAM Warning : 
    From void* Foam::dlLibraryTable::openLibrary(const Foam::fileName&, bool)
    in file db/dynamicLibrary/dlLibraryTable/dlLibraryTable.C at line 188
    Could not load "libpetscFoam.so"
libpetscFoam.so: cannot open shared object file: No such file or directory
Processor 401: field transfer
--> FOAM Warning : 
    From void* Foam::dlLibraryTable::openLibrary(const Foam::fileName&, bool)
    in file db/dynamicLibrary/dlLibraryTable/dlLibraryTable.C at line 188
    Could not load "libpetscFoam.so"
libpetscFoam.so: cannot open shared object file: No such file or directory
Processor 402: field transfer
--> FOAM Warning : 
    From void* Foam::dlLibraryTable::openLibrary(const Foam::fileName&, bool)
    in file db/dynamicLibrary/dlLibraryTable/dlLibraryTable.C at line 188
    Could not load "libpetscFoam.so"
libpetscFoam.so: cannot open shared object file: No such file or directory
Processor 403: field transfer
--> FOAM Warning : 
    From void* Foam::dlLibraryTable::openLibrary(const Foam::fileName&, bool)
    in file db/dynamicLibrary/dlLibraryTable/dlLibraryTable.C at line 188
    Could not load "libpetscFoam.so"
libpetscFoam.so: cannot open shared object file: No such file or directory
Processor 404: field transfer
--> FOAM Warning : 
    From void* Foam::dlLibraryTable::openLibrary(const Foam::fileName&, bool)
    in file db/dynamicLibrary/dlLibraryTable/dlLibraryTable.C at line 188
    Could not load "libpetscFoam.so"
libpetscFoam.so: cannot open shared object file: No such file or directory
Processor 405: field transfer
--> FOAM Warning : 
    From void* Foam::dlLibraryTable::openLibrary(const Foam::fileName&, bool)
    in file db/dynamicLibrary/dlLibraryTable/dlLibraryTable.C at line 188
    Could not load "libpetscFoam.so"
libpetscFoam.so: cannot open shared object file: No such file or directory
Processor 406: field transfer
--> FOAM Warning : 
    From void* Foam::dlLibraryTable::openLibrary(const Foam::fileName&, bool)
    in file db/dynamicLibrary/dlLibraryTable/dlLibraryTable.C at line 188
    Could not load "libpetscFoam.so"
libpetscFoam.so: cannot open shared object file: No such file or directory
Processor 407: field transfer
--> FOAM Warning : 
    From void* Foam::dlLibraryTable::openLibrary(const Foam::fileName&, bool)
    in file db/dynamicLibrary/dlLibraryTable/dlLibraryTable.C at line 188
    Could not load "libpetscFoam.so"
libpetscFoam.so: cannot open shared object file: No such file or directory
Processor 408: field transfer
--> FOAM Warning : 
    From void* Foam::dlLibraryTable::openLibrary(const Foam::fileName&, bool)
    in file db/dynamicLibrary/dlLibraryTable/dlLibraryTable.C at line 188
    Could not load "libpetscFoam.so"
libpetscFoam.so: cannot open shared object file: No such file or directory
Processor 409: field transfer
--> FOAM Warning : 
    From void* Foam::dlLibraryTable::openLibrary(const Foam::fileName&, bool)
    in file db/dynamicLibrary/dlLibraryTable/dlLibraryTable.C at line 188
    Could not load "libpetscFoam.so"
libpetscFoam.so: cannot open shared object file: No such file or directory
Processor 410: field transfer
--> FOAM Warning : 
    From void* Foam::dlLibraryTable::openLibrary(const Foam::fileName&, bool)
    in file db/dynamicLibrary/dlLibraryTable/dlLibraryTable.C at line 188
    Could not load "libpetscFoam.so"
libpetscFoam.so: cannot open shared object file: No such file or directory
Processor 411: field transfer
--> FOAM Warning : 
    From void* Foam::dlLibraryTable::openLibrary(const Foam::fileName&, bool)
    in file db/dynamicLibrary/dlLibraryTable/dlLibraryTable.C at line 188
    Could not load "libpetscFoam.so"
libpetscFoam.so: cannot open shared object file: No such file or directory
Processor 412: field transfer
--> FOAM Warning : 
    From void* Foam::dlLibraryTable::openLibrary(const Foam::fileName&, bool)
    in file db/dynamicLibrary/dlLibraryTable/dlLibraryTable.C at line 188
    Could not load "libpetscFoam.so"
libpetscFoam.so: cannot open shared object file: No such file or directory
Processor 413: field transfer
--> FOAM Warning : 
    From void* Foam::dlLibraryTable::openLibrary(const Foam::fileName&, bool)
    in file db/dynamicLibrary/dlLibraryTable/dlLibraryTable.C at line 188
    Could not load "libpetscFoam.so"
libpetscFoam.so: cannot open shared object file: No such file or directory
Processor 414: field transfer
--> FOAM Warning : 
    From void* Foam::dlLibraryTable::openLibrary(const Foam::fileName&, bool)
    in file db/dynamicLibrary/dlLibraryTable/dlLibraryTable.C at line 188
    Could not load "libpetscFoam.so"
libpetscFoam.so: cannot open shared object file: No such file or directory
Processor 415: field transfer
--> FOAM Warning : 
    From void* Foam::dlLibraryTable::openLibrary(const Foam::fileName&, bool)
    in file db/dynamicLibrary/dlLibraryTable/dlLibraryTable.C at line 188
    Could not load "libpetscFoam.so"
libpetscFoam.so: cannot open shared object file: No such file or directory
Processor 416: field transfer
--> FOAM Warning : 
    From void* Foam::dlLibraryTable::openLibrary(const Foam::fileName&, bool)
    in file db/dynamicLibrary/dlLibraryTable/dlLibraryTable.C at line 188
    Could not load "libpetscFoam.so"
libpetscFoam.so: cannot open shared object file: No such file or directory
Processor 417: field transfer
--> FOAM Warning : 
    From void* Foam::dlLibraryTable::openLibrary(const Foam::fileName&, bool)
    in file db/dynamicLibrary/dlLibraryTable/dlLibraryTable.C at line 188
    Could not load "libpetscFoam.so"
libpetscFoam.so: cannot open shared object file: No such file or directory
Processor 418: field transfer
--> FOAM Warning : 
    From void* Foam::dlLibraryTable::openLibrary(const Foam::fileName&, bool)
    in file db/dynamicLibrary/dlLibraryTable/dlLibraryTable.C at line 188
    Could not load "libpetscFoam.so"
libpetscFoam.so: cannot open shared object file: No such file or directory
Processor 419: field transfer
--> FOAM Warning : 
    From void* Foam::dlLibraryTable::openLibrary(const Foam::fileName&, bool)
    in file db/dynamicLibrary/dlLibraryTable/dlLibraryTable.C at line 188
    Could not load "libpetscFoam.so"
libpetscFoam.so: cannot open shared object file: No such file or directory
Processor 420: field transfer
--> FOAM Warning : 
    From void* Foam::dlLibraryTable::openLibrary(const Foam::fileName&, bool)
    in file db/dynamicLibrary/dlLibraryTable/dlLibraryTable.C at line 188
    Could not load "libpetscFoam.so"
libpetscFoam.so: cannot open shared object file: No such file or directory
Processor 421: field transfer
--> FOAM Warning : 
    From void* Foam::dlLibraryTable::openLibrary(const Foam::fileName&, bool)
    in file db/dynamicLibrary/dlLibraryTable/dlLibraryTable.C at line 188
    Could not load "libpetscFoam.so"
libpetscFoam.so: cannot open shared object file: No such file or directory
Processor 422: field transfer
--> FOAM Warning : 
    From void* Foam::dlLibraryTable::openLibrary(const Foam::fileName&, bool)
    in file db/dynamicLibrary/dlLibraryTable/dlLibraryTable.C at line 188
    Could not load "libpetscFoam.so"
libpetscFoam.so: cannot open shared object file: No such file or directory
Processor 423: field transfer
--> FOAM Warning : 
    From void* Foam::dlLibraryTable::openLibrary(const Foam::fileName&, bool)
    in file db/dynamicLibrary/dlLibraryTable/dlLibraryTable.C at line 188
    Could not load "libpetscFoam.so"
libpetscFoam.so: cannot open shared object file: No such file or directory
Processor 424: field transfer
--> FOAM Warning : 
    From void* Foam::dlLibraryTable::openLibrary(const Foam::fileName&, bool)
    in file db/dynamicLibrary/dlLibraryTable/dlLibraryTable.C at line 188
    Could not load "libpetscFoam.so"
libpetscFoam.so: cannot open shared object file: No such file or directory
Processor 425: field transfer
--> FOAM Warning : 
    From void* Foam::dlLibraryTable::openLibrary(const Foam::fileName&, bool)
    in file db/dynamicLibrary/dlLibraryTable/dlLibraryTable.C at line 188
    Could not load "libpetscFoam.so"
libpetscFoam.so: cannot open shared object file: No such file or directory
Processor 426: field transfer
--> FOAM Warning : 
    From void* Foam::dlLibraryTable::openLibrary(const Foam::fileName&, bool)
    in file db/dynamicLibrary/dlLibraryTable/dlLibraryTable.C at line 188
    Could not load "libpetscFoam.so"
libpetscFoam.so: cannot open shared object file: No such file or directory
Processor 427: field transfer
--> FOAM Warning : 
    From void* Foam::dlLibraryTable::openLibrary(const Foam::fileName&, bool)
    in file db/dynamicLibrary/dlLibraryTable/dlLibraryTable.C at line 188
    Could not load "libpetscFoam.so"
libpetscFoam.so: cannot open shared object file: No such file or directory
Processor 428: field transfer
--> FOAM Warning : 
    From void* Foam::dlLibraryTable::openLibrary(const Foam::fileName&, bool)
    in file db/dynamicLibrary/dlLibraryTable/dlLibraryTable.C at line 188
    Could not load "libpetscFoam.so"
libpetscFoam.so: cannot open shared object file: No such file or directory
Processor 429: field transfer
--> FOAM Warning : 
    From void* Foam::dlLibraryTable::openLibrary(const Foam::fileName&, bool)
    in file db/dynamicLibrary/dlLibraryTable/dlLibraryTable.C at line 188
    Could not load "libpetscFoam.so"
libpetscFoam.so: cannot open shared object file: No such file or directory
Processor 430: field transfer
--> FOAM Warning : 
    From void* Foam::dlLibraryTable::openLibrary(const Foam::fileName&, bool)
    in file db/dynamicLibrary/dlLibraryTable/dlLibraryTable.C at line 188
    Could not load "libpetscFoam.so"
libpetscFoam.so: cannot open shared object file: No such file or directory
Processor 431: field transfer
--> FOAM Warning : 
    From void* Foam::dlLibraryTable::openLibrary(const Foam::fileName&, bool)
    in file db/dynamicLibrary/dlLibraryTable/dlLibraryTable.C at line 188
    Could not load "libpetscFoam.so"
libpetscFoam.so: cannot open shared object file: No such file or directory
Processor 432: field transfer
--> FOAM Warning : 
    From void* Foam::dlLibraryTable::openLibrary(const Foam::fileName&, bool)
    in file db/dynamicLibrary/dlLibraryTable/dlLibraryTable.C at line 188
    Could not load "libpetscFoam.so"
libpetscFoam.so: cannot open shared object file: No such file or directory
Processor 433: field transfer
--> FOAM Warning : 
    From void* Foam::dlLibraryTable::openLibrary(const Foam::fileName&, bool)
    in file db/dynamicLibrary/dlLibraryTable/dlLibraryTable.C at line 188
    Could not load "libpetscFoam.so"
libpetscFoam.so: cannot open shared object file: No such file or directory
Processor 434: field transfer
--> FOAM Warning : 
    From void* Foam::dlLibraryTable::openLibrary(const Foam::fileName&, bool)
    in file db/dynamicLibrary/dlLibraryTable/dlLibraryTable.C at line 188
    Could not load "libpetscFoam.so"
libpetscFoam.so: cannot open shared object file: No such file or directory
Processor 435: field transfer
--> FOAM Warning : 
    From void* Foam::dlLibraryTable::openLibrary(const Foam::fileName&, bool)
    in file db/dynamicLibrary/dlLibraryTable/dlLibraryTable.C at line 188
    Could not load "libpetscFoam.so"
libpetscFoam.so: cannot open shared object file: No such file or directory
Processor 436: field transfer
--> FOAM Warning : 
    From void* Foam::dlLibraryTable::openLibrary(const Foam::fileName&, bool)
    in file db/dynamicLibrary/dlLibraryTable/dlLibraryTable.C at line 188
    Could not load "libpetscFoam.so"
libpetscFoam.so: cannot open shared object file: No such file or directory
Processor 437: field transfer
--> FOAM Warning : 
    From void* Foam::dlLibraryTable::openLibrary(const Foam::fileName&, bool)
    in file db/dynamicLibrary/dlLibraryTable/dlLibraryTable.C at line 188
    Could not load "libpetscFoam.so"
libpetscFoam.so: cannot open shared object file: No such file or directory
Processor 438: field transfer
--> FOAM Warning : 
    From void* Foam::dlLibraryTable::openLibrary(const Foam::fileName&, bool)
    in file db/dynamicLibrary/dlLibraryTable/dlLibraryTable.C at line 188
    Could not load "libpetscFoam.so"
libpetscFoam.so: cannot open shared object file: No such file or directory
Processor 439: field transfer
--> FOAM Warning : 
    From void* Foam::dlLibraryTable::openLibrary(const Foam::fileName&, bool)
    in file db/dynamicLibrary/dlLibraryTable/dlLibraryTable.C at line 188
    Could not load "libpetscFoam.so"
libpetscFoam.so: cannot open shared object file: No such file or directory
Processor 440: field transfer
--> FOAM Warning : 
    From void* Foam::dlLibraryTable::openLibrary(const Foam::fileName&, bool)
    in file db/dynamicLibrary/dlLibraryTable/dlLibraryTable.C at line 188
    Could not load "libpetscFoam.so"
libpetscFoam.so: cannot open shared object file: No such file or directory
Processor 441: field transfer
--> FOAM Warning : 
    From void* Foam::dlLibraryTable::openLibrary(const Foam::fileName&, bool)
    in file db/dynamicLibrary/dlLibraryTable/dlLibraryTable.C at line 188
    Could not load "libpetscFoam.so"
libpetscFoam.so: cannot open shared object file: No such file or directory
Processor 442: field transfer
--> FOAM Warning : 
    From void* Foam::dlLibraryTable::openLibrary(const Foam::fileName&, bool)
    in file db/dynamicLibrary/dlLibraryTable/dlLibraryTable.C at line 188
    Could not load "libpetscFoam.so"
libpetscFoam.so: cannot open shared object file: No such file or directory
Processor 443: field transfer
--> FOAM Warning : 
    From void* Foam::dlLibraryTable::openLibrary(const Foam::fileName&, bool)
    in file db/dynamicLibrary/dlLibraryTable/dlLibraryTable.C at line 188
    Could not load "libpetscFoam.so"
libpetscFoam.so: cannot open shared object file: No such file or directory
Processor 444: field transfer
--> FOAM Warning : 
    From void* Foam::dlLibraryTable::openLibrary(const Foam::fileName&, bool)
    in file db/dynamicLibrary/dlLibraryTable/dlLibraryTable.C at line 188
    Could not load "libpetscFoam.so"
libpetscFoam.so: cannot open shared object file: No such file or directory
Processor 445: field transfer
--> FOAM Warning : 
    From void* Foam::dlLibraryTable::openLibrary(const Foam::fileName&, bool)
    in file db/dynamicLibrary/dlLibraryTable/dlLibraryTable.C at line 188
    Could not load "libpetscFoam.so"
libpetscFoam.so: cannot open shared object file: No such file or directory
Processor 446: field transfer
--> FOAM Warning : 
    From void* Foam::dlLibraryTable::openLibrary(const Foam::fileName&, bool)
    in file db/dynamicLibrary/dlLibraryTable/dlLibraryTable.C at line 188
    Could not load "libpetscFoam.so"
libpetscFoam.so: cannot open shared object file: No such file or directory
Processor 447: field transfer
--> FOAM Warning : 
    From void* Foam::dlLibraryTable::openLibrary(const Foam::fileName&, bool)
    in file db/dynamicLibrary/dlLibraryTable/dlLibraryTable.C at line 188
    Could not load "libpetscFoam.so"
libpetscFoam.so: cannot open shared object file: No such file or directory

End

