/*---------------------------------------------------------------------------*\
| =========                 |                                                 |
| \\      /  F ield         | OpenFOAM: The Open Source CFD Toolbox           |
|  \\    /   O peration     | Version:  2306                                  |
|   \\  /    A nd           | Website:  www.openfoam.com                      |
|    \\/     M anipulation  |                                                 |
\*---------------------------------------------------------------------------*/
Build  : a6e826bd55-20230630 OPENFOAM=2306 version=v2306
Arch   : "LSB;label=32;scalar=64"
Exec   : icoFoam -parallel -case /home/greole/data/code/exasim_project/micro_benchmarks/LidDrivenCavity3D/workspace/feeb1021f41912099c8531f072a3ee21/case
Date   : Jul 11 2023
Time   : 15:23:38
Host   : nla-gpu2.ianm.kit.edu
PID    : 520441
I/O    : uncollated
Case   : /home/greole/data/code/exasim_project/micro_benchmarks/LidDrivenCavity3D/workspace/feeb1021f41912099c8531f072a3ee21/case
nProcs : 8
Hosts  :
(
    (nla-gpu2.ianm.kit.edu 8)
)
Pstream initialized with:
    floatTransfer      : false
    nProcsSimpleSum    : 0
    nonBlockingExchange: 0 (tuning: 0)
    exchange algorithm : -1
    commsType          : nonBlocking
    polling iterations : 0
trapFpe: Floating point exception trapping enabled (FOAM_SIGFPE).
fileModificationChecking : Monitoring run-time modified files using timeStampMaster (fileModificationSkew 5, maxFileModificationPolls 20)
allowSystemOperations : Allowing user-supplied system call operations

// * * * * * * * * * * * * * * * * * * * * * * * * * * * * * * * * * * * * * //
Create time

--> FOAM Warning : 
    From void* Foam::dlLibraryTable::openLibrary(const Foam::fileName&, bool)
    in file db/dynamicLibrary/dlLibraryTable/dlLibraryTable.C at line 188
    Could not load "libpetscFoam.so"
libpetscFoam.so: cannot open shared object file: No such file or directory
Create mesh for time = 0


PISO: Operating solver in PISO mode

Reading transportProperties

Reading field p

Reading field U

Reading/calculating face flux field phi


Starting time loop

Time = 0.000166

Courant Number mean: 8.14055e-18 max: 3.11001e-14
[INFO] MatrixAssemblyU: 349.485 [ms]
DILUPBiCGStab:  Solving for Ux, Initial residual = 1, Final residual = 0.0159896, No Iterations 5
DILUPBiCGStab:  Solving for Uy:  solution singularity
DILUPBiCGStab:  Solving for Uz:  solution singularity
[INFO] MomentumPredictor: 1580.57 [ms]
[INFO] MatrixAssemblyPI: 354.183 [ms]
[INFO] AdjustPhi: 19.878 [ms]
[INFO] ConstrainPressure: 0.013 [ms]
[INFO] MatrixAssemblyPII: 99.15 [ms]
GAMG:  Solving for p, Initial residual = 1, Final residual = 6.39385e-05, No Iterations 55
[INFO] SolveP: 17968 [ms]
time step continuity errors : sum local = 2.58838e-09, global = 2.67834e-21, cumulative = 2.67834e-21
[INFO] ContinuityError: 46.59 [ms]
[INFO] CorrectBoundary: 1.163 [ms]
[INFO] PISOStep: 18604.9 [ms]
[INFO] MatrixAssemblyPI: 337.523 [ms]
[INFO] AdjustPhi: 18.59 [ms]
[INFO] ConstrainPressure: 0.005 [ms]
[INFO] MatrixAssemblyPII: 101.402 [ms]
GAMG:  Solving for p, Initial residual = 0.809691, Final residual = 9.62773e-05, No Iterations 103
[INFO] SolveP: 32107.3 [ms]
time step continuity errors : sum local = 4.76182e-09, global = 2.87145e-22, cumulative = 2.96548e-21
[INFO] ContinuityError: 46.677 [ms]
[INFO] CorrectBoundary: 1.246 [ms]
[INFO] PISOStep: 32725.6 [ms]
[INFO] TimeStep: 53310 [ms]
ExecutionTime = 55.15 s  ClockTime = 57 s

Time = 0.000332

Courant Number mean: 0.0128497 max: 0.426563
[INFO] MatrixAssemblyU: 261.985 [ms]
DILUPBiCGStab:  Solving for Ux, Initial residual = 0.116946, Final residual = 0.00923065, No Iterations 5
DILUPBiCGStab:  Solving for Uy, Initial residual = 0.459875, Final residual = 0.0300232, No Iterations 5
DILUPBiCGStab:  Solving for Uz, Initial residual = 0.992609, Final residual = 0.0752563, No Iterations 5
[INFO] MomentumPredictor: 2952.98 [ms]
[INFO] MatrixAssemblyPI: 343.069 [ms]
[INFO] AdjustPhi: 22.042 [ms]
[INFO] ConstrainPressure: 0.004 [ms]
[INFO] MatrixAssemblyPII: 98.078 [ms]
GAMG:  Solving for p, Initial residual = 0.878231, Final residual = 8.08617e-05, No Iterations 83
[INFO] SolveP: 25803.3 [ms]
time step continuity errors : sum local = 7.69135e-09, global = 6.09288e-22, cumulative = 3.57477e-21
[INFO] ContinuityError: 46.557 [ms]
[INFO] CorrectBoundary: 1.096 [ms]
[INFO] PISOStep: 26428.3 [ms]
[INFO] MatrixAssemblyPI: 338.212 [ms]
[INFO] AdjustPhi: 19.633 [ms]
[INFO] ConstrainPressure: 0.005 [ms]
[INFO] MatrixAssemblyPII: 98.984 [ms]
GAMG:  Solving for p, Initial residual = 0.826388, Final residual = 5.20535e-05, No Iterations 53
[INFO] SolveP: 16530.6 [ms]
time step continuity errors : sum local = 5.05958e-09, global = 8.54595e-22, cumulative = 4.42937e-21
[INFO] ContinuityError: 47.936 [ms]
[INFO] CorrectBoundary: 1.012 [ms]
[INFO] PISOStep: 17149.7 [ms]
[INFO] TimeStep: 46836.9 [ms]
ExecutionTime = 101.79 s  ClockTime = 103 s

Time = 0.000498

Courant Number mean: 0.0198271 max: 0.491811
[INFO] MatrixAssemblyU: 260.694 [ms]
DILUPBiCGStab:  Solving for Ux, Initial residual = 0.0544517, Final residual = 0.00348766, No Iterations 5
DILUPBiCGStab:  Solving for Uy, Initial residual = 0.226386, Final residual = 0.0156785, No Iterations 5
DILUPBiCGStab:  Solving for Uz, Initial residual = 0.864125, Final residual = 0.0654359, No Iterations 5
[INFO] MomentumPredictor: 2951.6 [ms]
[INFO] MatrixAssemblyPI: 342.162 [ms]
[INFO] AdjustPhi: 21.699 [ms]
[INFO] ConstrainPressure: 0.004 [ms]
[INFO] MatrixAssemblyPII: 98.055 [ms]
GAMG:  Solving for p, Initial residual = 0.913894, Final residual = 9.92674e-05, No Iterations 97
[INFO] SolveP: 30198 [ms]
time step continuity errors : sum local = 1.04055e-08, global = 3.61371e-22, cumulative = 4.79074e-21
[INFO] ContinuityError: 47.186 [ms]
[INFO] CorrectBoundary: 0.932 [ms]
[INFO] PISOStep: 30820.5 [ms]
[INFO] MatrixAssemblyPI: 336.682 [ms]
[INFO] AdjustPhi: 21.104 [ms]
[INFO] ConstrainPressure: 0.004 [ms]
[INFO] MatrixAssemblyPII: 98.023 [ms]
GAMG:  Solving for p, Initial residual = 0.88283, Final residual = 9.35751e-05, No Iterations 90
[INFO] SolveP: 28026.5 [ms]
time step continuity errors : sum local = 9.65671e-09, global = 6.14025e-22, cumulative = 5.40476e-21
[INFO] ContinuityError: 47.902 [ms]
[INFO] CorrectBoundary: 1.046 [ms]
[INFO] PISOStep: 28644 [ms]
[INFO] TimeStep: 62720.9 [ms]
ExecutionTime = 164.26 s  ClockTime = 166 s

Time = 0.000664

Courant Number mean: 0.0239211 max: 0.472079
[INFO] MatrixAssemblyU: 260.918 [ms]
DILUPBiCGStab:  Solving for Ux, Initial residual = 0.0385275, Final residual = 0.0028013, No Iterations 5
DILUPBiCGStab:  Solving for Uy, Initial residual = 0.174008, Final residual = 0.0125861, No Iterations 5
DILUPBiCGStab:  Solving for Uz, Initial residual = 0.793724, Final residual = 0.061584, No Iterations 5
[INFO] MomentumPredictor: 2947.32 [ms]
[INFO] MatrixAssemblyPI: 343.595 [ms]
[INFO] AdjustPhi: 18.78 [ms]
[INFO] ConstrainPressure: 0.004 [ms]
[INFO] MatrixAssemblyPII: 97.516 [ms]
GAMG:  Solving for p, Initial residual = 0.89072, Final residual = 9.47416e-05, No Iterations 82
[INFO] SolveP: 25523 [ms]
time step continuity errors : sum local = 1.06128e-08, global = 8.19512e-22, cumulative = 6.22427e-21
[INFO] ContinuityError: 46.956 [ms]
[INFO] CorrectBoundary: 2.095 [ms]
[INFO] PISOStep: 26146.6 [ms]
[INFO] MatrixAssemblyPI: 336.787 [ms]
[INFO] AdjustPhi: 19.272 [ms]
[INFO] ConstrainPressure: 0.004 [ms]
[INFO] MatrixAssemblyPII: 98.16 [ms]
GAMG:  Solving for p, Initial residual = 0.830825, Final residual = 8.47706e-05, No Iterations 101
[INFO] SolveP: 31396.6 [ms]
time step continuity errors : sum local = 9.64084e-09, global = 6.73309e-22, cumulative = 6.89758e-21
[INFO] ContinuityError: 47.343 [ms]
[INFO] CorrectBoundary: 1.295 [ms]
[INFO] PISOStep: 32012 [ms]
[INFO] TimeStep: 61410.4 [ms]
ExecutionTime = 225.39 s  ClockTime = 228 s

Time = 0.00083

Courant Number mean: 0.0274504 max: 0.504995
[INFO] MatrixAssemblyU: 261.102 [ms]
DILUPBiCGStab:  Solving for Ux, Initial residual = 0.0323342, Final residual = 0.00237292, No Iterations 5
DILUPBiCGStab:  Solving for Uy, Initial residual = 0.129756, Final residual = 0.0105838, No Iterations 5
DILUPBiCGStab:  Solving for Uz, Initial residual = 0.782504, Final residual = 0.0648879, No Iterations 5
[INFO] MomentumPredictor: 2951.15 [ms]
[INFO] MatrixAssemblyPI: 343.121 [ms]
[INFO] AdjustPhi: 19.359 [ms]
[INFO] ConstrainPressure: 0.005 [ms]
[INFO] MatrixAssemblyPII: 97.827 [ms]
GAMG:  Solving for p, Initial residual = 0.910753, Final residual = 9.79739e-05, No Iterations 65
[INFO] SolveP: 20280.8 [ms]
time step continuity errors : sum local = 1.08464e-08, global = -3.33582e-22, cumulative = 6.564e-21
[INFO] ContinuityError: 46.343 [ms]
[INFO] CorrectBoundary: 1.113 [ms]
[INFO] PISOStep: 20900.8 [ms]
[INFO] MatrixAssemblyPI: 335.764 [ms]
[INFO] AdjustPhi: 20.923 [ms]
[INFO] ConstrainPressure: 0.004 [ms]
[INFO] MatrixAssemblyPII: 98.068 [ms]
GAMG:  Solving for p, Initial residual = 0.873157, Final residual = 9.50542e-05, No Iterations 76
[INFO] SolveP: 23623.6 [ms]
time step continuity errors : sum local = 1.03795e-08, global = 5.22026e-22, cumulative = 7.08603e-21
[INFO] ContinuityError: 46.893 [ms]
[INFO] CorrectBoundary: 1.154 [ms]
[INFO] PISOStep: 24238.3 [ms]
[INFO] TimeStep: 48395.5 [ms]
ExecutionTime = 273.59 s  ClockTime = 276 s

Time = 0.000996

Courant Number mean: 0.0301914 max: 0.478475
[INFO] MatrixAssemblyU: 260.373 [ms]
DILUPBiCGStab:  Solving for Ux, Initial residual = 0.0270647, Final residual = 0.00214117, No Iterations 5
DILUPBiCGStab:  Solving for Uy, Initial residual = 0.111812, Final residual = 0.00833139, No Iterations 5
DILUPBiCGStab:  Solving for Uz, Initial residual = 0.714903, Final residual = 0.060174, No Iterations 5
[INFO] MomentumPredictor: 2953.92 [ms]
[INFO] MatrixAssemblyPI: 342.765 [ms]
[INFO] AdjustPhi: 21.367 [ms]
[INFO] ConstrainPressure: 0.004 [ms]
[INFO] MatrixAssemblyPII: 97.525 [ms]
GAMG:  Solving for p, Initial residual = 0.888257, Final residual = 9.34539e-05, No Iterations 50
[INFO] SolveP: 15689.6 [ms]
time step continuity errors : sum local = 1.05569e-08, global = 1.4898e-21, cumulative = 8.57583e-21
[INFO] ContinuityError: 48.11 [ms]
[INFO] CorrectBoundary: 0.884 [ms]
[INFO] PISOStep: 16312 [ms]
[INFO] MatrixAssemblyPI: 335.399 [ms]
[INFO] AdjustPhi: 20.567 [ms]
[INFO] ConstrainPressure: 0.005 [ms]
[INFO] MatrixAssemblyPII: 98.176 [ms]
GAMG:  Solving for p, Initial residual = 0.825385, Final residual = 9.8649e-05, No Iterations 47
[INFO] SolveP: 14675 [ms]
time step continuity errors : sum local = 1.13084e-08, global = 5.12105e-22, cumulative = 9.08793e-21
[INFO] ContinuityError: 47.307 [ms]
[INFO] CorrectBoundary: 1.177 [ms]
[INFO] PISOStep: 15289.1 [ms]
[INFO] TimeStep: 34859.7 [ms]
ExecutionTime = 308.29 s  ClockTime = 311 s

Time = 0.001162

Courant Number mean: 0.0326711 max: 0.511948
[INFO] MatrixAssemblyU: 260.956 [ms]
DILUPBiCGStab:  Solving for Ux, Initial residual = 0.0245312, Final residual = 0.001966, No Iterations 5
DILUPBiCGStab:  Solving for Uy, Initial residual = 0.0982725, Final residual = 0.00769914, No Iterations 5
DILUPBiCGStab:  Solving for Uz, Initial residual = 0.705186, Final residual = 0.0595851, No Iterations 5
[INFO] MomentumPredictor: 2951.15 [ms]
[INFO] MatrixAssemblyPI: 343.612 [ms]
[INFO] AdjustPhi: 22.655 [ms]
[INFO] ConstrainPressure: 0.004 [ms]
[INFO] MatrixAssemblyPII: 97.612 [ms]
GAMG:  Solving for p, Initial residual = 0.906118, Final residual = 9.75066e-05, No Iterations 58
[INFO] SolveP: 18195.8 [ms]
time step continuity errors : sum local = 1.07464e-08, global = -6.47598e-22, cumulative = 8.44034e-21
[INFO] ContinuityError: 47.365 [ms]
[INFO] CorrectBoundary: 2.385 [ms]
[INFO] PISOStep: 18821.3 [ms]
[INFO] MatrixAssemblyPI: 335.881 [ms]
[INFO] AdjustPhi: 19.891 [ms]
[INFO] ConstrainPressure: 0.004 [ms]
[INFO] MatrixAssemblyPII: 98.221 [ms]
GAMG:  Solving for p, Initial residual = 0.861533, Final residual = 9.73216e-05, No Iterations 84
[INFO] SolveP: 26162 [ms]
time step continuity errors : sum local = 1.05998e-08, global = 9.33378e-22, cumulative = 9.37371e-21
[INFO] ContinuityError: 47.449 [ms]
[INFO] CorrectBoundary: 0.976 [ms]
[INFO] PISOStep: 26775.9 [ms]
[INFO] TimeStep: 48853 [ms]
ExecutionTime = 356.93 s  ClockTime = 360 s

Time = 0.001328

Courant Number mean: 0.0347558 max: 0.481434
[INFO] MatrixAssemblyU: 261.084 [ms]
DILUPBiCGStab:  Solving for Ux, Initial residual = 0.0221266, Final residual = 0.00183546, No Iterations 5
DILUPBiCGStab:  Solving for Uy, Initial residual = 0.0870564, Final residual = 0.00645453, No Iterations 5
DILUPBiCGStab:  Solving for Uz, Initial residual = 0.658947, Final residual = 0.054808, No Iterations 5
[INFO] MomentumPredictor: 2954.33 [ms]
[INFO] MatrixAssemblyPI: 342.598 [ms]
[INFO] AdjustPhi: 20.671 [ms]
[INFO] ConstrainPressure: 0.004 [ms]
[INFO] MatrixAssemblyPII: 99.56 [ms]
GAMG:  Solving for p, Initial residual = 0.884152, Final residual = 9.8556e-05, No Iterations 90
[INFO] SolveP: 28153.2 [ms]
time step continuity errors : sum local = 1.10505e-08, global = 8.5039e-22, cumulative = 1.02241e-20
[INFO] ContinuityError: 47.274 [ms]
[INFO] CorrectBoundary: 1.403 [ms]
[INFO] PISOStep: 28775.7 [ms]
[INFO] MatrixAssemblyPI: 336.811 [ms]
[INFO] AdjustPhi: 20.527 [ms]
[INFO] ConstrainPressure: 0.004 [ms]
[INFO] MatrixAssemblyPII: 98.193 [ms]
GAMG:  Solving for p, Initial residual = 0.81858, Final residual = 9.59287e-05, No Iterations 109
[INFO] SolveP: 33821 [ms]
time step continuity errors : sum local = 1.08846e-08, global = 6.74991e-22, cumulative = 1.08991e-20
[INFO] ContinuityError: 47.564 [ms]
[INFO] CorrectBoundary: 1.099 [ms]
[INFO] PISOStep: 34437.9 [ms]
[INFO] TimeStep: 66473.4 [ms]
ExecutionTime = 423.12 s  ClockTime = 426 s

Time = 0.001494

Courant Number mean: 0.0367047 max: 0.518145
[INFO] MatrixAssemblyU: 261.164 [ms]
DILUPBiCGStab:  Solving for Ux, Initial residual = 0.0205338, Final residual = 0.00171162, No Iterations 5
DILUPBiCGStab:  Solving for Uy, Initial residual = 0.0819386, Final residual = 0.00611823, No Iterations 5
DILUPBiCGStab:  Solving for Uz, Initial residual = 0.652442, Final residual = 0.0531915, No Iterations 5
[INFO] MomentumPredictor: 2953.58 [ms]
[INFO] MatrixAssemblyPI: 342.938 [ms]
[INFO] AdjustPhi: 20.268 [ms]
[INFO] ConstrainPressure: 0.004 [ms]
[INFO] MatrixAssemblyPII: 97.357 [ms]
GAMG:  Solving for p, Initial residual = 0.901992, Final residual = 5.35253e-05, No Iterations 66
[INFO] SolveP: 20630.5 [ms]
time step continuity errors : sum local = 5.89217e-09, global = 1.07048e-21, cumulative = 1.19696e-20
[INFO] ContinuityError: 46.433 [ms]
[INFO] CorrectBoundary: 1.054 [ms]
[INFO] PISOStep: 21252 [ms]
[INFO] MatrixAssemblyPI: 335.08 [ms]
[INFO] AdjustPhi: 19.875 [ms]
[INFO] ConstrainPressure: 0.004 [ms]
[INFO] MatrixAssemblyPII: 98.103 [ms]
GAMG:  Solving for p, Initial residual = 0.852417, Final residual = 5.12442e-05, No Iterations 61
[INFO] SolveP: 19056.8 [ms]
time step continuity errors : sum local = 5.58271e-09, global = 1.13626e-22, cumulative = 1.20832e-20
[INFO] ContinuityError: 46.72 [ms]
[INFO] CorrectBoundary: 1.171 [ms]
[INFO] PISOStep: 19669.1 [ms]
[INFO] TimeStep: 44179.9 [ms]
ExecutionTime = 467.11 s  ClockTime = 470 s

Time = 0.00166

Courant Number mean: 0.0383984 max: 0.483684
[INFO] MatrixAssemblyU: 260.178 [ms]
DILUPBiCGStab:  Solving for Ux, Initial residual = 0.0193392, Final residual = 0.00162775, No Iterations 5
DILUPBiCGStab:  Solving for Uy, Initial residual = 0.0736268, Final residual = 0.00530071, No Iterations 5
DILUPBiCGStab:  Solving for Uz, Initial residual = 0.572197, Final residual = 0.0350353, No Iterations 5
[INFO] MomentumPredictor: 2949.22 [ms]
[INFO] MatrixAssemblyPI: 342.661 [ms]
[INFO] AdjustPhi: 20.326 [ms]
[INFO] ConstrainPressure: 0.004 [ms]
[INFO] MatrixAssemblyPII: 97.633 [ms]
GAMG:  Solving for p, Initial residual = 0.882738, Final residual = 9.76816e-05, No Iterations 56
[INFO] SolveP: 17473.5 [ms]
time step continuity errors : sum local = 1.10564e-08, global = -3.27077e-22, cumulative = 1.17561e-20
[INFO] ContinuityError: 47.276 [ms]
[INFO] CorrectBoundary: 0.918 [ms]
[INFO] PISOStep: 18094.7 [ms]
[INFO] MatrixAssemblyPI: 335.549 [ms]
[INFO] AdjustPhi: 20.277 [ms]
[INFO] ConstrainPressure: 0.005 [ms]
[INFO] MatrixAssemblyPII: 97.909 [ms]
GAMG:  Solving for p, Initial residual = 0.813701, Final residual = 7.11943e-05, No Iterations 52
[INFO] SolveP: 16213.2 [ms]
time step continuity errors : sum local = 8.13409e-09, global = -1.48984e-22, cumulative = 1.16071e-20
[INFO] ContinuityError: 46.769 [ms]
[INFO] CorrectBoundary: 0.998 [ms]
[INFO] PISOStep: 16826.5 [ms]
[INFO] TimeStep: 38174.9 [ms]
ExecutionTime = 505.12 s  ClockTime = 509 s

Time = 0.001826

Courant Number mean: 0.0400185 max: 0.52481
[INFO] MatrixAssemblyU: 259.361 [ms]
DILUPBiCGStab:  Solving for Ux, Initial residual = 0.018155, Final residual = 0.00152013, No Iterations 5
DILUPBiCGStab:  Solving for Uy, Initial residual = 0.0719792, Final residual = 0.00511725, No Iterations 5
DILUPBiCGStab:  Solving for Uz, Initial residual = 0.591973, Final residual = 0.0426725, No Iterations 5
[INFO] MomentumPredictor: 2949.49 [ms]
[INFO] MatrixAssemblyPI: 343.164 [ms]
[INFO] AdjustPhi: 19.582 [ms]
[INFO] ConstrainPressure: 0.004 [ms]
[INFO] MatrixAssemblyPII: 98.73 [ms]
GAMG:  Solving for p, Initial residual = 0.901898, Final residual = 7.13467e-05, No Iterations 62
[INFO] SolveP: 19383.5 [ms]
time step continuity errors : sum local = 8.05218e-09, global = 5.59203e-22, cumulative = 1.21663e-20
[INFO] ContinuityError: 46.755 [ms]
[INFO] CorrectBoundary: 0.884 [ms]
[INFO] PISOStep: 20007.1 [ms]
[INFO] MatrixAssemblyPI: 335.684 [ms]
[INFO] AdjustPhi: 20.589 [ms]
[INFO] ConstrainPressure: 0.005 [ms]
[INFO] MatrixAssemblyPII: 97.804 [ms]
GAMG:  Solving for p, Initial residual = 0.847644, Final residual = 7.23537e-05, No Iterations 62
[INFO] SolveP: 19350.5 [ms]
time step continuity errors : sum local = 8.06403e-09, global = 8.73982e-22, cumulative = 1.30403e-20
[INFO] ContinuityError: 46.905 [ms]
[INFO] CorrectBoundary: 2.128 [ms]
[INFO] PISOStep: 19965.6 [ms]
[INFO] TimeStep: 43225.6 [ms]
ExecutionTime = 548.14 s  ClockTime = 552 s

Time = 0.001992

Courant Number mean: 0.0414512 max: 0.486765
[INFO] MatrixAssemblyU: 259.836 [ms]
DILUPBiCGStab:  Solving for Ux, Initial residual = 0.0175794, Final residual = 0.00147138, No Iterations 5
DILUPBiCGStab:  Solving for Uy, Initial residual = 0.0655139, Final residual = 0.00450135, No Iterations 5
DILUPBiCGStab:  Solving for Uz, Initial residual = 0.563383, Final residual = 0.0365245, No Iterations 5
[INFO] MomentumPredictor: 2950.29 [ms]
[INFO] MatrixAssemblyPI: 343.455 [ms]
[INFO] AdjustPhi: 19.546 [ms]
[INFO] ConstrainPressure: 0.004 [ms]
[INFO] MatrixAssemblyPII: 97.393 [ms]
GAMG:  Solving for p, Initial residual = 0.884335, Final residual = 5.30548e-05, No Iterations 60
[INFO] SolveP: 18674.1 [ms]
time step continuity errors : sum local = 6.21106e-09, global = 1.13988e-21, cumulative = 1.41802e-20
[INFO] ContinuityError: 46.776 [ms]
[INFO] CorrectBoundary: 1.316 [ms]
[INFO] PISOStep: 19294.2 [ms]
[INFO] MatrixAssemblyPI: 334.701 [ms]
[INFO] AdjustPhi: 22.198 [ms]
[INFO] ConstrainPressure: 0.004 [ms]
[INFO] MatrixAssemblyPII: 98.179 [ms]
GAMG:  Solving for p, Initial residual = 0.813972, Final residual = 9.74966e-05, No Iterations 54
[INFO] SolveP: 16853.5 [ms]
time step continuity errors : sum local = 1.15043e-08, global = 1.06365e-21, cumulative = 1.52439e-20
[INFO] ContinuityError: 47.206 [ms]
[INFO] CorrectBoundary: 1.168 [ms]
[INFO] PISOStep: 17468 [ms]
[INFO] TimeStep: 40016.5 [ms]
ExecutionTime = 587.99 s  ClockTime = 592 s

Time = 0.002158

Courant Number mean: 0.0428487 max: 0.53249
[INFO] MatrixAssemblyU: 260.513 [ms]
DILUPBiCGStab:  Solving for Ux, Initial residual = 0.0166276, Final residual = 0.00136807, No Iterations 5
DILUPBiCGStab:  Solving for Uy, Initial residual = 0.065558, Final residual = 0.00443137, No Iterations 5
DILUPBiCGStab:  Solving for Uz, Initial residual = 0.574017, Final residual = 0.0379589, No Iterations 5
[INFO] MomentumPredictor: 2946.8 [ms]
[INFO] MatrixAssemblyPI: 342.568 [ms]
[INFO] AdjustPhi: 20.49 [ms]
[INFO] ConstrainPressure: 0.004 [ms]
[INFO] MatrixAssemblyPII: 97.802 [ms]
GAMG:  Solving for p, Initial residual = 0.902603, Final residual = 9.62622e-05, No Iterations 46
[INFO] SolveP: 14434.3 [ms]
time step continuity errors : sum local = 1.12646e-08, global = 1.02284e-21, cumulative = 1.62667e-20
[INFO] ContinuityError: 47.234 [ms]
[INFO] CorrectBoundary: 1.196 [ms]
[INFO] PISOStep: 15055.2 [ms]
[INFO] MatrixAssemblyPI: 336.213 [ms]
[INFO] AdjustPhi: 19.4 [ms]
[INFO] ConstrainPressure: 0.004 [ms]
[INFO] MatrixAssemblyPII: 98.1 [ms]
GAMG:  Solving for p, Initial residual = 0.844709, Final residual = 9.03402e-05, No Iterations 31
[INFO] SolveP: 9737.62 [ms]
time step continuity errors : sum local = 1.0471e-08, global = 5.61288e-22, cumulative = 1.6828e-20
[INFO] ContinuityError: 46.634 [ms]
[INFO] CorrectBoundary: 1.35 [ms]
[INFO] PISOStep: 10350.4 [ms]
[INFO] TimeStep: 28656.9 [ms]
ExecutionTime = 616.52 s  ClockTime = 620 s

Time = 0.002324

Courant Number mean: 0.044091 max: 0.489805
[INFO] MatrixAssemblyU: 260.003 [ms]
DILUPBiCGStab:  Solving for Ux, Initial residual = 0.0164108, Final residual = 0.00134624, No Iterations 5
DILUPBiCGStab:  Solving for Uy, Initial residual = 0.0604311, Final residual = 0.00393283, No Iterations 5
DILUPBiCGStab:  Solving for Uz, Initial residual = 0.572989, Final residual = 0.03981, No Iterations 5
[INFO] MomentumPredictor: 2948.76 [ms]
[INFO] MatrixAssemblyPI: 343.049 [ms]
[INFO] AdjustPhi: 19.014 [ms]
[INFO] ConstrainPressure: 0.004 [ms]
[INFO] MatrixAssemblyPII: 97.78 [ms]
GAMG:  Solving for p, Initial residual = 0.886831, Final residual = 8.98586e-05, No Iterations 50
[INFO] SolveP: 15693.5 [ms]
time step continuity errors : sum local = 1.09346e-08, global = 1.2162e-21, cumulative = 1.80442e-20
[INFO] ContinuityError: 46.541 [ms]
[INFO] CorrectBoundary: 0.97 [ms]
[INFO] PISOStep: 16313.8 [ms]
[INFO] MatrixAssemblyPI: 335.84 [ms]
[INFO] AdjustPhi: 19.708 [ms]
[INFO] ConstrainPressure: 0.004 [ms]
[INFO] MatrixAssemblyPII: 97.963 [ms]
GAMG:  Solving for p, Initial residual = 0.815428, Final residual = 9.56119e-05, No Iterations 53
[INFO] SolveP: 16498.5 [ms]
time step continuity errors : sum local = 1.1768e-08, global = 2.08759e-21, cumulative = 2.01318e-20
[INFO] ContinuityError: 47.037 [ms]
[INFO] CorrectBoundary: 1.426 [ms]
[INFO] PISOStep: 17112.4 [ms]
[INFO] TimeStep: 36679.9 [ms]
ExecutionTime = 653.05 s  ClockTime = 657 s

Time = 0.00249

Courant Number mean: 0.0453269 max: 0.541292
[INFO] MatrixAssemblyU: 260.151 [ms]
DILUPBiCGStab:  Solving for Ux, Initial residual = 0.0156446, Final residual = 0.00124572, No Iterations 5
DILUPBiCGStab:  Solving for Uy, Initial residual = 0.0613281, Final residual = 0.00393413, No Iterations 5
DILUPBiCGStab:  Solving for Uz, Initial residual = 0.586158, Final residual = 0.0401097, No Iterations 5
[INFO] MomentumPredictor: 2946.57 [ms]
[INFO] MatrixAssemblyPI: 343.325 [ms]
[INFO] AdjustPhi: 19.434 [ms]
[INFO] ConstrainPressure: 0.004 [ms]
[INFO] MatrixAssemblyPII: 97.769 [ms]
GAMG:  Solving for p, Initial residual = 0.903497, Final residual = 9.54668e-05, No Iterations 43
[INFO] SolveP: 13503.6 [ms]
time step continuity errors : sum local = 1.16807e-08, global = 5.45609e-22, cumulative = 2.06774e-20
[INFO] ContinuityError: 47.536 [ms]
[INFO] CorrectBoundary: 1.958 [ms]
[INFO] PISOStep: 14125.1 [ms]
[INFO] MatrixAssemblyPI: 335.311 [ms]
[INFO] AdjustPhi: 20.207 [ms]
[INFO] ConstrainPressure: 0.004 [ms]
[INFO] MatrixAssemblyPII: 97.749 [ms]
GAMG:  Solving for p, Initial residual = 0.842728, Final residual = 9.98456e-05, No Iterations 44
[INFO] SolveP: 13763 [ms]
time step continuity errors : sum local = 1.21697e-08, global = -2.37206e-23, cumulative = 2.06537e-20
[INFO] ContinuityError: 46.445 [ms]
[INFO] CorrectBoundary: 1.292 [ms]
[INFO] PISOStep: 14376.5 [ms]
[INFO] TimeStep: 31752.4 [ms]
ExecutionTime = 684.66 s  ClockTime = 689 s

Time = 0.002656

Courant Number mean: 0.0464248 max: 0.492879
[INFO] MatrixAssemblyU: 259.467 [ms]
DILUPBiCGStab:  Solving for Ux, Initial residual = 0.0156513, Final residual = 0.0012438, No Iterations 5
DILUPBiCGStab:  Solving for Uy, Initial residual = 0.0572984, Final residual = 0.00351958, No Iterations 5
DILUPBiCGStab:  Solving for Uz, Initial residual = 0.57534, Final residual = 0.0384695, No Iterations 5
[INFO] MomentumPredictor: 2948.93 [ms]
[INFO] MatrixAssemblyPI: 342.823 [ms]
[INFO] AdjustPhi: 20.077 [ms]
[INFO] ConstrainPressure: 0.004 [ms]
[INFO] MatrixAssemblyPII: 97.989 [ms]
GAMG:  Solving for p, Initial residual = 0.889819, Final residual = 9.94218e-05, No Iterations 46
[INFO] SolveP: 14426.7 [ms]
time step continuity errors : sum local = 1.26561e-08, global = 4.68148e-22, cumulative = 2.11218e-20
[INFO] ContinuityError: 47.264 [ms]
[INFO] CorrectBoundary: 1.201 [ms]
[INFO] PISOStep: 15047.5 [ms]
[INFO] MatrixAssemblyPI: 336.205 [ms]
[INFO] AdjustPhi: 19.047 [ms]
[INFO] ConstrainPressure: 0.004 [ms]
[INFO] MatrixAssemblyPII: 98.732 [ms]
GAMG:  Solving for p, Initial residual = 0.817482, Final residual = 7.63262e-05, No Iterations 55
[INFO] SolveP: 17137.8 [ms]
time step continuity errors : sum local = 9.7722e-09, global = -3.56513e-22, cumulative = 2.07653e-20
[INFO] ContinuityError: 46.611 [ms]
[INFO] CorrectBoundary: 1.65 [ms]
[INFO] PISOStep: 17750.4 [ms]
[INFO] TimeStep: 36050.2 [ms]
ExecutionTime = 720.56 s  ClockTime = 725 s

Time = 0.002822

Courant Number mean: 0.0475356 max: 0.551525
[INFO] MatrixAssemblyU: 260.981 [ms]
DILUPBiCGStab:  Solving for Ux, Initial residual = 0.015057, Final residual = 0.00114837, No Iterations 5
DILUPBiCGStab:  Solving for Uy, Initial residual = 0.0586412, Final residual = 0.00356149, No Iterations 5
DILUPBiCGStab:  Solving for Uz, Initial residual = 0.580696, Final residual = 0.0369846, No Iterations 5
[INFO] MomentumPredictor: 2947.16 [ms]
[INFO] MatrixAssemblyPI: 345.815 [ms]
[INFO] AdjustPhi: 17.978 [ms]
[INFO] ConstrainPressure: 0.004 [ms]
[INFO] MatrixAssemblyPII: 97.444 [ms]
GAMG:  Solving for p, Initial residual = 0.905022, Final residual = 9.49302e-05, No Iterations 40
[INFO] SolveP: 12558.7 [ms]
time step continuity errors : sum local = 1.21841e-08, global = 2.45239e-21, cumulative = 2.32177e-20
[INFO] ContinuityError: 47.62 [ms]
[INFO] CorrectBoundary: 0.933 [ms]
[INFO] PISOStep: 13180.2 [ms]
[INFO] MatrixAssemblyPI: 335.876 [ms]
[INFO] AdjustPhi: 19.795 [ms]
[INFO] ConstrainPressure: 0.004 [ms]
[INFO] MatrixAssemblyPII: 97.929 [ms]
GAMG:  Solving for p, Initial residual = 0.841162, Final residual = 9.52681e-05, No Iterations 39
[INFO] SolveP: 12205.7 [ms]
time step continuity errors : sum local = 1.21788e-08, global = -8.5094e-22, cumulative = 2.23667e-20
[INFO] ContinuityError: 47.209 [ms]
[INFO] CorrectBoundary: 1.273 [ms]
[INFO] PISOStep: 12818.4 [ms]
[INFO] TimeStep: 29250.9 [ms]
ExecutionTime = 749.69 s  ClockTime = 754 s

Time = 0.002988

Courant Number mean: 0.0485186 max: 0.496237
[INFO] MatrixAssemblyU: 260.645 [ms]
DILUPBiCGStab:  Solving for Ux, Initial residual = 0.0152004, Final residual = 0.00115813, No Iterations 5
DILUPBiCGStab:  Solving for Uy, Initial residual = 0.0555558, Final residual = 0.00321197, No Iterations 5
DILUPBiCGStab:  Solving for Uz, Initial residual = 0.574101, Final residual = 0.0364222, No Iterations 5
[INFO] MomentumPredictor: 2950.77 [ms]
[INFO] MatrixAssemblyPI: 342.229 [ms]
[INFO] AdjustPhi: 20.575 [ms]
[INFO] ConstrainPressure: 0.004 [ms]
[INFO] MatrixAssemblyPII: 97.737 [ms]
GAMG:  Solving for p, Initial residual = 0.894554, Final residual = 9.75766e-05, No Iterations 46
[INFO] SolveP: 14390.4 [ms]
time step continuity errors : sum local = 1.30241e-08, global = -1.42372e-21, cumulative = 2.0943e-20
[INFO] ContinuityError: 47.081 [ms]
[INFO] CorrectBoundary: 1.411 [ms]
[INFO] PISOStep: 15010.5 [ms]
[INFO] MatrixAssemblyPI: 335.455 [ms]
[INFO] AdjustPhi: 20.357 [ms]
[INFO] ConstrainPressure: 0.004 [ms]
[INFO] MatrixAssemblyPII: 98.246 [ms]
GAMG:  Solving for p, Initial residual = 0.820803, Final residual = 9.55362e-05, No Iterations 52
[INFO] SolveP: 16228.5 [ms]
time step continuity errors : sum local = 1.282e-08, global = -8.94055e-22, cumulative = 2.0049e-20
[INFO] ContinuityError: 46.368 [ms]
[INFO] CorrectBoundary: 1.365 [ms]
[INFO] PISOStep: 16842.4 [ms]
[INFO] TimeStep: 35108.3 [ms]
ExecutionTime = 784.64 s  ClockTime = 789 s

Time = 0.003154

Courant Number mean: 0.0495318 max: 0.563349
[INFO] MatrixAssemblyU: 260.424 [ms]
DILUPBiCGStab:  Solving for Ux, Initial residual = 0.0147793, Final residual = 0.00107149, No Iterations 5
DILUPBiCGStab:  Solving for Uy, Initial residual = 0.0571701, Final residual = 0.00327912, No Iterations 5
DILUPBiCGStab:  Solving for Uz, Initial residual = 0.587169, Final residual = 0.0370431, No Iterations 5
[INFO] MomentumPredictor: 2947.51 [ms]
[INFO] MatrixAssemblyPI: 342.693 [ms]
[INFO] AdjustPhi: 19.813 [ms]
[INFO] ConstrainPressure: 0.004 [ms]
[INFO] MatrixAssemblyPII: 97.548 [ms]
GAMG:  Solving for p, Initial residual = 0.907822, Final residual = 6.37548e-05, No Iterations 56
[INFO] SolveP: 17483.1 [ms]
time step continuity errors : sum local = 8.61559e-09, global = -5.21202e-22, cumulative = 1.95278e-20
[INFO] ContinuityError: 47.141 [ms]
[INFO] CorrectBoundary: 1.935 [ms]
[INFO] PISOStep: 18103.6 [ms]
[INFO] MatrixAssemblyPI: 334.089 [ms]
[INFO] AdjustPhi: 21.761 [ms]
[INFO] ConstrainPressure: 0.004 [ms]
[INFO] MatrixAssemblyPII: 98.335 [ms]
GAMG:  Solving for p, Initial residual = 0.841212, Final residual = 9.50354e-05, No Iterations 43
[INFO] SolveP: 13471.5 [ms]
time step continuity errors : sum local = 1.27946e-08, global = 3.83118e-22, cumulative = 1.99109e-20
[INFO] ContinuityError: 46.681 [ms]
[INFO] CorrectBoundary: 1.14 [ms]
[INFO] PISOStep: 14085.1 [ms]
[INFO] TimeStep: 35440.7 [ms]
ExecutionTime = 819.93 s  ClockTime = 825 s

Time = 0.00332

Courant Number mean: 0.0504217 max: 0.499858
[INFO] MatrixAssemblyU: 260.434 [ms]
DILUPBiCGStab:  Solving for Ux, Initial residual = 0.015027, Final residual = 0.00108747, No Iterations 5
DILUPBiCGStab:  Solving for Uy, Initial residual = 0.0548633, Final residual = 0.00298549, No Iterations 5
DILUPBiCGStab:  Solving for Uz, Initial residual = 0.570938, Final residual = 0.032722, No Iterations 5
[INFO] MomentumPredictor: 2946.19 [ms]
[INFO] MatrixAssemblyPI: 343.068 [ms]
[INFO] AdjustPhi: 19.64 [ms]
[INFO] ConstrainPressure: 0.004 [ms]
[INFO] MatrixAssemblyPII: 97.613 [ms]
GAMG:  Solving for p, Initial residual = 0.900053, Final residual = 9.921e-05, No Iterations 59
[INFO] SolveP: 18359.1 [ms]
time step continuity errors : sum local = 1.39156e-08, global = 1.1819e-21, cumulative = 2.10928e-20
[INFO] ContinuityError: 46.521 [ms]
[INFO] CorrectBoundary: 1.166 [ms]
[INFO] PISOStep: 18979.4 [ms]
[INFO] MatrixAssemblyPI: 336.294 [ms]
[INFO] AdjustPhi: 20.297 [ms]
[INFO] ConstrainPressure: 0.005 [ms]
[INFO] MatrixAssemblyPII: 97.255 [ms]
GAMG:  Solving for p, Initial residual = 0.825306, Final residual = 9.86787e-05, No Iterations 52
[INFO] SolveP: 16198.6 [ms]
time step continuity errors : sum local = 1.39317e-08, global = 2.82725e-22, cumulative = 2.13755e-20
[INFO] ContinuityError: 47.668 [ms]
[INFO] CorrectBoundary: 1.107 [ms]
[INFO] PISOStep: 16812.3 [ms]
[INFO] TimeStep: 39042.1 [ms]
ExecutionTime = 858.81 s  ClockTime = 864 s

End

Finalising parallel run
