/*---------------------------------------------------------------------------*\
| =========                 |                                                 |
| \\      /  F ield         | OpenFOAM: The Open Source CFD Toolbox           |
|  \\    /   O peration     | Version:  2306                                  |
|   \\  /    A nd           | Website:  www.openfoam.com                      |
|    \\/     M anipulation  |                                                 |
\*---------------------------------------------------------------------------*/
Build  : a6e826bd55-20230630 OPENFOAM=2306 version=v2306
Arch   : "LSB;label=32;scalar=64"
Exec   : simpleFoam -parallel -case /home/greole/data/code/exasim_project/micro_benchmarks/WindsorBody/workspace/c31a0305f4646e3ad6ded20081b26f3b/case
Date   : Aug 27 2023
Time   : 14:51:09
Host   : nla-gpu2.ianm.kit.edu
PID    : 3069722
I/O    : uncollated
Case   : /home/greole/data/code/exasim_project/micro_benchmarks/WindsorBody/workspace/c31a0305f4646e3ad6ded20081b26f3b/case
nProcs : 32
Hosts  :
(
    (nla-gpu2.ianm.kit.edu 32)
)
Pstream initialized with:
    floatTransfer      : false
    nProcsSimpleSum    : 0
    nonBlockingExchange: 0 (tuning: 0)
    exchange algorithm : -1
    commsType          : nonBlocking
    polling iterations : 0
trapFpe: Floating point exception trapping enabled (FOAM_SIGFPE).
fileModificationChecking : Monitoring run-time modified files using timeStampMaster (fileModificationSkew 5, maxFileModificationPolls 20)
allowSystemOperations : Allowing user-supplied system call operations

// * * * * * * * * * * * * * * * * * * * * * * * * * * * * * * * * * * * * * //
Create time

--> FOAM Warning : 
    From void* Foam::dlLibraryTable::openLibrary(const Foam::fileName&, bool)
    in file db/dynamicLibrary/dlLibraryTable/dlLibraryTable.C at line 188
    Could not load "libpetscFoam.so"
libpetscFoam.so: cannot open shared object file: No such file or directory
Create mesh for time = 0


SIMPLE: convergence criteria
    field p	 tolerance 1e-08
    field U	 tolerance 1e-08
    field k	 tolerance 1e-08
    field omega	 tolerance 1e-08
    field nuTilda	 tolerance 1e-08

Reading field p

Reading field U

Reading/calculating face flux field phi

Selecting incompressible transport model Newtonian
Selecting turbulence model type RAS
Selecting RAS turbulence model SpalartAllmaras
Selecting patchDistMethod meshWave
ft2 term: inactive
RAS
{
    RASModel        SpalartAllmaras;
    turbulence      on;
    printCoeffs     on;
    sigmaNut        0.66666;
    kappa           0.41;
    Cb1             0.1355;
    Cb2             0.622;
    Cw2             0.3;
    Cw3             2;
    Cv1             7.1;
    Cs              0.3;
    ck              0.07000000000000001;
    ft2             false;
    Ct3             1.2;
    Ct4             0.5;
}

No MRF models present

Creating finite volume options from "system/fvOptions"

Selecting finite volume options type velocityDampingConstraint
    Source: velocityDamping
    - selecting all cells
    - selected 50457088 cell(s) with volume 222.6066441282529

Starting time loop

--> FOAM Warning : 
    From bool Foam::functionObjectList::read()
    in file db/functionObjects/functionObjectList/functionObjectList.C at line 1035
    Reading "system/controlDict" at line 2 to 41
    Entry 'lref' is not a dictionary
--> FOAM Warning : 
    From bool Foam::functionObjectList::read()
    in file db/functionObjects/functionObjectList/functionObjectList.C at line 1035
    Reading "system/controlDict" at line 2 to 41
    Entry 'Aref' is not a dictionary
--> FOAM Warning : 
    From bool Foam::functionObjectList::read()
    in file db/functionObjects/functionObjectList/functionObjectList.C at line 1035
    Reading "system/controlDict" at line 2 to 41
    Entry 'yawAngle' is not a dictionary
--> FOAM Warning : 
    From bool Foam::functionObjectList::read()
    in file db/functionObjects/functionObjectList/functionObjectList.C at line 1035
    Reading "system/controlDict" at line 2 to 41
    Entry 'lDomain' is not a dictionary
--> FOAM Warning : 
    From bool Foam::functionObjectList::read()
    in file db/functionObjects/functionObjectList/functionObjectList.C at line 1035
    Reading "system/controlDict" at line 2 to 41
    Entry 'bDomain' is not a dictionary
--> FOAM Warning : 
    From bool Foam::functionObjectList::read()
    in file db/functionObjects/functionObjectList/functionObjectList.C at line 1035
    Reading "system/controlDict" at line 2 to 41
    Entry 'hDomain' is not a dictionary
--> FOAM Warning : 
    From bool Foam::functionObjectList::read()
    in file db/functionObjects/functionObjectList/functionObjectList.C at line 1035
    Reading "system/controlDict" at line 2 to 41
    Entry 'xCenter' is not a dictionary
--> FOAM Warning : 
    From bool Foam::functionObjectList::read()
    in file db/functionObjects/functionObjectList/functionObjectList.C at line 1035
    Reading "system/controlDict" at line 2 to 41
    Entry 'yCenter' is not a dictionary
--> FOAM Warning : 
    From bool Foam::functionObjectList::read()
    in file db/functionObjects/functionObjectList/functionObjectList.C at line 1035
    Reading "system/controlDict" at line 2 to 41
    Entry 'zCenter' is not a dictionary
--> FOAM Warning : 
    From bool Foam::functionObjectList::read()
    in file db/functionObjects/functionObjectList/functionObjectList.C at line 1035
    Reading "system/controlDict" at line 2 to 41
    Entry 'inletPatch' is not a dictionary
--> FOAM Warning : 
    From bool Foam::functionObjectList::read()
    in file db/functionObjects/functionObjectList/functionObjectList.C at line 1035
    Reading "system/controlDict" at line 2 to 41
    Entry 'outletPatch' is not a dictionary
--> FOAM Warning : 
    From bool Foam::functionObjectList::read()
    in file db/functionObjects/functionObjectList/functionObjectList.C at line 1035
    Reading "system/controlDict" at line 2 to 41
    Entry 'wallPatches' is not a dictionary
--> FOAM Warning : 
    From bool Foam::functionObjectList::read()
    in file db/functionObjects/functionObjectList/functionObjectList.C at line 1035
    Reading "system/controlDict" at line 2 to 41
    Entry 'forcesWallPatches' is not a dictionary
--> FOAM Warning : 
    From bool Foam::functionObjectList::read()
    in file db/functionObjects/functionObjectList/functionObjectList.C at line 1035
    Reading "system/controlDict" at line 2 to 41
    Entry 'symmPatches' is not a dictionary
--> FOAM Warning : 
    From bool Foam::functionObjectList::read()
    in file db/functionObjects/functionObjectList/functionObjectList.C at line 1035
    Reading "system/controlDict" at line 2 to 41
    Entry 'Uinf' is not a dictionary
--> FOAM Warning : 
    From bool Foam::functionObjectList::read()
    in file db/functionObjects/functionObjectList/functionObjectList.C at line 1035
    Reading "system/controlDict" at line 2 to 41
    Entry 'UinfMag' is not a dictionary
--> FOAM Warning : 
    From bool Foam::functionObjectList::read()
    in file db/functionObjects/functionObjectList/functionObjectList.C at line 1035
    Reading "system/controlDict" at line 2 to 41
    Entry 'nu' is not a dictionary
--> FOAM Warning : 
    From bool Foam::functionObjectList::read()
    in file db/functionObjects/functionObjectList/functionObjectList.C at line 1035
    Reading "system/controlDict" at line 2 to 41
    Entry 'pref' is not a dictionary
--> FOAM Warning : 
    From bool Foam::functionObjectList::read()
    in file db/functionObjects/functionObjectList/functionObjectList.C at line 1035
    Reading "system/controlDict" at line 2 to 41
    Entry 'viscRatio' is not a dictionary
--> FOAM Warning : 
    From bool Foam::functionObjectList::read()
    in file db/functionObjects/functionObjectList/functionObjectList.C at line 1035
    Reading "system/controlDict" at line 2 to 41
    Entry 'Tu' is not a dictionary
--> FOAM Warning : 
    From bool Foam::functionObjectList::read()
    in file db/functionObjects/functionObjectList/functionObjectList.C at line 1035
    Reading "system/controlDict" at line 2 to 41
    Entry 'LESturbModel' is not a dictionary
--> FOAM Warning : 
    From bool Foam::functionObjectList::read()
    in file db/functionObjects/functionObjectList/functionObjectList.C at line 1035
    Reading "system/controlDict" at line 2 to 41
    Entry 'RASturbModel' is not a dictionary
--> FOAM Warning : 
    From bool Foam::functionObjectList::read()
    in file db/functionObjects/functionObjectList/functionObjectList.C at line 1035
    Reading "system/controlDict" at line 2 to 41
    Entry 'deltaTurb' is not a dictionary
--> FOAM Warning : 
    From bool Foam::functionObjectList::read()
    in file db/functionObjects/functionObjectList/functionObjectList.C at line 1035
    Reading "system/controlDict" at line 2 to 41
    Entry 'dt' is not a dictionary
--> FOAM Warning : 
    From bool Foam::functionObjectList::read()
    in file db/functionObjects/functionObjectList/functionObjectList.C at line 1035
    Reading "system/controlDict" at line 2 to 41
    Entry 'tAvg' is not a dictionary
--> FOAM Warning : 
    From bool Foam::functionObjectList::read()
    in file db/functionObjects/functionObjectList/functionObjectList.C at line 1035
    Reading "system/controlDict" at line 2 to 41
    Entry 'tEnd' is not a dictionary
--> FOAM Warning : 
    From bool Foam::functionObjectList::read()
    in file db/functionObjects/functionObjectList/functionObjectList.C at line 1035
    Reading "system/controlDict" at line 2 to 41
    Entry 'writeInterval_' is not a dictionary
--> FOAM Warning : 
    From bool Foam::functionObjectList::read()
    in file db/functionObjects/functionObjectList/functionObjectList.C at line 1035
    Reading "system/controlDict" at line 2 to 41
    Entry 'nCores' is not a dictionary
--> FOAM Warning : 
    From bool Foam::functionObjectList::read()
    in file db/functionObjects/functionObjectList/functionObjectList.C at line 1035
    Reading "system/controlDict" at line 2 to 41
    Entry 'interpScheme' is not a dictionary
--> FOAM Warning : 
    From bool Foam::functionObjectList::read()
    in file db/functionObjects/functionObjectList/functionObjectList.C at line 1035
    Reading "system/controlDict" at line 2 to 41
    Entry 'probeField' is not a dictionary
wallShearStress wallShearStress:
    processing wall patches: 
        Windsor_Body
        CFDWT_Floor
        Windsor_Pins
        Windsor_Base
        Windsor_Body_2
        CFDWT_Floor_2
        Windsor_Pins_2
        Windsor_Base_2
        Windsor_Body_3
        CFDWT_Floor_3
        Windsor_Pins_3
        Windsor_Base_3
        Windsor_Body_4
        CFDWT_Floor_4
        Windsor_Pins_4
        Windsor_Base_4
        Windsor_Body_5
        CFDWT_Floor_5
        Windsor_Pins_5
        Windsor_Base_5
        Windsor_Body_6
        CFDWT_Floor_6
        Windsor_Pins_6
        Windsor_Base_6
        Windsor_Body_7
        CFDWT_Floor_7
        Windsor_Pins_7
        Windsor_Base_7
        Windsor_Body_8
        CFDWT_Floor_8
        Windsor_Pins_8
        Windsor_Base_8

pressure calc_cp:
    Operating mode: staticCoeff
    Not including hydrostatic effects

forceCoeffs forceCoeffsAll:
    rho: rhoInf
    Freestream density (rhoInf) set to 1
    Not including porosity effects
    magUInf: 40
    lRef   : 0.6375
    Aref   : 0.1124
    rhoInf : 1
    Selecting all coefficients
    - Drag force: Cd
    - Drag force front: Cd(f)
    - Drag force rear: Cd(r)
    - Lift force: Cl
    - Lift force front: Cl(f)
    - Lift force rear: Cl(r)
    - Pitch moment: CmPitch
    - Roll moment: CmRoll
    - Yaw moment: CmYaw
    - Side force: Cs
    - Side force front: Cs(f)
    - Side force rear: Cs(r)


forceCoeffs dragCoeffBase:
    rho: rhoInf
    Freestream density (rhoInf) set to 1
    Not including porosity effects
    magUInf: 40
    lRef   : 0.6375
    Aref   : 0.1124
    rhoInf : 1
    Selecting coefficients:
    - Drag force: Cd


Time = 1

velocityDampingConstraint velocityDamping damped 0 (0%) of cells, with max limit 300
[INFO] MatrixAssemblyU: 3557.814 [ms]
smoothSolver:  Solving for Ux, Initial residual = 0.9999999999992296, Final residual = 0.087305782345205, No Iterations 15
smoothSolver:  Solving for Uy, Initial residual = 1, Final residual = 0.08967552546616946, No Iterations 31
smoothSolver:  Solving for Uz, Initial residual = 1, Final residual = 0.0328581754778575, No Iterations 2
[INFO] MomentumPredictor: 3883.385 [ms]
[INFO] MatrixAssemblyPI: 668.487 [ms]
[INFO] MatrixAssemblyPII: 313.591 [ms]
[OGL LOG][lduLduBase.H:119] Initialising OGL
	OGL commit:  4647ee1+
	Branch: PersistentDeviceIdGuard 
	Build type: Release
	Ginkgo version: 1.5.0 ( develop)
	Ginkgo commit: 4292ffdee
	MPI is GPU aware: 1
	Forces host buffer based communication: 0
	CPU ranks per GPU: 1
	Matrix format: Coo
	End OGL_INFO
[OGL LOG][Proc: 0]: global_index_init: 11.507 [ms]
[OGL LOG][Proc: 0]p_local_cols: call_init: 0.045 [ms]
[OGL LOG][Proc: 0]p_local_rows: call_init: 0.003 [ms]
[OGL LOG][Proc: 0]p_local_ldu_map: call_init: 0.003 [ms]
[OGL LOG][Proc: 0]p_local_coeffs: call_init: 0.014 [ms]
[OGL LOG][Proc: 0]p_non_local_cols: call_init: 0.004 [ms]
[OGL LOG][Proc: 0]p_non_local_rows: call_init: 0.003 [ms]
[OGL LOG][Proc: 0]p_non_local_ldu_map: call_init: 0.003 [ms]
[OGL LOG][Proc: 0]p_non_local_coeffs: call_init: 0.003 [ms]
[OGL LOG][Proc: 0]p: init_local_sparsity_pattern: 488.131 [ms]
[OGL LOG][Proc: 0]p: init_non_local_sparsity_pattern: 51.575 [ms]
[OGL LOG][Proc: 0]p: update_local_matrix_data: 58.141 [ms]
[OGL LOG][Proc: 0]p: update_non_local_matrix_data: 0.25 [ms]
[OGL LOG][Proc: 0]device_partition: call_init: 6.511 [ms]
[OGL LOG][Proc: 0]p_matrix: call_init: 268.214 [ms]
[OGL LOG][Proc: 0]p_rhs: call_init: 24.733 [ms]
[OGL LOG][Proc: 0]p_solution: call_init: 3.764 [ms]
[OGL LOG][Preconditioner.H:121] Generate preconditioner BJ MaxBlockSize 1
[OGL LOG][Proc: 0]p: init_precond: 5.876 [ms]
[OGL LOG][StoppingCriterion.H:373] Creating stopping criterion with minIter 0 frequency 1
[OGL LOG][Proc: 0]p: generate_solver: 0.019 [ms]
[OGL LOG][Proc: 0]p: solve: 5776.299 [ms]
[OGL LOG][Proc: 0]p: copy_x_back: 8.554 [ms]
[OGL LOG][lduLduBase.H:336] 
Statistics:
	Time per iteration: 4874 [mu s]
	Time per residual norm calculation: 2240.000000 [mu s]
	Time per iteration and DOF: 0.096597 [ns]
	Retrieve results bandwidth 1.747000 [GByte/s]
[OGL LOG][Proc: 0]p: solve_multi_gpu: 6095.267 [ms]
BJhipGKOCG:  Solving for p, Initial residual = 1.000000000000567, Final residual = 0.009978643525345327, No Iterations 1185
[INFO] SolveP: 7077.016 [ms]
time step continuity errors : sum local = 0.003661210703720667, global = -2.782550962015507e-06, cumulative = -2.782550962015507e-06
[INFO] postSolveP: 162.141 [ms]
smoothSolver:  Solving for nuTilda, Initial residual = 0.9999999959861058, Final residual = 0.0642916650738256, No Iterations 3
[INFO] TimeStep: 17924.597 [ms]
ExecutionTime = 61.47 s  ClockTime = 62 s

--> FOAM Warning : 
    From virtual bool Foam::functionObjects::fieldSelection::checkSelection()
    in file functionObjects/fieldSelections/fieldSelection/fieldSelection.C at line 166
    Field k not found
--> FOAM Warning : 
    From virtual bool Foam::functionObjects::fieldSelection::checkSelection()
    in file functionObjects/fieldSelections/fieldSelection/fieldSelection.C at line 166
    Field gammaInt not found
--> FOAM Warning : 
    From virtual bool Foam::functionObjects::fieldSelection::checkSelection()
    in file functionObjects/fieldSelections/fieldSelection/fieldSelection.C at line 166
    Field omega not found
--> FOAM Warning : 
    From virtual bool Foam::functionObjects::fieldSelection::checkSelection()
    in file functionObjects/fieldSelections/fieldSelection/fieldSelection.C at line 166
    Field ReThetat not found
--> FOAM Warning : 
    From virtual bool Foam::functionObjects::fieldSelection::checkSelection()
    in file functionObjects/fieldSelections/fieldSelection/fieldSelection.C at line 166
    Field epsilon not found
--> FOAM Warning : 
    From virtual bool Foam::functionObjects::solverFieldSelection::updateSelection()
    in file functionObjects/fieldSelections/solverFieldSelection/solverFieldSelection.C at line 85
    Valid solver fields are: 3(U nuTilda p)Time = 2

velocityDampingConstraint velocityDamping damped 0 (0%) of cells, with max limit 300
[INFO] MatrixAssemblyU: 3405.42 [ms]
smoothSolver:  Solving for Ux, Initial residual = 0.2130939505538798, Final residual = 0.01840075894422109, No Iterations 13
smoothSolver:  Solving for Uy, Initial residual = 0.3542961198127553, Final residual = 0.03298443190591476, No Iterations 13
smoothSolver:  Solving for Uz, Initial residual = 0.3287075101598566, Final residual = 0.02813006871102135, No Iterations 13
[INFO] MomentumPredictor: 3248.46 [ms]
[INFO] MatrixAssemblyPI: 661.8680000000001 [ms]
[INFO] MatrixAssemblyPII: 311.631 [ms]
[OGL LOG][Proc: 0]: global_index_init: 0.035 [ms]
[OGL LOG][Proc: 0]p_local_coeffs: call_update: 0.001 [ms]
[OGL LOG][Proc: 0]p_non_local_coeffs: call_update: 0 [ms]
[OGL LOG][Proc: 0]p: update_local_matrix_data: 82.009 [ms]
[OGL LOG][Proc: 0]p: update_non_local_matrix_data: 0.203 [ms]
[OGL LOG][Proc: 0]p_matrix: call_update: 27.159 [ms]
[OGL LOG][Proc: 0]p_rhs: call_update: 7.682 [ms]
[OGL LOG][Preconditioner.H:121] Generate preconditioner BJ MaxBlockSize 1
[OGL LOG][Proc: 0]p: init_precond: 1.511 [ms]
[OGL LOG][StoppingCriterion.H:373] Creating stopping criterion with minIter 711 frequency 15
[OGL LOG][Proc: 0]p: generate_solver: 0.001 [ms]
[OGL LOG][Proc: 0]p: solve: 2950.349 [ms]
[OGL LOG][Proc: 0]p: copy_x_back: 7.866000000000001 [ms]
[OGL LOG][lduLduBase.H:336] 
Statistics:
	Time per iteration: 3070 [mu s]
	Time per residual norm calculation: 370.000000 [mu s]
	Time per iteration and DOF: 0.060844 [ns]
	Retrieve results bandwidth 1.900000 [GByte/s]
[OGL LOG][Proc: 0]p: solve_multi_gpu: 2995.917 [ms]
BJhipGKOCG:  Solving for p, Initial residual = 0.2097846590799202, Final residual = 0.001754327956875753, No Iterations 961
[INFO] SolveP: 3095.691 [ms]
time step continuity errors : sum local = 0.03596035641903398, global = 0.001697434683528812, cumulative = 0.001694652132566796
[INFO] postSolveP: 160.54 [ms]
smoothSolver:  Solving for nuTilda, Initial residual = 0.4060370718601716, Final residual = 0.02532637332728328, No Iterations 1
[INFO] TimeStep: 13042.048 [ms]
ExecutionTime = 77.48 s  ClockTime = 77 s

Time = 3

velocityDampingConstraint velocityDamping damped 6642 (0.01%) of cells, with max limit 300
[INFO] MatrixAssemblyU: 3444.262 [ms]
smoothSolver:  Solving for Ux, Initial residual = 0.1248206991060754, Final residual = 0.01171404676679709, No Iterations 9
smoothSolver:  Solving for Uy, Initial residual = 0.205688597830447, Final residual = 0.01959817918437506, No Iterations 10
smoothSolver:  Solving for Uz, Initial residual = 0.2186523601854082, Final residual = 0.02134845828415225, No Iterations 9
[INFO] MomentumPredictor: 2500.259 [ms]
[INFO] MatrixAssemblyPI: 664.5599999999999 [ms]
[INFO] MatrixAssemblyPII: 309.965 [ms]
[OGL LOG][Proc: 0]: global_index_init: 0.033 [ms]
[OGL LOG][Proc: 0]p_local_coeffs: call_update: 0 [ms]
[OGL LOG][Proc: 0]p_non_local_coeffs: call_update: 0 [ms]
[OGL LOG][Proc: 0]p: update_local_matrix_data: 81.708 [ms]
[OGL LOG][Proc: 0]p: update_non_local_matrix_data: 0.236 [ms]
[OGL LOG][Proc: 0]p_matrix: call_update: 21.77 [ms]
[OGL LOG][Proc: 0]p_rhs: call_update: 8.356999999999999 [ms]
[OGL LOG][Preconditioner.H:121] Generate preconditioner BJ MaxBlockSize 1
[OGL LOG][Proc: 0]p: init_precond: 1.488 [ms]
[OGL LOG][StoppingCriterion.H:373] Creating stopping criterion with minIter 576 frequency 6
[OGL LOG][Proc: 0]p: generate_solver: 0.001 [ms]
[OGL LOG][Proc: 0]p: solve: 1840.546 [ms]
[OGL LOG][Proc: 0]p: copy_x_back: 8.151 [ms]
[OGL LOG][lduLduBase.H:336] 
Statistics:
	Time per iteration: 3189 [mu s]
	Time per residual norm calculation: 409.000000 [mu s]
	Time per iteration and DOF: 0.063202 [ns]
	Retrieve results bandwidth 1.834000 [GByte/s]
[OGL LOG][Proc: 0]p: solve_multi_gpu: 1881.593 [ms]
BJhipGKOCG:  Solving for p, Initial residual = 0.1171638246451264, Final residual = 0.001128548720451148, No Iterations 577
[INFO] SolveP: 1985.1 [ms]
time step continuity errors : sum local = 0.01273359941281203, global = 7.024740454071994e-05, cumulative = 0.001764899537107516
[INFO] postSolveP: 158.842 [ms]
smoothSolver:  Solving for nuTilda, Initial residual = 0.2092645395363329, Final residual = 0.01312518405543551, No Iterations 2
[INFO] TimeStep: 11271.312 [ms]
ExecutionTime = 91.62 s  ClockTime = 91 s

Time = 4

velocityDampingConstraint velocityDamping damped 0 (0%) of cells, with max limit 300
[INFO] MatrixAssemblyU: 3399.039 [ms]
smoothSolver:  Solving for Ux, Initial residual = 0.05439001881498282, Final residual = 0.004947348110153646, No Iterations 11
smoothSolver:  Solving for Uy, Initial residual = 0.1223303445121294, Final residual = 0.01093897830157895, No Iterations 11
smoothSolver:  Solving for Uz, Initial residual = 0.1336427263086934, Final residual = 0.01300052050310458, No Iterations 10
[INFO] MomentumPredictor: 2782.174 [ms]
[INFO] MatrixAssemblyPI: 666.27 [ms]
[INFO] MatrixAssemblyPII: 312.706 [ms]
[OGL LOG][Proc: 0]: global_index_init: 0.031 [ms]
[OGL LOG][Proc: 0]p_local_coeffs: call_update: 0 [ms]
[OGL LOG][Proc: 0]p_non_local_coeffs: call_update: 0 [ms]
[OGL LOG][Proc: 0]p: update_local_matrix_data: 80.517 [ms]
[OGL LOG][Proc: 0]p: update_non_local_matrix_data: 0.499 [ms]
[OGL LOG][Proc: 0]p_matrix: call_update: 19.9 [ms]
[OGL LOG][Proc: 0]p_rhs: call_update: 15.499 [ms]
[OGL LOG][Preconditioner.H:121] Generate preconditioner BJ MaxBlockSize 1
[OGL LOG][Proc: 0]p: init_precond: 1.459 [ms]
[OGL LOG][StoppingCriterion.H:373] Creating stopping criterion with minIter 346 frequency 5
[OGL LOG][Proc: 0]p: generate_solver: 0.001 [ms]
[OGL LOG][Proc: 0]p: solve: 1168.377 [ms]
[OGL LOG][Proc: 0]p: copy_x_back: 7.36 [ms]
[OGL LOG][lduLduBase.H:336] 
Statistics:
	Time per iteration: 3281 [mu s]
	Time per residual norm calculation: 382.000000 [mu s]
	Time per iteration and DOF: 0.065026 [ns]
	Retrieve results bandwidth 2.031000 [GByte/s]
[OGL LOG][Proc: 0]p: solve_multi_gpu: 1213.876 [ms]
BJhipGKOCG:  Solving for p, Initial residual = 0.1410527350176384, Final residual = 0.001368219849195452, No Iterations 356
[INFO] SolveP: 1312.549 [ms]
time step continuity errors : sum local = 0.01303802024266181, global = -0.0002870784303237501, cumulative = 0.001477821106783766
[INFO] postSolveP: 157.664 [ms]
smoothSolver:  Solving for nuTilda, Initial residual = 0.124664960126518, Final residual = 0.01051583011337831, No Iterations 2
[INFO] TimeStep: 10826.761 [ms]
ExecutionTime = 105.21 s  ClockTime = 105 s

Time = 5

velocityDampingConstraint velocityDamping damped 899 (0%) of cells, with max limit 300
[INFO] MatrixAssemblyU: 3396.705 [ms]
smoothSolver:  Solving for Ux, Initial residual = 0.04395672447675437, Final residual = 0.004191750423673182, No Iterations 10
smoothSolver:  Solving for Uy, Initial residual = 0.09782554370310699, Final residual = 0.009217661503793681, No Iterations 11
smoothSolver:  Solving for Uz, Initial residual = 0.113805612740973, Final residual = 0.01127453408654623, No Iterations 10
[INFO] MomentumPredictor: 2713.006 [ms]
[INFO] MatrixAssemblyPI: 662.207 [ms]
[INFO] MatrixAssemblyPII: 310.172 [ms]
[OGL LOG][Proc: 0]: global_index_init: 0.041 [ms]
[OGL LOG][Proc: 0]p_local_coeffs: call_update: 0 [ms]
[OGL LOG][Proc: 0]p_non_local_coeffs: call_update: 0 [ms]
[OGL LOG][Proc: 0]p: update_local_matrix_data: 83.26000000000001 [ms]
[OGL LOG][Proc: 0]p: update_non_local_matrix_data: 0.218 [ms]
[OGL LOG][Proc: 0]p_matrix: call_update: 18.857 [ms]
[OGL LOG][Proc: 0]p_rhs: call_update: 11.285 [ms]
[OGL LOG][Preconditioner.H:121] Generate preconditioner BJ MaxBlockSize 1
[OGL LOG][Proc: 0]p: init_precond: 1.683 [ms]
[OGL LOG][StoppingCriterion.H:373] Creating stopping criterion with minIter 213 frequency 4
[OGL LOG][Proc: 0]p: generate_solver: 0.001 [ms]
[OGL LOG][Proc: 0]p: solve: 1164.318 [ms]
[OGL LOG][Proc: 0]p: copy_x_back: 7.974 [ms]
[OGL LOG][lduLduBase.H:336] 
Statistics:
	Time per iteration: 3454 [mu s]
	Time per residual norm calculation: 369.000000 [mu s]
	Time per iteration and DOF: 0.068454 [ns]
	Retrieve results bandwidth 1.874000 [GByte/s]
[OGL LOG][Proc: 0]p: solve_multi_gpu: 1205.365 [ms]
BJhipGKOCG:  Solving for p, Initial residual = 0.1029195797578015, Final residual = 0.001026782005650937, No Iterations 337
[INFO] SolveP: 1308.407 [ms]
time step continuity errors : sum local = 0.007657690192338224, global = 0.0003911900054285681, cumulative = 0.001869011112212334
[INFO] postSolveP: 160.74 [ms]
smoothSolver:  Solving for nuTilda, Initial residual = 0.07090346586058682, Final residual = 0.004311459346691906, No Iterations 3
[INFO] TimeStep: 10818.183 [ms]
ExecutionTime = 118.75 s  ClockTime = 118 s

Time = 6

velocityDampingConstraint velocityDamping damped 0 (0%) of cells, with max limit 300
[INFO] MatrixAssemblyU: 3371.46 [ms]
smoothSolver:  Solving for Ux, Initial residual = 0.02988217564777117, Final residual = 0.00266084095829006, No Iterations 12
smoothSolver:  Solving for Uy, Initial residual = 0.07443912054356749, Final residual = 0.00688819489275149, No Iterations 12
smoothSolver:  Solving for Uz, Initial residual = 0.08087083994763697, Final residual = 0.006927996810667478, No Iterations 12
[INFO] MomentumPredictor: 3042.364 [ms]
[INFO] MatrixAssemblyPI: 665.999 [ms]
[INFO] MatrixAssemblyPII: 314.174 [ms]
[OGL LOG][Proc: 0]: global_index_init: 0.035 [ms]
[OGL LOG][Proc: 0]p_local_coeffs: call_update: 0 [ms]
[OGL LOG][Proc: 0]p_non_local_coeffs: call_update: 0 [ms]
[OGL LOG][Proc: 0]p: update_local_matrix_data: 81.553 [ms]
[OGL LOG][Proc: 0]p: update_non_local_matrix_data: 0.244 [ms]
[OGL LOG][Proc: 0]p_matrix: call_update: 38.014 [ms]
[OGL LOG][Proc: 0]p_rhs: call_update: 1.866 [ms]
[OGL LOG][Preconditioner.H:121] Generate preconditioner BJ MaxBlockSize 1
[OGL LOG][Proc: 0]p: init_precond: 1.539 [ms]
[OGL LOG][StoppingCriterion.H:373] Creating stopping criterion with minIter 202 frequency 3
[OGL LOG][Proc: 0]p: generate_solver: 0.001 [ms]
[OGL LOG][Proc: 0]p: solve: 1106.267 [ms]
[OGL LOG][Proc: 0]p: copy_x_back: 8.226000000000001 [ms]
[OGL LOG][lduLduBase.H:336] 
Statistics:
	Time per iteration: 3403 [mu s]
	Time per residual norm calculation: 376.000000 [mu s]
	Time per iteration and DOF: 0.067443 [ns]
	Retrieve results bandwidth 1.817000 [GByte/s]
[OGL LOG][Proc: 0]p: solve_multi_gpu: 1157.12 [ms]
BJhipGKOCG:  Solving for p, Initial residual = 0.09132260058091282, Final residual = 0.0008961094374564347, No Iterations 325
[INFO] SolveP: 1256.506 [ms]
time step continuity errors : sum local = 0.006953917572858599, global = 0.0001450908334822993, cumulative = 0.002014101945694634
[INFO] postSolveP: 159.05 [ms]
smoothSolver:  Solving for nuTilda, Initial residual = 0.0642388444739654, Final residual = 0.003005373876859969, No Iterations 3
[INFO] TimeStep: 11067.181 [ms]
ExecutionTime = 132.52 s  ClockTime = 132 s

Time = 7

velocityDampingConstraint velocityDamping damped 104 (0%) of cells, with max limit 300
[INFO] MatrixAssemblyU: 3362.903 [ms]
smoothSolver:  Solving for Ux, Initial residual = 0.02701618185574971, Final residual = 0.002408447172104334, No Iterations 12
smoothSolver:  Solving for Uy, Initial residual = 0.06736648206032034, Final residual = 0.006371541846621316, No Iterations 12
smoothSolver:  Solving for Uz, Initial residual = 0.07109255393567927, Final residual = 0.006218627240500191, No Iterations 12
[INFO] MomentumPredictor: 3054.471 [ms]
[INFO] MatrixAssemblyPI: 664.389 [ms]
[INFO] MatrixAssemblyPII: 309.473 [ms]
[OGL LOG][Proc: 0]: global_index_init: 0.059 [ms]
[OGL LOG][Proc: 0]p_local_coeffs: call_update: 0 [ms]
[OGL LOG][Proc: 0]p_non_local_coeffs: call_update: 0 [ms]
[OGL LOG][Proc: 0]p: update_local_matrix_data: 83.004 [ms]
[OGL LOG][Proc: 0]p: update_non_local_matrix_data: 0.217 [ms]
[OGL LOG][Proc: 0]p_matrix: call_update: 21.131 [ms]
[OGL LOG][Proc: 0]p_rhs: call_update: 6.339 [ms]
[OGL LOG][Preconditioner.H:121] Generate preconditioner BJ MaxBlockSize 1
[OGL LOG][Proc: 0]p: init_precond: 1.511 [ms]
[OGL LOG][StoppingCriterion.H:373] Creating stopping criterion with minIter 195 frequency 3
[OGL LOG][Proc: 0]p: generate_solver: 0.001 [ms]
[OGL LOG][Proc: 0]p: solve: 1179.918 [ms]
[OGL LOG][Proc: 0]p: copy_x_back: 8.105 [ms]
[OGL LOG][lduLduBase.H:336] 
Statistics:
	Time per iteration: 3352 [mu s]
	Time per residual norm calculation: 367.000000 [mu s]
	Time per iteration and DOF: 0.066433 [ns]
	Retrieve results bandwidth 1.844000 [GByte/s]
[OGL LOG][Proc: 0]p: solve_multi_gpu: 1218.238 [ms]
BJhipGKOCG:  Solving for p, Initial residual = 0.07949495226344852, Final residual = 0.0007880712197017117, No Iterations 352
[INFO] SolveP: 1319.415 [ms]
time step continuity errors : sum local = 0.005998599225246385, global = -0.0004639910814792862, cumulative = 0.001550110864215347
[INFO] postSolveP: 159.311 [ms]
smoothSolver:  Solving for nuTilda, Initial residual = 0.04910827124436553, Final residual = 0.003229369495353472, No Iterations 3
[INFO] TimeStep: 11131.263 [ms]
ExecutionTime = 146.38 s  ClockTime = 146 s

Time = 8

velocityDampingConstraint velocityDamping damped 0 (0%) of cells, with max limit 300
[INFO] MatrixAssemblyU: 3357.117 [ms]
smoothSolver:  Solving for Ux, Initial residual = 0.02305417948294019, Final residual = 0.00213673874919121, No Iterations 12
smoothSolver:  Solving for Uy, Initial residual = 0.05998166848517751, Final residual = 0.005881074897919531, No Iterations 12
smoothSolver:  Solving for Uz, Initial residual = 0.0620632652326984, Final residual = 0.005623905790160588, No Iterations 12
[INFO] MomentumPredictor: 3059.244 [ms]
[INFO] MatrixAssemblyPI: 666.311 [ms]
[INFO] MatrixAssemblyPII: 311.37 [ms]
[OGL LOG][Proc: 0]: global_index_init: 0.033 [ms]
[OGL LOG][Proc: 0]p_local_coeffs: call_update: 0 [ms]
[OGL LOG][Proc: 0]p_non_local_coeffs: call_update: 0 [ms]
[OGL LOG][Proc: 0]p: update_local_matrix_data: 84.459 [ms]
[OGL LOG][Proc: 0]p: update_non_local_matrix_data: 0.208 [ms]
[OGL LOG][Proc: 0]p_matrix: call_update: 20.166 [ms]
[OGL LOG][Proc: 0]p_rhs: call_update: 7.785 [ms]
[OGL LOG][Preconditioner.H:121] Generate preconditioner BJ MaxBlockSize 1
[OGL LOG][Proc: 0]p: init_precond: 1.522 [ms]
[OGL LOG][StoppingCriterion.H:373] Creating stopping criterion with minIter 211 frequency 3
[OGL LOG][Proc: 0]p: generate_solver: 0.001 [ms]
[OGL LOG][Proc: 0]p: solve: 2405.62 [ms]
[OGL LOG][Proc: 0]p: copy_x_back: 8.120000000000001 [ms]
[OGL LOG][lduLduBase.H:336] 
Statistics:
	Time per iteration: 3190 [mu s]
	Time per residual norm calculation: 378.000000 [mu s]
	Time per iteration and DOF: 0.063222 [ns]
	Retrieve results bandwidth 1.841000 [GByte/s]
[OGL LOG][Proc: 0]p: solve_multi_gpu: 2444.435 [ms]
BJhipGKOCG:  Solving for p, Initial residual = 0.07196387729049102, Final residual = 0.0007093705944232135, No Iterations 754
[INFO] SolveP: 2546.368 [ms]
time step continuity errors : sum local = 0.005505319470175355, global = -0.0003673336110193237, cumulative = 0.001182777253196024
[INFO] postSolveP: 162.635 [ms]
smoothSolver:  Solving for nuTilda, Initial residual = 0.0653339490658047, Final residual = 0.005863135434033922, No Iterations 2
[INFO] TimeStep: 12298.001 [ms]
ExecutionTime = 161.59 s  ClockTime = 161 s

Time = 9

velocityDampingConstraint velocityDamping damped 0 (0%) of cells, with max limit 300
[INFO] MatrixAssemblyU: 3357.618 [ms]
smoothSolver:  Solving for Ux, Initial residual = 0.02047152964320319, Final residual = 0.00190678952236537, No Iterations 12
smoothSolver:  Solving for Uy, Initial residual = 0.05459857099775279, Final residual = 0.005401224885955297, No Iterations 12
smoothSolver:  Solving for Uz, Initial residual = 0.05537095556695225, Final residual = 0.00512515300648719, No Iterations 12
[INFO] MomentumPredictor: 3058.478 [ms]
[INFO] MatrixAssemblyPI: 665.912 [ms]
[INFO] MatrixAssemblyPII: 311.091 [ms]
[OGL LOG][Proc: 0]: global_index_init: 0.054 [ms]
[OGL LOG][Proc: 0]p_local_coeffs: call_update: 0 [ms]
[OGL LOG][Proc: 0]p_non_local_coeffs: call_update: 0 [ms]
[OGL LOG][Proc: 0]p: update_local_matrix_data: 82.721 [ms]
[OGL LOG][Proc: 0]p: update_non_local_matrix_data: 0.235 [ms]
[OGL LOG][Proc: 0]p_matrix: call_update: 17.894 [ms]
[OGL LOG][Proc: 0]p_rhs: call_update: 8.728 [ms]
[OGL LOG][Preconditioner.H:121] Generate preconditioner BJ MaxBlockSize 1
[OGL LOG][Proc: 0]p: init_precond: 1.517 [ms]
[OGL LOG][StoppingCriterion.H:373] Creating stopping criterion with minIter 452 frequency 6
[OGL LOG][Proc: 0]p: generate_solver: 0.001 [ms]
[OGL LOG][Proc: 0]p: solve: 1452.519 [ms]
[OGL LOG][Proc: 0]p: copy_x_back: 8.627000000000001 [ms]
[OGL LOG][lduLduBase.H:336] 
Statistics:
	Time per iteration: 3178 [mu s]
	Time per residual norm calculation: 408.000000 [mu s]
	Time per iteration and DOF: 0.062984 [ns]
	Retrieve results bandwidth 1.732000 [GByte/s]
[OGL LOG][Proc: 0]p: solve_multi_gpu: 1490.521 [ms]
BJhipGKOCG:  Solving for p, Initial residual = 0.06868189282168094, Final residual = 0.0003935755029651194, No Iterations 457
[INFO] SolveP: 1590.887 [ms]
time step continuity errors : sum local = 0.002960989077691926, global = 0.0005086209663873168, cumulative = 0.00169139821958334
[INFO] postSolveP: 158.151 [ms]
smoothSolver:  Solving for nuTilda, Initial residual = 0.04414647000183425, Final residual = 0.00320232004188622, No Iterations 3
[INFO] TimeStep: 11397.588 [ms]
ExecutionTime = 175.75 s  ClockTime = 175 s

Time = 10

velocityDampingConstraint velocityDamping damped 0 (0%) of cells, with max limit 300
[INFO] MatrixAssemblyU: 3352.853 [ms]
smoothSolver:  Solving for Ux, Initial residual = 0.01842809314597519, Final residual = 0.001727762700985586, No Iterations 12
smoothSolver:  Solving for Uy, Initial residual = 0.05017276973915229, Final residual = 0.004977589104551631, No Iterations 12
smoothSolver:  Solving for Uz, Initial residual = 0.05059172889867462, Final residual = 0.004757172189792686, No Iterations 12
[INFO] MomentumPredictor: 3046.239 [ms]
[INFO] MatrixAssemblyPI: 665.123 [ms]
[INFO] MatrixAssemblyPII: 310.907 [ms]
[OGL LOG][Proc: 0]: global_index_init: 0.062 [ms]
[OGL LOG][Proc: 0]p_local_coeffs: call_update: 0 [ms]
[OGL LOG][Proc: 0]p_non_local_coeffs: call_update: 0 [ms]
[OGL LOG][Proc: 0]p: update_local_matrix_data: 81.44800000000001 [ms]
[OGL LOG][Proc: 0]p: update_non_local_matrix_data: 0.258 [ms]
[OGL LOG][Proc: 0]p_matrix: call_update: 26.713 [ms]
[OGL LOG][Proc: 0]p_rhs: call_update: 6.421 [ms]
[OGL LOG][Preconditioner.H:121] Generate preconditioner BJ MaxBlockSize 1
[OGL LOG][Proc: 0]p: init_precond: 1.487 [ms]
[OGL LOG][StoppingCriterion.H:373] Creating stopping criterion with minIter 274 frequency 5
[OGL LOG][Proc: 0]p: generate_solver: 0.001 [ms]
[OGL LOG][Proc: 0]p: solve: 1003.845 [ms]
[OGL LOG][Proc: 0]p: copy_x_back: 8.471 [ms]
[OGL LOG][lduLduBase.H:336] 
Statistics:
	Time per iteration: 3335 [mu s]
	Time per residual norm calculation: 375.000000 [mu s]
	Time per iteration and DOF: 0.066096 [ns]
	Retrieve results bandwidth 1.764000 [GByte/s]
[OGL LOG][Proc: 0]p: solve_multi_gpu: 1048.237 [ms]
BJhipGKOCG:  Solving for p, Initial residual = 0.0628331133475374, Final residual = 0.0006146955935005488, No Iterations 301
[INFO] SolveP: 1148.121 [ms]
time step continuity errors : sum local = 0.004587894367347641, global = 0.0009589351477394054, cumulative = 0.002650333367322746
[INFO] postSolveP: 161.359 [ms]
smoothSolver:  Solving for nuTilda, Initial residual = 0.06967650764038462, Final residual = 0.005492771630152373, No Iterations 2
[INFO] TimeStep: 10873.115 [ms]
ExecutionTime = 189.31 s  ClockTime = 188 s

Time = 11

velocityDampingConstraint velocityDamping damped 0 (0%) of cells, with max limit 300
[INFO] MatrixAssemblyU: 3358.803 [ms]
smoothSolver:  Solving for Ux, Initial residual = 0.01673492383793419, Final residual = 0.001603163067816179, No Iterations 12
smoothSolver:  Solving for Uy, Initial residual = 0.04727419078580727, Final residual = 0.004661560526692511, No Iterations 12
smoothSolver:  Solving for Uz, Initial residual = 0.04714236618633521, Final residual = 0.004471209792014621, No Iterations 12
[INFO] MomentumPredictor: 3052.741 [ms]
[INFO] MatrixAssemblyPI: 668.984 [ms]
[INFO] MatrixAssemblyPII: 312.124 [ms]
[OGL LOG][Proc: 0]: global_index_init: 0.091 [ms]
[OGL LOG][Proc: 0]p_local_coeffs: call_update: 0 [ms]
[OGL LOG][Proc: 0]p_non_local_coeffs: call_update: 0 [ms]
[OGL LOG][Proc: 0]p: update_local_matrix_data: 80.65900000000001 [ms]
[OGL LOG][Proc: 0]p: update_non_local_matrix_data: 0.272 [ms]
[OGL LOG][Proc: 0]p_matrix: call_update: 16.885 [ms]
[OGL LOG][Proc: 0]p_rhs: call_update: 15.395 [ms]
[OGL LOG][Preconditioner.H:121] Generate preconditioner BJ MaxBlockSize 1
[OGL LOG][Proc: 0]p: init_precond: 1.484 [ms]
[OGL LOG][StoppingCriterion.H:373] Creating stopping criterion with minIter 180 frequency 3
[OGL LOG][Proc: 0]p: generate_solver: 0.001 [ms]
[OGL LOG][Proc: 0]p: solve: 2369.664 [ms]
[OGL LOG][Proc: 0]p: copy_x_back: 8.5 [ms]
[OGL LOG][lduLduBase.H:336] 
Statistics:
	Time per iteration: 3180 [mu s]
	Time per residual norm calculation: 372.000000 [mu s]
	Time per iteration and DOF: 0.063024 [ns]
	Retrieve results bandwidth 1.758000 [GByte/s]
[OGL LOG][Proc: 0]p: solve_multi_gpu: 2413.266 [ms]
BJhipGKOCG:  Solving for p, Initial residual = 0.05831600675862358, Final residual = 0.00057414419769275, No Iterations 745
[INFO] SolveP: 2511.924 [ms]
time step continuity errors : sum local = 0.004292105232209152, global = -0.0001520497584119225, cumulative = 0.002498283608910823
[INFO] postSolveP: 161.837 [ms]
smoothSolver:  Solving for nuTilda, Initial residual = 0.0391379401526892, Final residual = 0.003026059118864798, No Iterations 3
[INFO] TimeStep: 12320.174 [ms]
ExecutionTime = 204.52 s  ClockTime = 203 s

Time = 12

velocityDampingConstraint velocityDamping damped 0 (0%) of cells, with max limit 300
[INFO] MatrixAssemblyU: 3363.49 [ms]
smoothSolver:  Solving for Ux, Initial residual = 0.0155921498055003, Final residual = 0.001514739575644905, No Iterations 12
smoothSolver:  Solving for Uy, Initial residual = 0.0456992126373493, Final residual = 0.00444782024107699, No Iterations 12
smoothSolver:  Solving for Uz, Initial residual = 0.0451542191833554, Final residual = 0.004280572497678412, No Iterations 12
[INFO] MomentumPredictor: 3054.241 [ms]
[INFO] MatrixAssemblyPI: 669.992 [ms]
[INFO] MatrixAssemblyPII: 308.399 [ms]
[OGL LOG][Proc: 0]: global_index_init: 0.062 [ms]
[OGL LOG][Proc: 0]p_local_coeffs: call_update: 0 [ms]
[OGL LOG][Proc: 0]p_non_local_coeffs: call_update: 0 [ms]
[OGL LOG][Proc: 0]p: update_local_matrix_data: 82.971 [ms]
[OGL LOG][Proc: 0]p: update_non_local_matrix_data: 0.212 [ms]
[OGL LOG][Proc: 0]p_matrix: call_update: 19.007 [ms]
[OGL LOG][Proc: 0]p_rhs: call_update: 10.872 [ms]
[OGL LOG][Preconditioner.H:121] Generate preconditioner BJ MaxBlockSize 1
[OGL LOG][Proc: 0]p: init_precond: 1.487 [ms]
[OGL LOG][StoppingCriterion.H:373] Creating stopping criterion with minIter 447 frequency 6
[OGL LOG][Proc: 0]p: generate_solver: 0.001 [ms]
[OGL LOG][Proc: 0]p: solve: 1433.679 [ms]
[OGL LOG][Proc: 0]p: copy_x_back: 8.448 [ms]
[OGL LOG][lduLduBase.H:336] 
Statistics:
	Time per iteration: 3178 [mu s]
	Time per residual norm calculation: 411.000000 [mu s]
	Time per iteration and DOF: 0.062984 [ns]
	Retrieve results bandwidth 1.769000 [GByte/s]
[OGL LOG][Proc: 0]p: solve_multi_gpu: 1474.692 [ms]
BJhipGKOCG:  Solving for p, Initial residual = 0.05112787185782976, Final residual = 0.0003157421395769835, No Iterations 451
[INFO] SolveP: 1575.736 [ms]
time step continuity errors : sum local = 0.002520639984820761, global = -0.000355593977729794, cumulative = 0.002142689631181029
[INFO] postSolveP: 158.718 [ms]
smoothSolver:  Solving for nuTilda, Initial residual = 0.06547553649386366, Final residual = 0.005101900086733825, No Iterations 2
[INFO] TimeStep: 11318.506 [ms]
ExecutionTime = 218.6 s  ClockTime = 217 s

Time = 13

velocityDampingConstraint velocityDamping damped 0 (0%) of cells, with max limit 300
[INFO] MatrixAssemblyU: 3356.583 [ms]
smoothSolver:  Solving for Ux, Initial residual = 0.01448595611886488, Final residual = 0.001440202047769409, No Iterations 12
smoothSolver:  Solving for Uy, Initial residual = 0.04349245021098193, Final residual = 0.004245812360804764, No Iterations 12
smoothSolver:  Solving for Uz, Initial residual = 0.04305271578144305, Final residual = 0.004136387822125869, No Iterations 12
[INFO] MomentumPredictor: 3044.837 [ms]
[INFO] MatrixAssemblyPI: 668.908 [ms]
[INFO] MatrixAssemblyPII: 312.369 [ms]
[OGL LOG][Proc: 0]: global_index_init: 0.063 [ms]
[OGL LOG][Proc: 0]p_local_coeffs: call_update: 0 [ms]
[OGL LOG][Proc: 0]p_non_local_coeffs: call_update: 0 [ms]
[OGL LOG][Proc: 0]p: update_local_matrix_data: 82.13500000000001 [ms]
[OGL LOG][Proc: 0]p: update_non_local_matrix_data: 0.217 [ms]
[OGL LOG][Proc: 0]p_matrix: call_update: 16.227 [ms]
[OGL LOG][Proc: 0]p_rhs: call_update: 15.185 [ms]
[OGL LOG][Preconditioner.H:121] Generate preconditioner BJ MaxBlockSize 1
[OGL LOG][Proc: 0]p: init_precond: 1.492 [ms]
[OGL LOG][StoppingCriterion.H:373] Creating stopping criterion with minIter 270 frequency 5
[OGL LOG][Proc: 0]p: generate_solver: 0.001 [ms]
[OGL LOG][Proc: 0]p: solve: 960.472 [ms]
[OGL LOG][Proc: 0]p: copy_x_back: 8.236000000000001 [ms]
[OGL LOG][lduLduBase.H:336] 
Statistics:
	Time per iteration: 3358 [mu s]
	Time per residual norm calculation: 496.000000 [mu s]
	Time per iteration and DOF: 0.066552 [ns]
	Retrieve results bandwidth 1.815000 [GByte/s]
[OGL LOG][Proc: 0]p: solve_multi_gpu: 1002.912 [ms]
BJhipGKOCG:  Solving for p, Initial residual = 0.04861097092487141, Final residual = 0.0004796130201248098, No Iterations 286
[INFO] SolveP: 1106.453 [ms]
time step continuity errors : sum local = 0.00380055028601396, global = -0.0007795275380243435, cumulative = 0.001363162093156686
[INFO] postSolveP: 158.028 [ms]
smoothSolver:  Solving for nuTilda, Initial residual = 0.03471854067913794, Final residual = 0.00282800015480705, No Iterations 3
[INFO] TimeStep: 10894.183 [ms]
ExecutionTime = 232.16 s  ClockTime = 230 s

Time = 14

velocityDampingConstraint velocityDamping damped 0 (0%) of cells, with max limit 300
[INFO] MatrixAssemblyU: 3359.34 [ms]
smoothSolver:  Solving for Ux, Initial residual = 0.01364691950171858, Final residual = 0.001168845767356311, No Iterations 13
smoothSolver:  Solving for Uy, Initial residual = 0.04152277620091799, Final residual = 0.004071722768204116, No Iterations 12
smoothSolver:  Solving for Uz, Initial residual = 0.04193625574196412, Final residual = 0.00404682699312598, No Iterations 12
[INFO] MomentumPredictor: 3118.806 [ms]
[INFO] MatrixAssemblyPI: 664.727 [ms]
[INFO] MatrixAssemblyPII: 312.604 [ms]
[OGL LOG][Proc: 0]: global_index_init: 0.141 [ms]
[OGL LOG][Proc: 0]p_local_coeffs: call_update: 0 [ms]
[OGL LOG][Proc: 0]p_non_local_coeffs: call_update: 0 [ms]
[OGL LOG][Proc: 0]p: update_local_matrix_data: 78.77800000000001 [ms]
[OGL LOG][Proc: 0]p: update_non_local_matrix_data: 0.352 [ms]
[OGL LOG][Proc: 0]p_matrix: call_update: 21.644 [ms]
[OGL LOG][Proc: 0]p_rhs: call_update: 9.606 [ms]
[OGL LOG][Preconditioner.H:121] Generate preconditioner BJ MaxBlockSize 1
[OGL LOG][Proc: 0]p: init_precond: 1.522 [ms]
[OGL LOG][StoppingCriterion.H:373] Creating stopping criterion with minIter 171 frequency 4
[OGL LOG][Proc: 0]p: generate_solver: 0.001 [ms]
[OGL LOG][Proc: 0]p: solve: 2170.896 [ms]
[OGL LOG][Proc: 0]p: copy_x_back: 8.541 [ms]
[OGL LOG][lduLduBase.H:336] 
Statistics:
	Time per iteration: 3169 [mu s]
	Time per residual norm calculation: 372.000000 [mu s]
	Time per iteration and DOF: 0.062806 [ns]
	Retrieve results bandwidth 1.750000 [GByte/s]
[OGL LOG][Proc: 0]p: solve_multi_gpu: 2213.453 [ms]
BJhipGKOCG:  Solving for p, Initial residual = 0.04650385091218581, Final residual = 0.0004574167177198275, No Iterations 685
[INFO] SolveP: 2310.063 [ms]
time step continuity errors : sum local = 0.003616476114439872, global = -0.0002741054711017364, cumulative = 0.00108905662205495
[INFO] postSolveP: 160.101 [ms]
smoothSolver:  Solving for nuTilda, Initial residual = 0.05812982273618427, Final residual = 0.004801944851328233, No Iterations 2
[INFO] TimeStep: 12119.126 [ms]
ExecutionTime = 247.15 s  ClockTime = 245 s

Time = 15

velocityDampingConstraint velocityDamping damped 0 (0%) of cells, with max limit 300
[INFO] MatrixAssemblyU: 3365.736 [ms]
smoothSolver:  Solving for Ux, Initial residual = 0.01294022486767103, Final residual = 0.001113610473188545, No Iterations 13
smoothSolver:  Solving for Uy, Initial residual = 0.04066064998028785, Final residual = 0.003977583191146489, No Iterations 12
smoothSolver:  Solving for Uz, Initial residual = 0.04196918789599745, Final residual = 0.004054382459936877, No Iterations 12
[INFO] MomentumPredictor: 3120.864 [ms]
[INFO] MatrixAssemblyPI: 662.974 [ms]
[INFO] MatrixAssemblyPII: 313.617 [ms]
[OGL LOG][Proc: 0]: global_index_init: 0.103 [ms]
[OGL LOG][Proc: 0]p_local_coeffs: call_update: 0 [ms]
[OGL LOG][Proc: 0]p_non_local_coeffs: call_update: 0 [ms]
[OGL LOG][Proc: 0]p: update_local_matrix_data: 79.32300000000001 [ms]
[OGL LOG][Proc: 0]p: update_non_local_matrix_data: 0.407 [ms]
[OGL LOG][Proc: 0]p_matrix: call_update: 21.406 [ms]
[OGL LOG][Proc: 0]p_rhs: call_update: 14.509 [ms]
[OGL LOG][Preconditioner.H:121] Generate preconditioner BJ MaxBlockSize 1
[OGL LOG][Proc: 0]p: init_precond: 1.493 [ms]
[OGL LOG][StoppingCriterion.H:373] Creating stopping criterion with minIter 411 frequency 5
[OGL LOG][Proc: 0]p: generate_solver: 0 [ms]
[OGL LOG][Proc: 0]p: solve: 1340.614 [ms]
[OGL LOG][Proc: 0]p: copy_x_back: 8.239000000000001 [ms]
[OGL LOG][lduLduBase.H:336] 
Statistics:
	Time per iteration: 3222 [mu s]
	Time per residual norm calculation: 427.000000 [mu s]
	Time per iteration and DOF: 0.063856 [ns]
	Retrieve results bandwidth 1.814000 [GByte/s]
[OGL LOG][Proc: 0]p: solve_multi_gpu: 1387.486 [ms]
BJhipGKOCG:  Solving for p, Initial residual = 0.04681371373214761, Final residual = 0.0004106030542207161, No Iterations 416
[INFO] SolveP: 1484.861 [ms]
time step continuity errors : sum local = 0.003132400358132217, global = 0.0004982506058639194, cumulative = 0.001587307227918869
[INFO] postSolveP: 159.648 [ms]
smoothSolver:  Solving for nuTilda, Initial residual = 0.03139408444045697, Final residual = 0.002662519177298686, No Iterations 3
[INFO] TimeStep: 11366.509 [ms]
ExecutionTime = 261.24 s  ClockTime = 259 s

Time = 16

velocityDampingConstraint velocityDamping damped 0 (0%) of cells, with max limit 300
[INFO] MatrixAssemblyU: 3359.554 [ms]
smoothSolver:  Solving for Ux, Initial residual = 0.01225128582060595, Final residual = 0.001056790662275395, No Iterations 13
smoothSolver:  Solving for Uy, Initial residual = 0.03936887288785235, Final residual = 0.003896994526948661, No Iterations 12
smoothSolver:  Solving for Uz, Initial residual = 0.04166993088924748, Final residual = 0.004049121809216636, No Iterations 12
[INFO] MomentumPredictor: 3122.95 [ms]
[INFO] MatrixAssemblyPI: 664.001 [ms]
[INFO] MatrixAssemblyPII: 310.435 [ms]
[OGL LOG][Proc: 0]: global_index_init: 0.125 [ms]
[OGL LOG][Proc: 0]p_local_coeffs: call_update: 0 [ms]
[OGL LOG][Proc: 0]p_non_local_coeffs: call_update: 0 [ms]
[OGL LOG][Proc: 0]p: update_local_matrix_data: 89.389 [ms]
[OGL LOG][Proc: 0]p: update_non_local_matrix_data: 0.203 [ms]
[OGL LOG][Proc: 0]p_matrix: call_update: 18.444 [ms]
[OGL LOG][Proc: 0]p_rhs: call_update: 5.397 [ms]
[OGL LOG][Preconditioner.H:121] Generate preconditioner BJ MaxBlockSize 1
[OGL LOG][Proc: 0]p: init_precond: 1.458 [ms]
[OGL LOG][StoppingCriterion.H:373] Creating stopping criterion with minIter 249 frequency 4
[OGL LOG][Proc: 0]p: generate_solver: 0.001 [ms]
[OGL LOG][Proc: 0]p: solve: 2020.985 [ms]
[OGL LOG][Proc: 0]p: copy_x_back: 8.555 [ms]
[OGL LOG][lduLduBase.H:336] 
Statistics:
	Time per iteration: 3192 [mu s]
	Time per residual norm calculation: 375.000000 [mu s]
	Time per iteration and DOF: 0.063262 [ns]
	Retrieve results bandwidth 1.747000 [GByte/s]
[OGL LOG][Proc: 0]p: solve_multi_gpu: 2056.042 [ms]
BJhipGKOCG:  Solving for p, Initial residual = 0.04525141887234901, Final residual = 0.0004482476013147132, No Iterations 633
[INFO] SolveP: 2163.141 [ms]
time step continuity errors : sum local = 0.003446028320691932, global = -2.195893788798278e-05, cumulative = 0.001565348290030886
[INFO] postSolveP: 159.534 [ms]
smoothSolver:  Solving for nuTilda, Initial residual = 0.05169572997310117, Final residual = 0.004553324019777727, No Iterations 2
[INFO] TimeStep: 11964.77 [ms]
ExecutionTime = 276.04 s  ClockTime = 274 s

Time = 17

velocityDampingConstraint velocityDamping damped 0 (0%) of cells, with max limit 300
[INFO] MatrixAssemblyU: 3359.236 [ms]
smoothSolver:  Solving for Ux, Initial residual = 0.01154828060639944, Final residual = 0.001003994313665715, No Iterations 13
smoothSolver:  Solving for Uy, Initial residual = 0.03921192554810616, Final residual = 0.003882249663633629, No Iterations 12
smoothSolver:  Solving for Uz, Initial residual = 0.04172372106304556, Final residual = 0.004066172778003079, No Iterations 12
[INFO] MomentumPredictor: 3136.32 [ms]
[INFO] MatrixAssemblyPI: 664.755 [ms]
[INFO] MatrixAssemblyPII: 310.929 [ms]
[OGL LOG][Proc: 0]: global_index_init: 0.073 [ms]
[OGL LOG][Proc: 0]p_local_coeffs: call_update: 0 [ms]
[OGL LOG][Proc: 0]p_non_local_coeffs: call_update: 0 [ms]
[OGL LOG][Proc: 0]p: update_local_matrix_data: 83.011 [ms]
[OGL LOG][Proc: 0]p: update_non_local_matrix_data: 0.207 [ms]
[OGL LOG][Proc: 0]p_matrix: call_update: 17.937 [ms]
[OGL LOG][Proc: 0]p_rhs: call_update: 10.88 [ms]
[OGL LOG][Preconditioner.H:121] Generate preconditioner BJ MaxBlockSize 1
[OGL LOG][Proc: 0]p: init_precond: 1.481 [ms]
[OGL LOG][StoppingCriterion.H:373] Creating stopping criterion with minIter 379 frequency 5
[OGL LOG][Proc: 0]p: generate_solver: 0.001 [ms]
[OGL LOG][Proc: 0]p: solve: 1232.07 [ms]
[OGL LOG][Proc: 0]p: copy_x_back: 7.285 [ms]
[OGL LOG][lduLduBase.H:336] 
Statistics:
	Time per iteration: 3233 [mu s]
	Time per residual norm calculation: 409.000000 [mu s]
	Time per iteration and DOF: 0.064074 [ns]
	Retrieve results bandwidth 2.052000 [GByte/s]
[OGL LOG][Proc: 0]p: solve_multi_gpu: 1270.888 [ms]
BJhipGKOCG:  Solving for p, Initial residual = 0.04333401929948109, Final residual = 0.0002295236481901437, No Iterations 381
[INFO] SolveP: 1371.982 [ms]
time step continuity errors : sum local = 0.001835299040701308, global = -0.0001038896497918998, cumulative = 0.001461458640238986
[INFO] postSolveP: 161.786 [ms]
smoothSolver:  Solving for nuTilda, Initial residual = 0.02893703022363473, Final residual = 0.002512773091987638, No Iterations 3
[INFO] TimeStep: 11253.82 [ms]
ExecutionTime = 290 s  ClockTime = 287 s

Time = 18

velocityDampingConstraint velocityDamping damped 0 (0%) of cells, with max limit 300
[INFO] MatrixAssemblyU: 3353.286 [ms]
smoothSolver:  Solving for Ux, Initial residual = 0.01119519536876621, Final residual = 0.0009657975420408582, No Iterations 13
smoothSolver:  Solving for Uy, Initial residual = 0.03871338255629572, Final residual = 0.003297848214451593, No Iterations 13
smoothSolver:  Solving for Uz, Initial residual = 0.0417263112134658, Final residual = 0.004055907378815007, No Iterations 12
[INFO] MomentumPredictor: 3194.551 [ms]
[INFO] MatrixAssemblyPI: 664.846 [ms]
[INFO] MatrixAssemblyPII: 311.937 [ms]
[OGL LOG][Proc: 0]: global_index_init: 0.057 [ms]
[OGL LOG][Proc: 0]p_local_coeffs: call_update: 0 [ms]
[OGL LOG][Proc: 0]p_non_local_coeffs: call_update: 0 [ms]
[OGL LOG][Proc: 0]p: update_local_matrix_data: 82.304 [ms]
[OGL LOG][Proc: 0]p: update_non_local_matrix_data: 0.245 [ms]
[OGL LOG][Proc: 0]p_matrix: call_update: 22.215 [ms]
[OGL LOG][Proc: 0]p_rhs: call_update: 12.034 [ms]
[OGL LOG][Preconditioner.H:121] Generate preconditioner BJ MaxBlockSize 1
[OGL LOG][Proc: 0]p: init_precond: 1.461 [ms]
[OGL LOG][StoppingCriterion.H:373] Creating stopping criterion with minIter 228 frequency 4
[OGL LOG][Proc: 0]p: generate_solver: 0.001 [ms]
[OGL LOG][Proc: 0]p: solve: 854.669 [ms]
[OGL LOG][Proc: 0]p: copy_x_back: 8.243 [ms]
[OGL LOG][lduLduBase.H:336] 
Statistics:
	Time per iteration: 3432 [mu s]
	Time per residual norm calculation: 368.000000 [mu s]
	Time per iteration and DOF: 0.068018 [ns]
	Retrieve results bandwidth 1.813000 [GByte/s]
[OGL LOG][Proc: 0]p: solve_multi_gpu: 899.8670000000001 [ms]
BJhipGKOCG:  Solving for p, Initial residual = 0.04333704668706532, Final residual = 0.0004291118836756563, No Iterations 249
[INFO] SolveP: 1000.754 [ms]
time step continuity errors : sum local = 0.003441186347055153, global = -0.0002233222980249994, cumulative = 0.001238136342213987
[INFO] postSolveP: 160.649 [ms]
smoothSolver:  Solving for nuTilda, Initial residual = 0.04636097429738518, Final residual = 0.004302156779239183, No Iterations 2
[INFO] TimeStep: 10868.066 [ms]
ExecutionTime = 303.52 s  ClockTime = 301 s

Time = 19

velocityDampingConstraint velocityDamping damped 0 (0%) of cells, with max limit 300
[INFO] MatrixAssemblyU: 3350.51 [ms]
smoothSolver:  Solving for Ux, Initial residual = 0.01084909661737943, Final residual = 0.0009353383484238534, No Iterations 13
smoothSolver:  Solving for Uy, Initial residual = 0.03896101931482288, Final residual = 0.003321524566638891, No Iterations 13
smoothSolver:  Solving for Uz, Initial residual = 0.04253774456280682, Final residual = 0.004110436563495512, No Iterations 12
[INFO] MomentumPredictor: 3200.733 [ms]
[INFO] MatrixAssemblyPI: 666.3920000000001 [ms]
[INFO] MatrixAssemblyPII: 312.57 [ms]
[OGL LOG][Proc: 0]: global_index_init: 0.11 [ms]
[OGL LOG][Proc: 0]p_local_coeffs: call_update: 0 [ms]
[OGL LOG][Proc: 0]p_non_local_coeffs: call_update: 0 [ms]
[OGL LOG][Proc: 0]p: update_local_matrix_data: 82.008 [ms]
[OGL LOG][Proc: 0]p: update_non_local_matrix_data: 0.207 [ms]
[OGL LOG][Proc: 0]p_matrix: call_update: 26.756 [ms]
[OGL LOG][Proc: 0]p_rhs: call_update: 14.207 [ms]
[OGL LOG][Preconditioner.H:121] Generate preconditioner BJ MaxBlockSize 1
[OGL LOG][Proc: 0]p: init_precond: 1.49 [ms]
[OGL LOG][StoppingCriterion.H:373] Creating stopping criterion with minIter 149 frequency 3
[OGL LOG][Proc: 0]p: generate_solver: 0.001 [ms]
[OGL LOG][Proc: 0]p: solve: 1123.472 [ms]
[OGL LOG][Proc: 0]p: copy_x_back: 7.709000000000001 [ms]
[OGL LOG][lduLduBase.H:336] 
Statistics:
	Time per iteration: 3425 [mu s]
	Time per residual norm calculation: 375.000000 [mu s]
	Time per iteration and DOF: 0.067879 [ns]
	Retrieve results bandwidth 1.939000 [GByte/s]
[OGL LOG][Proc: 0]p: solve_multi_gpu: 1174.848 [ms]
BJhipGKOCG:  Solving for p, Initial residual = 0.04370460427094724, Final residual = 0.0004358128882514451, No Iterations 328
[INFO] SolveP: 1275.358 [ms]
time step continuity errors : sum local = 0.003507561692066334, global = -0.000263712139291544, cumulative = 0.0009744242029224429
[INFO] postSolveP: 161.587 [ms]
smoothSolver:  Solving for nuTilda, Initial residual = 0.02700826723984097, Final residual = 0.002363327664213452, No Iterations 3
[INFO] TimeStep: 11217.305 [ms]
ExecutionTime = 317.44 s  ClockTime = 315 s

Time = 20

velocityDampingConstraint velocityDamping damped 0 (0%) of cells, with max limit 300
[INFO] MatrixAssemblyU: 3350.884 [ms]
smoothSolver:  Solving for Ux, Initial residual = 0.01069765639389493, Final residual = 0.0009172236584410532, No Iterations 13
smoothSolver:  Solving for Uy, Initial residual = 0.03933858791957446, Final residual = 0.003920616002433768, No Iterations 12
smoothSolver:  Solving for Uz, Initial residual = 0.04315788985456158, Final residual = 0.00414033250065555, No Iterations 12
[INFO] MomentumPredictor: 3123.062 [ms]
[INFO] MatrixAssemblyPI: 665.171 [ms]
[INFO] MatrixAssemblyPII: 310.697 [ms]
[OGL LOG][Proc: 0]: global_index_init: 0.057 [ms]
[OGL LOG][Proc: 0]p_local_coeffs: call_update: 0 [ms]
[OGL LOG][Proc: 0]p_non_local_coeffs: call_update: 0 [ms]
[OGL LOG][Proc: 0]p: update_local_matrix_data: 82.495 [ms]
[OGL LOG][Proc: 0]p: update_non_local_matrix_data: 0.234 [ms]
[OGL LOG][Proc: 0]p_matrix: call_update: 19.451 [ms]
[OGL LOG][Proc: 0]p_rhs: call_update: 8.882 [ms]
[OGL LOG][Preconditioner.H:121] Generate preconditioner BJ MaxBlockSize 1
[OGL LOG][Proc: 0]p: init_precond: 1.524 [ms]
[OGL LOG][StoppingCriterion.H:373] Creating stopping criterion with minIter 196 frequency 3
[OGL LOG][Proc: 0]p: generate_solver: 0.001 [ms]
[OGL LOG][Proc: 0]p: solve: 1133.014 [ms]
[OGL LOG][Proc: 0]p: copy_x_back: 8.250999999999999 [ms]
[OGL LOG][lduLduBase.H:336] 
Statistics:
	Time per iteration: 3362 [mu s]
	Time per residual norm calculation: 369.000000 [mu s]
	Time per iteration and DOF: 0.066631 [ns]
	Retrieve results bandwidth 1.811000 [GByte/s]
[OGL LOG][Proc: 0]p: solve_multi_gpu: 1172.396 [ms]
BJhipGKOCG:  Solving for p, Initial residual = 0.0436265898505637, Final residual = 0.0004336836973539377, No Iterations 337
[INFO] SolveP: 1273.481 [ms]
time step continuity errors : sum local = 0.003521924870456218, global = -0.0002728821344019823, cumulative = 0.0007015420685204607
[INFO] postSolveP: 158.245 [ms]
smoothSolver:  Solving for nuTilda, Initial residual = 0.04182189686936234, Final residual = 0.004047965004565613, No Iterations 2
[INFO] TimeStep: 11065.947 [ms]
ExecutionTime = 331.19 s  ClockTime = 328 s

Time = 21

velocityDampingConstraint velocityDamping damped 0 (0%) of cells, with max limit 300
[INFO] MatrixAssemblyU: 3357.189 [ms]
smoothSolver:  Solving for Ux, Initial residual = 0.01050010264843214, Final residual = 0.000903246275242339, No Iterations 13
smoothSolver:  Solving for Uy, Initial residual = 0.03998524803094253, Final residual = 0.003969549502869895, No Iterations 12
smoothSolver:  Solving for Uz, Initial residual = 0.04348540288587734, Final residual = 0.004135740847811404, No Iterations 12
[INFO] MomentumPredictor: 3123.163 [ms]
[INFO] MatrixAssemblyPI: 668.962 [ms]
[INFO] MatrixAssemblyPII: 311.627 [ms]
[OGL LOG][Proc: 0]: global_index_init: 0.041 [ms]
[OGL LOG][Proc: 0]p_local_coeffs: call_update: 0 [ms]
[OGL LOG][Proc: 0]p_non_local_coeffs: call_update: 0 [ms]
[OGL LOG][Proc: 0]p: update_local_matrix_data: 83.374 [ms]
[OGL LOG][Proc: 0]p: update_non_local_matrix_data: 0.219 [ms]
[OGL LOG][Proc: 0]p_matrix: call_update: 17.918 [ms]
[OGL LOG][Proc: 0]p_rhs: call_update: 11.357 [ms]
[OGL LOG][Preconditioner.H:121] Generate preconditioner BJ MaxBlockSize 1
[OGL LOG][Proc: 0]p: init_precond: 1.466 [ms]
[OGL LOG][StoppingCriterion.H:373] Creating stopping criterion with minIter 202 frequency 3
[OGL LOG][Proc: 0]p: generate_solver: 0.001 [ms]
[OGL LOG][Proc: 0]p: solve: 1099.66 [ms]
[OGL LOG][Proc: 0]p: copy_x_back: 8.57 [ms]
[OGL LOG][lduLduBase.H:336] 
Statistics:
	Time per iteration: 3322 [mu s]
	Time per residual norm calculation: 366.000000 [mu s]
	Time per iteration and DOF: 0.065838 [ns]
	Retrieve results bandwidth 1.744000 [GByte/s]
[OGL LOG][Proc: 0]p: solve_multi_gpu: 1140.186 [ms]
BJhipGKOCG:  Solving for p, Initial residual = 0.04379361394017799, Final residual = 0.0004355320989679717, No Iterations 331
[INFO] SolveP: 1241.369 [ms]
time step continuity errors : sum local = 0.003571453054126433, global = -0.0002100586389104747, cumulative = 0.000491483429609986
[INFO] postSolveP: 159.563 [ms]
smoothSolver:  Solving for nuTilda, Initial residual = 0.02521428162688385, Final residual = 0.00221815328043274, No Iterations 3
[INFO] TimeStep: 11114.3 [ms]
ExecutionTime = 344.99 s  ClockTime = 342 s

Time = 22

velocityDampingConstraint velocityDamping damped 0 (0%) of cells, with max limit 300
[INFO] MatrixAssemblyU: 3345.301 [ms]
smoothSolver:  Solving for Ux, Initial residual = 0.01047141210264708, Final residual = 0.00104682971244466, No Iterations 12
smoothSolver:  Solving for Uy, Initial residual = 0.04058562621765022, Final residual = 0.003992175833808006, No Iterations 12
smoothSolver:  Solving for Uz, Initial residual = 0.043385322098751, Final residual = 0.004095925638148414, No Iterations 12
[INFO] MomentumPredictor: 3048.931 [ms]
[INFO] MatrixAssemblyPI: 663.1900000000001 [ms]
[INFO] MatrixAssemblyPII: 308.672 [ms]
[OGL LOG][Proc: 0]: global_index_init: 0.047 [ms]
[OGL LOG][Proc: 0]p_local_coeffs: call_update: 0 [ms]
[OGL LOG][Proc: 0]p_non_local_coeffs: call_update: 0 [ms]
[OGL LOG][Proc: 0]p: update_local_matrix_data: 82.879 [ms]
[OGL LOG][Proc: 0]p: update_non_local_matrix_data: 0.236 [ms]
[OGL LOG][Proc: 0]p_matrix: call_update: 20.925 [ms]
[OGL LOG][Proc: 0]p_rhs: call_update: 6.192 [ms]
[OGL LOG][Preconditioner.H:121] Generate preconditioner BJ MaxBlockSize 1
[OGL LOG][Proc: 0]p: init_precond: 1.469 [ms]
[OGL LOG][StoppingCriterion.H:373] Creating stopping criterion with minIter 198 frequency 3
[OGL LOG][Proc: 0]p: generate_solver: 0.001 [ms]
[OGL LOG][Proc: 0]p: solve: 1111.216 [ms]
[OGL LOG][Proc: 0]p: copy_x_back: 8.271000000000001 [ms]
[OGL LOG][lduLduBase.H:336] 
Statistics:
	Time per iteration: 3357 [mu s]
	Time per residual norm calculation: 371.000000 [mu s]
	Time per iteration and DOF: 0.066532 [ns]
	Retrieve results bandwidth 1.807000 [GByte/s]
[OGL LOG][Proc: 0]p: solve_multi_gpu: 1149.283 [ms]
BJhipGKOCG:  Solving for p, Initial residual = 0.04373396582490278, Final residual = 0.0004304193950015641, No Iterations 331
[INFO] SolveP: 1250.351 [ms]
time step continuity errors : sum local = 0.003562612151633358, global = -5.05981215802155e-05, cumulative = 0.0004408853080297704
[INFO] postSolveP: 160.973 [ms]
smoothSolver:  Solving for nuTilda, Initial residual = 0.03795902794077036, Final residual = 0.002018742723768969, No Iterations 3
[INFO] TimeStep: 11029.881 [ms]
ExecutionTime = 358.7 s  ClockTime = 356 s

Time = 23

velocityDampingConstraint velocityDamping damped 0 (0%) of cells, with max limit 300
[INFO] MatrixAssemblyU: 3352.835 [ms]
smoothSolver:  Solving for Ux, Initial residual = 0.01036591464299867, Final residual = 0.000886020846686461, No Iterations 13
smoothSolver:  Solving for Uy, Initial residual = 0.04107813887307461, Final residual = 0.003985175476372066, No Iterations 12
smoothSolver:  Solving for Uz, Initial residual = 0.04292868472718098, Final residual = 0.004010109370611202, No Iterations 12
[INFO] MomentumPredictor: 3114.756 [ms]
[INFO] MatrixAssemblyPI: 664.903 [ms]
[INFO] MatrixAssemblyPII: 311.739 [ms]
[OGL LOG][Proc: 0]: global_index_init: 0.109 [ms]
[OGL LOG][Proc: 0]p_local_coeffs: call_update: 0 [ms]
[OGL LOG][Proc: 0]p_non_local_coeffs: call_update: 0 [ms]
[OGL LOG][Proc: 0]p: update_local_matrix_data: 79.036 [ms]
[OGL LOG][Proc: 0]p: update_non_local_matrix_data: 0.178 [ms]
[OGL LOG][Proc: 0]p_matrix: call_update: 23.608 [ms]
[OGL LOG][Proc: 0]p_rhs: call_update: 7.431 [ms]
[OGL LOG][Preconditioner.H:121] Generate preconditioner BJ MaxBlockSize 1
[OGL LOG][Proc: 0]p: init_precond: 1.539 [ms]
[OGL LOG][StoppingCriterion.H:373] Creating stopping criterion with minIter 198 frequency 3
[OGL LOG][Proc: 0]p: generate_solver: 0.001 [ms]
[OGL LOG][Proc: 0]p: solve: 1120.178 [ms]
[OGL LOG][Proc: 0]p: copy_x_back: 8.41 [ms]
[OGL LOG][lduLduBase.H:336] 
Statistics:
	Time per iteration: 3353 [mu s]
	Time per residual norm calculation: 378.000000 [mu s]
	Time per iteration and DOF: 0.066453 [ns]
	Retrieve results bandwidth 1.777000 [GByte/s]
[OGL LOG][Proc: 0]p: solve_multi_gpu: 1162.41 [ms]
BJhipGKOCG:  Solving for p, Initial residual = 0.04350893277957058, Final residual = 0.0004276236081190561, No Iterations 334
[INFO] SolveP: 1259.122 [ms]
time step continuity errors : sum local = 0.003587173903838483, global = 0.0001769833603469087, cumulative = 0.0006178686683766791
[INFO] postSolveP: 159.979 [ms]
smoothSolver:  Solving for nuTilda, Initial residual = 0.02339571407861648, Final residual = 0.002087350713189693, No Iterations 3
[INFO] TimeStep: 11110.767 [ms]
ExecutionTime = 372.49 s  ClockTime = 369 s

Time = 24

velocityDampingConstraint velocityDamping damped 0 (0%) of cells, with max limit 300
[INFO] MatrixAssemblyU: 3359.462 [ms]
smoothSolver:  Solving for Ux, Initial residual = 0.01039211193755641, Final residual = 0.001032868117632809, No Iterations 12
smoothSolver:  Solving for Uy, Initial residual = 0.04178882976504967, Final residual = 0.004028215996685759, No Iterations 12
smoothSolver:  Solving for Uz, Initial residual = 0.04255809108099622, Final residual = 0.003940503641154732, No Iterations 12
[INFO] MomentumPredictor: 3049.739 [ms]
[INFO] MatrixAssemblyPI: 668.177 [ms]
[INFO] MatrixAssemblyPII: 308.924 [ms]
[OGL LOG][Proc: 0]: global_index_init: 0.141 [ms]
[OGL LOG][Proc: 0]p_local_coeffs: call_update: 0 [ms]
[OGL LOG][Proc: 0]p_non_local_coeffs: call_update: 0 [ms]
[OGL LOG][Proc: 0]p: update_local_matrix_data: 80.345 [ms]
[OGL LOG][Proc: 0]p: update_non_local_matrix_data: 0.437 [ms]
[OGL LOG][Proc: 0]p_matrix: call_update: 17.961 [ms]
[OGL LOG][Proc: 0]p_rhs: call_update: 16.115 [ms]
[OGL LOG][Preconditioner.H:121] Generate preconditioner BJ MaxBlockSize 1
[OGL LOG][Proc: 0]p: init_precond: 1.469 [ms]
[OGL LOG][StoppingCriterion.H:373] Creating stopping criterion with minIter 200 frequency 4
[OGL LOG][Proc: 0]p: generate_solver: 0.001 [ms]
[OGL LOG][Proc: 0]p: solve: 1132.798 [ms]
[OGL LOG][Proc: 0]p: copy_x_back: 8.565 [ms]
[OGL LOG][lduLduBase.H:336] 
Statistics:
	Time per iteration: 3401 [mu s]
	Time per residual norm calculation: 374.000000 [mu s]
	Time per iteration and DOF: 0.067404 [ns]
	Retrieve results bandwidth 1.745000 [GByte/s]
[OGL LOG][Proc: 0]p: solve_multi_gpu: 1178.143 [ms]
BJhipGKOCG:  Solving for p, Initial residual = 0.04314770085823405, Final residual = 0.0004268018939139388, No Iterations 333
[INFO] SolveP: 1276.567 [ms]
time step continuity errors : sum local = 0.003633059679391275, global = 0.0003943836250908345, cumulative = 0.001012252293467514
[INFO] postSolveP: 159.483 [ms]
smoothSolver:  Solving for nuTilda, Initial residual = 0.03445737840023721, Final residual = 0.001909758866430028, No Iterations 3
[INFO] TimeStep: 11067.739 [ms]
ExecutionTime = 386.23 s  ClockTime = 383 s

Time = 25

velocityDampingConstraint velocityDamping damped 0 (0%) of cells, with max limit 300
[INFO] MatrixAssemblyU: 3348.006 [ms]
smoothSolver:  Solving for Ux, Initial residual = 0.01033627623712923, Final residual = 0.0008835656915138961, No Iterations 13
smoothSolver:  Solving for Uy, Initial residual = 0.0425989937431261, Final residual = 0.004119612995389692, No Iterations 12
smoothSolver:  Solving for Uz, Initial residual = 0.04227728832712416, Final residual = 0.003902119116357651, No Iterations 12
[INFO] MomentumPredictor: 3106.247 [ms]
[INFO] MatrixAssemblyPI: 666.744 [ms]
[INFO] MatrixAssemblyPII: 312.216 [ms]
[OGL LOG][Proc: 0]: global_index_init: 0.095 [ms]
[OGL LOG][Proc: 0]p_local_coeffs: call_update: 0 [ms]
[OGL LOG][Proc: 0]p_non_local_coeffs: call_update: 0 [ms]
[OGL LOG][Proc: 0]p: update_local_matrix_data: 79.56400000000001 [ms]
[OGL LOG][Proc: 0]p: update_non_local_matrix_data: 0.292 [ms]
[OGL LOG][Proc: 0]p_matrix: call_update: 19.008 [ms]
[OGL LOG][Proc: 0]p_rhs: call_update: 14.629 [ms]
[OGL LOG][Preconditioner.H:121] Generate preconditioner BJ MaxBlockSize 1
[OGL LOG][Proc: 0]p: init_precond: 1.47 [ms]
[OGL LOG][StoppingCriterion.H:373] Creating stopping criterion with minIter 199 frequency 3
[OGL LOG][Proc: 0]p: generate_solver: 0.001 [ms]
[OGL LOG][Proc: 0]p: solve: 1177.346 [ms]
[OGL LOG][Proc: 0]p: copy_x_back: 8.277000000000001 [ms]
[OGL LOG][lduLduBase.H:336] 
Statistics:
	Time per iteration: 3373 [mu s]
	Time per residual norm calculation: 377.000000 [mu s]
	Time per iteration and DOF: 0.066849 [ns]
	Retrieve results bandwidth 1.806000 [GByte/s]
[OGL LOG][Proc: 0]p: solve_multi_gpu: 1222.055 [ms]
BJhipGKOCG:  Solving for p, Initial residual = 0.04257527657077603, Final residual = 0.0004221331510212776, No Iterations 349
[INFO] SolveP: 1319.561 [ms]
time step continuity errors : sum local = 0.003648972254815605, global = 0.0006142549200429627, cumulative = 0.001626507213510476
[INFO] postSolveP: 159.701 [ms]
smoothSolver:  Solving for nuTilda, Initial residual = 0.02153544282122229, Final residual = 0.001956452549808935, No Iterations 3
[INFO] TimeStep: 11156.697 [ms]
ExecutionTime = 400.07 s  ClockTime = 397 s

Time = 26

velocityDampingConstraint velocityDamping damped 0 (0%) of cells, with max limit 300
[INFO] MatrixAssemblyU: 3351.054 [ms]
smoothSolver:  Solving for Ux, Initial residual = 0.01041075577503569, Final residual = 0.001036147847320457, No Iterations 12
smoothSolver:  Solving for Uy, Initial residual = 0.0435703659712072, Final residual = 0.004272317361121564, No Iterations 12
smoothSolver:  Solving for Uz, Initial residual = 0.04229265509898273, Final residual = 0.00394315514716906, No Iterations 12
[INFO] MomentumPredictor: 3055.237 [ms]
[INFO] MatrixAssemblyPI: 663.948 [ms]
[INFO] MatrixAssemblyPII: 310.844 [ms]
[OGL LOG][Proc: 0]: global_index_init: 0.091 [ms]
[OGL LOG][Proc: 0]p_local_coeffs: call_update: 0 [ms]
[OGL LOG][Proc: 0]p_non_local_coeffs: call_update: 0 [ms]
[OGL LOG][Proc: 0]p: update_local_matrix_data: 79.92400000000001 [ms]
[OGL LOG][Proc: 0]p: update_non_local_matrix_data: 0.239 [ms]
[OGL LOG][Proc: 0]p_matrix: call_update: 20.747 [ms]
[OGL LOG][Proc: 0]p_rhs: call_update: 13.123 [ms]
[OGL LOG][Preconditioner.H:121] Generate preconditioner BJ MaxBlockSize 1
[OGL LOG][Proc: 0]p: init_precond: 1.46 [ms]
[OGL LOG][StoppingCriterion.H:373] Creating stopping criterion with minIter 209 frequency 4
[OGL LOG][Proc: 0]p: generate_solver: 0.001 [ms]
[OGL LOG][Proc: 0]p: solve: 2318.677 [ms]
[OGL LOG][Proc: 0]p: copy_x_back: 8.545999999999999 [ms]
[OGL LOG][lduLduBase.H:336] 
Statistics:
	Time per iteration: 3129 [mu s]
	Time per residual norm calculation: 375.000000 [mu s]
	Time per iteration and DOF: 0.062013 [ns]
	Retrieve results bandwidth 1.749000 [GByte/s]
[OGL LOG][Proc: 0]p: solve_multi_gpu: 2363.778 [ms]
BJhipGKOCG:  Solving for p, Initial residual = 0.04212150262475615, Final residual = 0.0004196809891224539, No Iterations 741
[INFO] SolveP: 2461.51 [ms]
time step continuity errors : sum local = 0.00368361239458882, global = -9.431621303630534e-05, cumulative = 0.001532191000474171
[INFO] postSolveP: 160.459 [ms]
smoothSolver:  Solving for nuTilda, Initial residual = 0.0314818404274224, Final residual = 0.001803693686123512, No Iterations 3
[INFO] TimeStep: 12256.575 [ms]
ExecutionTime = 415.22 s  ClockTime = 412 s

Time = 27

velocityDampingConstraint velocityDamping damped 0 (0%) of cells, with max limit 300
[INFO] MatrixAssemblyU: 3344.004 [ms]
smoothSolver:  Solving for Ux, Initial residual = 0.01042180146484932, Final residual = 0.001036102912664748, No Iterations 12
smoothSolver:  Solving for Uy, Initial residual = 0.04483501160545857, Final residual = 0.004440708878761739, No Iterations 12
smoothSolver:  Solving for Uz, Initial residual = 0.04268751354202811, Final residual = 0.004017496332274499, No Iterations 12
[INFO] MomentumPredictor: 3050.719 [ms]
[INFO] MatrixAssemblyPI: 667.171 [ms]
[INFO] MatrixAssemblyPII: 313.213 [ms]
[OGL LOG][Proc: 0]: global_index_init: 0.032 [ms]
[OGL LOG][Proc: 0]p_local_coeffs: call_update: 0 [ms]
[OGL LOG][Proc: 0]p_non_local_coeffs: call_update: 0 [ms]
[OGL LOG][Proc: 0]p: update_local_matrix_data: 78.15600000000001 [ms]
[OGL LOG][Proc: 0]p: update_non_local_matrix_data: 0.239 [ms]
[OGL LOG][Proc: 0]p_matrix: call_update: 22.411 [ms]
[OGL LOG][Proc: 0]p_rhs: call_update: 14.82 [ms]
[OGL LOG][Preconditioner.H:121] Generate preconditioner BJ MaxBlockSize 1
[OGL LOG][Proc: 0]p: init_precond: 1.487 [ms]
[OGL LOG][StoppingCriterion.H:373] Creating stopping criterion with minIter 444 frequency 6
[OGL LOG][Proc: 0]p: generate_solver: 0.001 [ms]
[OGL LOG][Proc: 0]p: solve: 1427.853 [ms]
[OGL LOG][Proc: 0]p: copy_x_back: 8.375999999999999 [ms]
[OGL LOG][lduLduBase.H:336] 
Statistics:
	Time per iteration: 3208 [mu s]
	Time per residual norm calculation: 414.000000 [mu s]
	Time per iteration and DOF: 0.063579 [ns]
	Retrieve results bandwidth 1.784000 [GByte/s]
[OGL LOG][Proc: 0]p: solve_multi_gpu: 1476.257 [ms]
BJhipGKOCG:  Solving for p, Initial residual = 0.0413348245733766, Final residual = 9.35162244007786e-05, No Iterations 445
[INFO] SolveP: 1572.243 [ms]
time step continuity errors : sum local = 0.000853165774765199, global = -8.777651918961136e-05, cumulative = 0.00144441448128456
[INFO] postSolveP: 162.2 [ms]
smoothSolver:  Solving for nuTilda, Initial residual = 0.01983514444193701, Final residual = 0.001830722702132637, No Iterations 3
[INFO] TimeStep: 11355.94 [ms]
ExecutionTime = 429.31 s  ClockTime = 426 s

Time = 28

velocityDampingConstraint velocityDamping damped 0 (0%) of cells, with max limit 300
[INFO] MatrixAssemblyU: 3350.773 [ms]
smoothSolver:  Solving for Ux, Initial residual = 0.01051864155073282, Final residual = 0.00103880655001313, No Iterations 12
smoothSolver:  Solving for Uy, Initial residual = 0.04601015622316981, Final residual = 0.003939332680188961, No Iterations 13
smoothSolver:  Solving for Uz, Initial residual = 0.04353577823634583, Final residual = 0.004129219837958783, No Iterations 12
[INFO] MomentumPredictor: 3120.88 [ms]
[INFO] MatrixAssemblyPI: 663.821 [ms]
[INFO] MatrixAssemblyPII: 309.828 [ms]
[OGL LOG][Proc: 0]: global_index_init: 0.082 [ms]
[OGL LOG][Proc: 0]p_local_coeffs: call_update: 0 [ms]
[OGL LOG][Proc: 0]p_non_local_coeffs: call_update: 0 [ms]
[OGL LOG][Proc: 0]p: update_local_matrix_data: 81.101 [ms]
[OGL LOG][Proc: 0]p: update_non_local_matrix_data: 0.237 [ms]
[OGL LOG][Proc: 0]p_matrix: call_update: 27.783 [ms]
[OGL LOG][Proc: 0]p_rhs: call_update: 13.882 [ms]
[OGL LOG][Preconditioner.H:121] Generate preconditioner BJ MaxBlockSize 1
[OGL LOG][Proc: 0]p: init_precond: 1.452 [ms]
[OGL LOG][StoppingCriterion.H:373] Creating stopping criterion with minIter 267 frequency 5
[OGL LOG][Proc: 0]p: generate_solver: 0.001 [ms]
[OGL LOG][Proc: 0]p: solve: 1009.621 [ms]
[OGL LOG][Proc: 0]p: copy_x_back: 7.843 [ms]
[OGL LOG][lduLduBase.H:336] 
Statistics:
	Time per iteration: 3354 [mu s]
	Time per residual norm calculation: 390.000000 [mu s]
	Time per iteration and DOF: 0.066472 [ns]
	Retrieve results bandwidth 1.906000 [GByte/s]
[OGL LOG][Proc: 0]p: solve_multi_gpu: 1061.818 [ms]
BJhipGKOCG:  Solving for p, Initial residual = 0.04256088461796768, Final residual = 0.0004205654012398497, No Iterations 301
[INFO] SolveP: 1160.681 [ms]
time step continuity errors : sum local = 0.003856172148707777, global = -0.0001864294438115813, cumulative = 0.001257985037472978
[INFO] postSolveP: 162.681 [ms]
smoothSolver:  Solving for nuTilda, Initial residual = 0.02894551151814635, Final residual = 0.001696406668321022, No Iterations 3
[INFO] TimeStep: 11022.74 [ms]
ExecutionTime = 443.01 s  ClockTime = 439 s

Time = 29

velocityDampingConstraint velocityDamping damped 0 (0%) of cells, with max limit 300
[INFO] MatrixAssemblyU: 3351.813 [ms]
smoothSolver:  Solving for Ux, Initial residual = 0.01057747639112365, Final residual = 0.001042050981922442, No Iterations 12
smoothSolver:  Solving for Uy, Initial residual = 0.04752315680069413, Final residual = 0.004078871713983771, No Iterations 13
smoothSolver:  Solving for Uz, Initial residual = 0.04499971747221634, Final residual = 0.004274766594354084, No Iterations 12
[INFO] MomentumPredictor: 3114.27 [ms]
[INFO] MatrixAssemblyPI: 670.057 [ms]
[INFO] MatrixAssemblyPII: 308.65 [ms]
[OGL LOG][Proc: 0]: global_index_init: 0.139 [ms]
[OGL LOG][Proc: 0]p_local_coeffs: call_update: 0 [ms]
[OGL LOG][Proc: 0]p_non_local_coeffs: call_update: 0 [ms]
[OGL LOG][Proc: 0]p: update_local_matrix_data: 78.012 [ms]
[OGL LOG][Proc: 0]p: update_non_local_matrix_data: 0.265 [ms]
[OGL LOG][Proc: 0]p_matrix: call_update: 17.501 [ms]
[OGL LOG][Proc: 0]p_rhs: call_update: 16.77 [ms]
[OGL LOG][Preconditioner.H:121] Generate preconditioner BJ MaxBlockSize 1
[OGL LOG][Proc: 0]p: init_precond: 1.434 [ms]
[OGL LOG][StoppingCriterion.H:373] Creating stopping criterion with minIter 180 frequency 3
[OGL LOG][Proc: 0]p: generate_solver: 0.001 [ms]
[OGL LOG][Proc: 0]p: solve: 1165.56 [ms]
[OGL LOG][Proc: 0]p: copy_x_back: 8.481 [ms]
[OGL LOG][lduLduBase.H:336] 
Statistics:
	Time per iteration: 3339 [mu s]
	Time per residual norm calculation: 370.000000 [mu s]
	Time per iteration and DOF: 0.066175 [ns]
	Retrieve results bandwidth 1.762000 [GByte/s]
[OGL LOG][Proc: 0]p: solve_multi_gpu: 1210.999 [ms]
BJhipGKOCG:  Solving for p, Initial residual = 0.04368589851565935, Final residual = 0.000430566677300442, No Iterations 349
[INFO] SolveP: 1306.694 [ms]
time step continuity errors : sum local = 0.003975281985136243, global = -0.0001966873704488522, cumulative = 0.001061297667024126
[INFO] postSolveP: 159.559 [ms]
smoothSolver:  Solving for nuTilda, Initial residual = 0.01834228968424413, Final residual = 0.001707109867530428, No Iterations 3
[INFO] TimeStep: 11160.99 [ms]
ExecutionTime = 456.88 s  ClockTime = 453 s

Time = 30

velocityDampingConstraint velocityDamping damped 0 (0%) of cells, with max limit 300
[INFO] MatrixAssemblyU: 3341.689 [ms]
smoothSolver:  Solving for Ux, Initial residual = 0.01076956715608309, Final residual = 0.001048354987780516, No Iterations 12
smoothSolver:  Solving for Uy, Initial residual = 0.04960586237495361, Final residual = 0.004226783722111819, No Iterations 13
smoothSolver:  Solving for Uz, Initial residual = 0.04661547156697374, Final residual = 0.004413297108371397, No Iterations 12
[INFO] MomentumPredictor: 3130.671 [ms]
[INFO] MatrixAssemblyPI: 664.6420000000001 [ms]
[INFO] MatrixAssemblyPII: 311.025 [ms]
[OGL LOG][Proc: 0]: global_index_init: 0.067 [ms]
[OGL LOG][Proc: 0]p_local_coeffs: call_update: 0 [ms]
[OGL LOG][Proc: 0]p_non_local_coeffs: call_update: 0 [ms]
[OGL LOG][Proc: 0]p: update_local_matrix_data: 78.696 [ms]
[OGL LOG][Proc: 0]p: update_non_local_matrix_data: 0.399 [ms]
[OGL LOG][Proc: 0]p_matrix: call_update: 20.94 [ms]
[OGL LOG][Proc: 0]p_rhs: call_update: 13.616 [ms]
[OGL LOG][Preconditioner.H:121] Generate preconditioner BJ MaxBlockSize 1
[OGL LOG][Proc: 0]p: init_precond: 1.476 [ms]
[OGL LOG][StoppingCriterion.H:373] Creating stopping criterion with minIter 209 frequency 3
[OGL LOG][Proc: 0]p: generate_solver: 0.001 [ms]
[OGL LOG][Proc: 0]p: solve: 880.053 [ms]
[OGL LOG][Proc: 0]p: copy_x_back: 8.02 [ms]
[OGL LOG][lduLduBase.H:336] 
Statistics:
	Time per iteration: 3520 [mu s]
	Time per residual norm calculation: 376.000000 [mu s]
	Time per iteration and DOF: 0.069762 [ns]
	Retrieve results bandwidth 1.864000 [GByte/s]
[OGL LOG][Proc: 0]p: solve_multi_gpu: 925.376 [ms]
BJhipGKOCG:  Solving for p, Initial residual = 0.04460176050324535, Final residual = 0.0004405767710341992, No Iterations 250
[INFO] SolveP: 1021.984 [ms]
time step continuity errors : sum local = 0.004123728706436804, global = -0.000142401226519388, cumulative = 0.0009188964405047381
[INFO] postSolveP: 160.024 [ms]
smoothSolver:  Solving for nuTilda, Initial residual = 0.02675652084268437, Final residual = 0.001589205129019101, No Iterations 3
[INFO] TimeStep: 10883.765 [ms]
ExecutionTime = 470.4 s  ClockTime = 467 s

Time = 31

velocityDampingConstraint velocityDamping damped 0 (0%) of cells, with max limit 300
[INFO] MatrixAssemblyU: 3353.926 [ms]
smoothSolver:  Solving for Ux, Initial residual = 0.01082471400313909, Final residual = 0.001053721071766558, No Iterations 12
smoothSolver:  Solving for Uy, Initial residual = 0.05183691075597328, Final residual = 0.005161249041206817, No Iterations 12
smoothSolver:  Solving for Uz, Initial residual = 0.04825786010142776, Final residual = 0.004564140229866256, No Iterations 12
[INFO] MomentumPredictor: 3050.392 [ms]
[INFO] MatrixAssemblyPI: 671.21 [ms]
[INFO] MatrixAssemblyPII: 309.702 [ms]
[OGL LOG][Proc: 0]: global_index_init: 0.201 [ms]
[OGL LOG][Proc: 0]p_local_coeffs: call_update: 0 [ms]
[OGL LOG][Proc: 0]p_non_local_coeffs: call_update: 0 [ms]
[...]
time step continuity errors : sum local = 0.005737123442244898, global = -0.0001312453303807967, cumulative = 0.001142980451872294
[INFO] postSolveP: 162.615 [ms]
smoothSolver:  Solving for nuTilda, Initial residual = 0.01295184728557902, Final residual = 0.001159248046584035, No Iterations 3
[INFO] TimeStep: 10826.863 [ms]
ExecutionTime = 618.79 s  ClockTime = 614 s

Time = 42

velocityDampingConstraint velocityDamping damped 0 (0%) of cells, with max limit 300
[INFO] MatrixAssemblyU: 3333.841 [ms]
smoothSolver:  Solving for Ux, Initial residual = 0.01212831496756131, Final residual = 0.001202419592713629, No Iterations 12
smoothSolver:  Solving for Uy, Initial residual = 0.07106157733438702, Final residual = 0.006618404468695997, No Iterations 13
smoothSolver:  Solving for Uz, Initial residual = 0.07113022467349396, Final residual = 0.006048885756867984, No Iterations 13
[INFO] MomentumPredictor: 3186.296 [ms]
[INFO] MatrixAssemblyPI: 665.463 [ms]
[INFO] MatrixAssemblyPII: 309.702 [ms]
[OGL LOG][Proc: 0]: global_index_init: 0.104 [ms]
[OGL LOG][Proc: 0]p_local_coeffs: call_update: 0 [ms]
[OGL LOG][Proc: 0]p_non_local_coeffs: call_update: 0 [ms]
[OGL LOG][Proc: 0]p: update_local_matrix_data: 79.327 [ms]
[OGL LOG][Proc: 0]p: update_non_local_matrix_data: 0.236 [ms]
[OGL LOG][Proc: 0]p_matrix: call_update: 19.98 [ms]
[OGL LOG][Proc: 0]p_rhs: call_update: 22.673 [ms]
[OGL LOG][Preconditioner.H:121] Generate preconditioner BJ MaxBlockSize 1
[OGL LOG][Proc: 0]p: init_precond: 1.489 [ms]
[OGL LOG][StoppingCriterion.H:373] Creating stopping criterion with minIter 139 frequency 3
[OGL LOG][Proc: 0]p: generate_solver: 0.001 [ms]
[OGL LOG][Proc: 0]p: solve: 836.192 [ms]
[OGL LOG][Proc: 0]p: copy_x_back: 8.508000000000001 [ms]
[OGL LOG][lduLduBase.H:336] 
Statistics:
	Time per iteration: 3651 [mu s]
	Time per residual norm calculation: 373.000000 [mu s]
	Time per iteration and DOF: 0.072359 [ns]
	Retrieve results bandwidth 1.757000 [GByte/s]
[OGL LOG][Proc: 0]p: solve_multi_gpu: 890.104 [ms]
BJhipGKOCG:  Solving for p, Initial residual = 0.05717171073105853, Final residual = 0.0005591256894218354, No Iterations 229
[INFO] SolveP: 987.246 [ms]
time step continuity errors : sum local = 0.005629668083170026, global = -0.000264768267003627, cumulative = 0.000878212184868667
[INFO] postSolveP: 162.277 [ms]
smoothSolver:  Solving for nuTilda, Initial residual = 0.018457897775358, Final residual = 0.001112689668989331, No Iterations 3
[INFO] TimeStep: 10889.968 [ms]
ExecutionTime = 632.3 s  ClockTime = 628 s

Time = 43

velocityDampingConstraint velocityDamping damped 0 (0%) of cells, with max limit 300
[INFO] MatrixAssemblyU: 3334.385 [ms]
smoothSolver:  Solving for Ux, Initial residual = 0.01202814070385115, Final residual = 0.001029874591742774, No Iterations 13
smoothSolver:  Solving for Uy, Initial residual = 0.07181650834782129, Final residual = 0.006841560014948607, No Iterations 13
smoothSolver:  Solving for Uz, Initial residual = 0.07080904561008076, Final residual = 0.006133312641359369, No Iterations 13
[INFO] MomentumPredictor: 3258.231 [ms]
[INFO] MatrixAssemblyPI: 666.616 [ms]
[INFO] MatrixAssemblyPII: 308.375 [ms]
[OGL LOG][Proc: 0]: global_index_init: 0.122 [ms]
[OGL LOG][Proc: 0]p_local_coeffs: call_update: 0 [ms]
[OGL LOG][Proc: 0]p_non_local_coeffs: call_update: 0 [ms]
[OGL LOG][Proc: 0]p: update_local_matrix_data: 80.60300000000001 [ms]
[OGL LOG][Proc: 0]p: update_non_local_matrix_data: 0.29 [ms]
[OGL LOG][Proc: 0]p_matrix: call_update: 19.865 [ms]
[OGL LOG][Proc: 0]p_rhs: call_update: 24.087 [ms]
[OGL LOG][Preconditioner.H:121] Generate preconditioner BJ MaxBlockSize 1
[OGL LOG][Proc: 0]p: init_precond: 1.488 [ms]
[OGL LOG][StoppingCriterion.H:373] Creating stopping criterion with minIter 137 frequency 3
[OGL LOG][Proc: 0]p: generate_solver: 0.001 [ms]
[OGL LOG][Proc: 0]p: solve: 819.388 [ms]
[OGL LOG][Proc: 0]p: copy_x_back: 8.154999999999999 [ms]
[OGL LOG][lduLduBase.H:336] 
Statistics:
	Time per iteration: 3578 [mu s]
	Time per residual norm calculation: 375.000000 [mu s]
	Time per iteration and DOF: 0.070912 [ns]
	Retrieve results bandwidth 1.833000 [GByte/s]
[OGL LOG][Proc: 0]p: solve_multi_gpu: 874.266 [ms]
BJhipGKOCG:  Solving for p, Initial residual = 0.05645543834975594, Final residual = 0.0005533375836228648, No Iterations 229
[INFO] SolveP: 974.9059999999999 [ms]
time step continuity errors : sum local = 0.005557760620031714, global = -0.0004351502281330056, cumulative = 0.0004430619567356614
[INFO] postSolveP: 160.289 [ms]
smoothSolver:  Solving for nuTilda, Initial residual = 0.01236091857744106, Final residual = 0.00110286567465131, No Iterations 3
[INFO] TimeStep: 10948.212 [ms]
ExecutionTime = 645.87 s  ClockTime = 641 s

Time = 44

velocityDampingConstraint velocityDamping damped 0 (0%) of cells, with max limit 300
[INFO] MatrixAssemblyU: 3333.411 [ms]
smoothSolver:  Solving for Ux, Initial residual = 0.01203383749412586, Final residual = 0.001038286842760156, No Iterations 13
smoothSolver:  Solving for Uy, Initial residual = 0.07231107757738098, Final residual = 0.00705049149946768, No Iterations 13
smoothSolver:  Solving for Uz, Initial residual = 0.07014731600845184, Final residual = 0.006205082281863394, No Iterations 13
[INFO] MomentumPredictor: 3260.267 [ms]
[INFO] MatrixAssemblyPI: 665.856 [ms]
[INFO] MatrixAssemblyPII: 309.773 [ms]
[OGL LOG][Proc: 0]: global_index_init: 0.033 [ms]
[OGL LOG][Proc: 0]p_local_coeffs: call_update: 0 [ms]
[OGL LOG][Proc: 0]p_non_local_coeffs: call_update: 0 [ms]
[OGL LOG][Proc: 0]p: update_local_matrix_data: 80.322 [ms]
[OGL LOG][Proc: 0]p: update_non_local_matrix_data: 0.359 [ms]
[OGL LOG][Proc: 0]p_matrix: call_update: 15.85 [ms]
[OGL LOG][Proc: 0]p_rhs: call_update: 24.168 [ms]
[OGL LOG][Preconditioner.H:121] Generate preconditioner BJ MaxBlockSize 1
[OGL LOG][Proc: 0]p: init_precond: 1.484 [ms]
[OGL LOG][StoppingCriterion.H:373] Creating stopping criterion with minIter 137 frequency 3
[OGL LOG][Proc: 0]p: generate_solver: 0.001 [ms]
[OGL LOG][Proc: 0]p: solve: 883.75 [ms]
[OGL LOG][Proc: 0]p: copy_x_back: 8.018000000000001 [ms]
[OGL LOG][lduLduBase.H:336] 
Statistics:
	Time per iteration: 3577 [mu s]
	Time per residual norm calculation: 371.000000 [mu s]
	Time per iteration and DOF: 0.070892 [ns]
	Retrieve results bandwidth 1.864000 [GByte/s]
[OGL LOG][Proc: 0]p: solve_multi_gpu: 934.485 [ms]
BJhipGKOCG:  Solving for p, Initial residual = 0.05567541645863201, Final residual = 0.0005416140476934105, No Iterations 247
[INFO] SolveP: 1034.674 [ms]
time step continuity errors : sum local = 0.005403123892659701, global = -0.0006496975278748776, cumulative = -0.0002066355711392162
[INFO] postSolveP: 160.282 [ms]
smoothSolver:  Solving for nuTilda, Initial residual = 0.01751321179141242, Final residual = 0.001060077972192636, No Iterations 3
[INFO] TimeStep: 11013.225 [ms]
ExecutionTime = 659.51 s  ClockTime = 655 s

Time = 45

velocityDampingConstraint velocityDamping damped 0 (0%) of cells, with max limit 300
[INFO] MatrixAssemblyU: 3331.409 [ms]
smoothSolver:  Solving for Ux, Initial residual = 0.0118848485969075, Final residual = 0.001047101618233388, No Iterations 13
smoothSolver:  Solving for Uy, Initial residual = 0.072378682509151, Final residual = 0.007182689740260442, No Iterations 13
smoothSolver:  Solving for Uz, Initial residual = 0.06930042851488966, Final residual = 0.006263278758538434, No Iterations 13
[INFO] MomentumPredictor: 3250.089 [ms]
[INFO] MatrixAssemblyPI: 666.242 [ms]
[INFO] MatrixAssemblyPII: 313.135 [ms]
[OGL LOG][Proc: 0]: global_index_init: 0.052 [ms]
[OGL LOG][Proc: 0]p_local_coeffs: call_update: 0 [ms]
[OGL LOG][Proc: 0]p_non_local_coeffs: call_update: 0 [ms]
[OGL LOG][Proc: 0]p: update_local_matrix_data: 80.999 [ms]
[OGL LOG][Proc: 0]p: update_non_local_matrix_data: 0.243 [ms]
[OGL LOG][Proc: 0]p_matrix: call_update: 23.294 [ms]
[OGL LOG][Proc: 0]p_rhs: call_update: 19.635 [ms]
[OGL LOG][Preconditioner.H:121] Generate preconditioner BJ MaxBlockSize 1
[OGL LOG][Proc: 0]p: init_precond: 1.512 [ms]
[OGL LOG][StoppingCriterion.H:373] Creating stopping criterion with minIter 148 frequency 3
[OGL LOG][Proc: 0]p: generate_solver: 0.001 [ms]
[OGL LOG][Proc: 0]p: solve: 916.472 [ms]
[OGL LOG][Proc: 0]p: copy_x_back: 8.218999999999999 [ms]
[OGL LOG][lduLduBase.H:336] 
Statistics:
	Time per iteration: 3497 [mu s]
	Time per residual norm calculation: 373.000000 [mu s]
	Time per iteration and DOF: 0.069306 [ns]
	Retrieve results bandwidth 1.818000 [GByte/s]
[OGL LOG][Proc: 0]p: solve_multi_gpu: 970.356 [ms]
BJhipGKOCG:  Solving for p, Initial residual = 0.05512997658570299, Final residual = 0.0005505298423361761, No Iterations 262
[INFO] SolveP: 1069.166 [ms]
time step continuity errors : sum local = 0.005431797316934597, global = -0.0008446064393958351, cumulative = -0.001051242010535051
[INFO] postSolveP: 158.216 [ms]
smoothSolver:  Solving for nuTilda, Initial residual = 0.01179730202064292, Final residual = 0.001048707074948526, No Iterations 3
[INFO] TimeStep: 11031.482 [ms]
ExecutionTime = 673.16 s  ClockTime = 669 s

Time = 46

velocityDampingConstraint velocityDamping damped 0 (0%) of cells, with max limit 300
[INFO] MatrixAssemblyU: 3338.71 [ms]
smoothSolver:  Solving for Ux, Initial residual = 0.01175384184597638, Final residual = 0.001050873764827662, No Iterations 13
smoothSolver:  Solving for Uy, Initial residual = 0.07224732400560184, Final residual = 0.006181425622352414, No Iterations 14
smoothSolver:  Solving for Uz, Initial residual = 0.06806525118834011, Final residual = 0.006316299863942503, No Iterations 13
[INFO] MomentumPredictor: 3329.835 [ms]
[INFO] MatrixAssemblyPI: 665.896 [ms]
[INFO] MatrixAssemblyPII: 317.087 [ms]
[OGL LOG][Proc: 0]: global_index_init: 0.139 [ms]
[OGL LOG][Proc: 0]p_local_coeffs: call_update: 0 [ms]
[OGL LOG][Proc: 0]p_non_local_coeffs: call_update: 0 [ms]
[OGL LOG][Proc: 0]p: update_local_matrix_data: 82.29000000000001 [ms]
[OGL LOG][Proc: 0]p: update_non_local_matrix_data: 0.209 [ms]
[OGL LOG][Proc: 0]p_matrix: call_update: 24.49 [ms]
[OGL LOG][Proc: 0]p_rhs: call_update: 18.357 [ms]
[OGL LOG][Preconditioner.H:121] Generate preconditioner BJ MaxBlockSize 1
[OGL LOG][Proc: 0]p: init_precond: 1.5 [ms]
[OGL LOG][StoppingCriterion.H:373] Creating stopping criterion with minIter 157 frequency 3
[OGL LOG][Proc: 0]p: generate_solver: 0.001 [ms]
[OGL LOG][Proc: 0]p: solve: 1941.904 [ms]
[OGL LOG][Proc: 0]p: copy_x_back: 8.388999999999999 [ms]
[OGL LOG][lduLduBase.H:336] 
Statistics:
	Time per iteration: 3280 [mu s]
	Time per residual norm calculation: 386.000000 [mu s]
	Time per iteration and DOF: 0.065006 [ns]
	Retrieve results bandwidth 1.782000 [GByte/s]
[OGL LOG][Proc: 0]p: solve_multi_gpu: 1995.861 [ms]
BJhipGKOCG:  Solving for p, Initial residual = 0.054480818177602, Final residual = 0.0005408154569555667, No Iterations 592
[INFO] SolveP: 2095.665 [ms]
time step continuity errors : sum local = 0.005286354797103691, global = -0.0001758719275831563, cumulative = -0.001227113938118207
[INFO] postSolveP: 161.445 [ms]
smoothSolver:  Solving for nuTilda, Initial residual = 0.01663209693984606, Final residual = 0.001011670292854388, No Iterations 3
[INFO] TimeStep: 12151.218 [ms]
ExecutionTime = 688.09 s  ClockTime = 683 s

Time = 47

velocityDampingConstraint velocityDamping damped 0 (0%) of cells, with max limit 300
[INFO] MatrixAssemblyU: 3337.065 [ms]
smoothSolver:  Solving for Ux, Initial residual = 0.01167540290924294, Final residual = 0.001057163602828415, No Iterations 13
smoothSolver:  Solving for Uy, Initial residual = 0.07214134785690218, Final residual = 0.006175320871400689, No Iterations 14
smoothSolver:  Solving for Uz, Initial residual = 0.06698315197300699, Final residual = 0.006356885371526088, No Iterations 13
[INFO] MomentumPredictor: 3325.891 [ms]
[INFO] MatrixAssemblyPI: 665.468 [ms]
[INFO] MatrixAssemblyPII: 315.558 [ms]
[OGL LOG][Proc: 0]: global_index_init: 0.079 [ms]
[OGL LOG][Proc: 0]p_local_coeffs: call_update: 0 [ms]
[OGL LOG][Proc: 0]p_non_local_coeffs: call_update: 0 [ms]
[OGL LOG][Proc: 0]p: update_local_matrix_data: 79.479 [ms]
[OGL LOG][Proc: 0]p: update_non_local_matrix_data: 0.485 [ms]
[OGL LOG][Proc: 0]p_matrix: call_update: 19.539 [ms]
[OGL LOG][Proc: 0]p_rhs: call_update: 14.695 [ms]
[OGL LOG][Preconditioner.H:121] Generate preconditioner BJ MaxBlockSize 1
[OGL LOG][Proc: 0]p: init_precond: 1.492 [ms]
[OGL LOG][StoppingCriterion.H:373] Creating stopping criterion with minIter 355 frequency 5
[OGL LOG][Proc: 0]p: generate_solver: 0.001 [ms]
[OGL LOG][Proc: 0]p: solve: 1194.847 [ms]
[OGL LOG][Proc: 0]p: copy_x_back: 8.233000000000001 [ms]
[OGL LOG][lduLduBase.H:336] 
Statistics:
	Time per iteration: 3356 [mu s]
	Time per residual norm calculation: 410.000000 [mu s]
	Time per iteration and DOF: 0.066512 [ns]
	Retrieve results bandwidth 1.815000 [GByte/s]
[OGL LOG][Proc: 0]p: solve_multi_gpu: 1240.12 [ms]
BJhipGKOCG:  Solving for p, Initial residual = 0.05511361631690075, Final residual = 0.0002556161880870702, No Iterations 356
[INFO] SolveP: 1337.531 [ms]
time step continuity errors : sum local = 0.002416896224073894, global = 0.0004209510289846361, cumulative = -0.0008061629091335713
[INFO] postSolveP: 160.404 [ms]
smoothSolver:  Solving for nuTilda, Initial residual = 0.01128514941594044, Final residual = 0.001001986556331002, No Iterations 3
[INFO] TimeStep: 11379.469 [ms]
ExecutionTime = 702.14 s  ClockTime = 697 s

Time = 48

velocityDampingConstraint velocityDamping damped 0 (0%) of cells, with max limit 300
[INFO] MatrixAssemblyU: 3329.146 [ms]
smoothSolver:  Solving for Ux, Initial residual = 0.01160075829431215, Final residual = 0.001063503618536601, No Iterations 13
smoothSolver:  Solving for Uy, Initial residual = 0.07140054920528199, Final residual = 0.006153103014779724, No Iterations 14
smoothSolver:  Solving for Uz, Initial residual = 0.06556885583400546, Final residual = 0.00634157219438247, No Iterations 13
[INFO] MomentumPredictor: 3320.35 [ms]
[INFO] MatrixAssemblyPI: 665.316 [ms]
[INFO] MatrixAssemblyPII: 312.07 [ms]
[OGL LOG][Proc: 0]: global_index_init: 0.066 [ms]
[OGL LOG][Proc: 0]p_local_coeffs: call_update: 0 [ms]
[OGL LOG][Proc: 0]p_non_local_coeffs: call_update: 0 [ms]
[OGL LOG][Proc: 0]p: update_local_matrix_data: 81.785 [ms]
[OGL LOG][Proc: 0]p: update_non_local_matrix_data: 0.241 [ms]
[OGL LOG][Proc: 0]p_matrix: call_update: 20.13 [ms]
[OGL LOG][Proc: 0]p_rhs: call_update: 11.161 [ms]
[OGL LOG][Preconditioner.H:121] Generate preconditioner BJ MaxBlockSize 1
[OGL LOG][Proc: 0]p: init_precond: 1.479 [ms]
[OGL LOG][StoppingCriterion.H:373] Creating stopping criterion with minIter 213 frequency 4
[OGL LOG][Proc: 0]p: generate_solver: 0.001 [ms]
[OGL LOG][Proc: 0]p: solve: 907.3680000000001 [ms]
[OGL LOG][Proc: 0]p: copy_x_back: 8.472 [ms]
[OGL LOG][lduLduBase.H:336] 
Statistics:
	Time per iteration: 3476 [mu s]
	Time per residual norm calculation: 384.000000 [mu s]
	Time per iteration and DOF: 0.068890 [ns]
	Retrieve results bandwidth 1.764000 [GByte/s]
[OGL LOG][Proc: 0]p: solve_multi_gpu: 949.8050000000001 [ms]
BJhipGKOCG:  Solving for p, Initial residual = 0.05416727947679408, Final residual = 0.0005340299761175001, No Iterations 261
[INFO] SolveP: 1049.401 [ms]
time step continuity errors : sum local = 0.005021564703986169, global = 0.0008027673465515458, cumulative = -3.395562582025457e-06
[INFO] postSolveP: 160.236 [ms]
smoothSolver:  Solving for nuTilda, Initial residual = 0.01585351049297887, Final residual = 0.0009708796513638812, No Iterations 3
[INFO] TimeStep: 11084.159 [ms]
ExecutionTime = 715.84 s  ClockTime = 711 s

Time = 49

velocityDampingConstraint velocityDamping damped 0 (0%) of cells, with max limit 300
[INFO] MatrixAssemblyU: 3331.654 [ms]
smoothSolver:  Solving for Ux, Initial residual = 0.01147857841567897, Final residual = 0.001067322822449524, No Iterations 13
smoothSolver:  Solving for Uy, Initial residual = 0.07060665493190191, Final residual = 0.006123066663175427, No Iterations 14
smoothSolver:  Solving for Uz, Initial residual = 0.06457165950276664, Final residual = 0.006318139453737003, No Iterations 13
[INFO] MomentumPredictor: 3322.297 [ms]
[INFO] MatrixAssemblyPI: 664.078 [ms]
[INFO] MatrixAssemblyPII: 309.43 [ms]
[OGL LOG][Proc: 0]: global_index_init: 0.132 [ms]
[OGL LOG][Proc: 0]p_local_coeffs: call_update: 0 [ms]
[OGL LOG][Proc: 0]p_non_local_coeffs: call_update: 0 [ms]
[OGL LOG][Proc: 0]p: update_local_matrix_data: 79.122 [ms]
[OGL LOG][Proc: 0]p: update_non_local_matrix_data: 0.312 [ms]
[OGL LOG][Proc: 0]p_matrix: call_update: 22.93 [ms]
[OGL LOG][Proc: 0]p_rhs: call_update: 15.249 [ms]
[OGL LOG][Preconditioner.H:121] Generate preconditioner BJ MaxBlockSize 1
[OGL LOG][Proc: 0]p: init_precond: 1.476 [ms]
[OGL LOG][StoppingCriterion.H:373] Creating stopping criterion with minIter 156 frequency 3
[OGL LOG][Proc: 0]p: generate_solver: 0.001 [ms]
[OGL LOG][Proc: 0]p: solve: 1135.574 [ms]
[OGL LOG][Proc: 0]p: copy_x_back: 8.161 [ms]
[OGL LOG][lduLduBase.H:336] 
Statistics:
	Time per iteration: 3369 [mu s]
	Time per residual norm calculation: 380.000000 [mu s]
	Time per iteration and DOF: 0.066770 [ns]
	Retrieve results bandwidth 1.831000 [GByte/s]
[OGL LOG][Proc: 0]p: solve_multi_gpu: 1184.64 [ms]
BJhipGKOCG:  Solving for p, Initial residual = 0.05359862524775096, Final residual = 0.0005344141109102221, No Iterations 337
[INFO] SolveP: 1284.748 [ms]
time step continuity errors : sum local = 0.0050078934638882, global = 0.0008283951699420588, cumulative = 0.0008249996073600333
[INFO] postSolveP: 161.837 [ms]
smoothSolver:  Solving for nuTilda, Initial residual = 0.01085529268820681, Final residual = 0.0009646951940984782, No Iterations 3
[INFO] TimeStep: 11314.024 [ms]
ExecutionTime = 729.8099999999999 s  ClockTime = 725 s

Time = 50

velocityDampingConstraint velocityDamping damped 0 (0%) of cells, with max limit 300
[INFO] MatrixAssemblyU: 3325.731 [ms]
smoothSolver:  Solving for Ux, Initial residual = 0.01146307795539643, Final residual = 0.00106875682000383, No Iterations 13
smoothSolver:  Solving for Uy, Initial residual = 0.06968591730537392, Final residual = 0.006059879830100432, No Iterations 14
smoothSolver:  Solving for Uz, Initial residual = 0.06384514324706028, Final residual = 0.0063061823247553, No Iterations 13
[INFO] MomentumPredictor: 3321.247 [ms]
[INFO] MatrixAssemblyPI: 666.022 [ms]
[INFO] MatrixAssemblyPII: 310.215 [ms]
[OGL LOG][Proc: 0]: global_index_init: 0.079 [ms]
[OGL LOG][Proc: 0]p_local_coeffs: call_update: 0 [ms]
[OGL LOG][Proc: 0]p_non_local_coeffs: call_update: 0 [ms]
[OGL LOG][Proc: 0]p: update_local_matrix_data: 78.17700000000001 [ms]
[OGL LOG][Proc: 0]p: update_non_local_matrix_data: 0.224 [ms]
[OGL LOG][Proc: 0]p_matrix: call_update: 16.317 [ms]
[OGL LOG][Proc: 0]p_rhs: call_update: 13.015 [ms]
[OGL LOG][Preconditioner.H:121] Generate preconditioner BJ MaxBlockSize 1
[OGL LOG][Proc: 0]p: init_precond: 1.475 [ms]
[OGL LOG][StoppingCriterion.H:373] Creating stopping criterion with minIter 202 frequency 4
[OGL LOG][Proc: 0]p: generate_solver: 0.001 [ms]
[OGL LOG][Proc: 0]p: solve: 921.15 [ms]
[OGL LOG][Proc: 0]p: copy_x_back: 7.817 [ms]
[OGL LOG][lduLduBase.H:336] 
Statistics:
	Time per iteration: 3584 [mu s]
	Time per residual norm calculation: 373.000000 [mu s]
	Time per iteration and DOF: 0.071031 [ns]
	Retrieve results bandwidth 1.912000 [GByte/s]
[OGL LOG][Proc: 0]p: solve_multi_gpu: 961.044 [ms]
BJhipGKOCG:  Solving for p, Initial residual = 0.05304476636038945, Final residual = 0.0005297504545521637, No Iterations 257
[INFO] SolveP: 1059.241 [ms]
time step continuity errors : sum local = 0.004963046839387125, global = 0.0008118379254183345, cumulative = 0.001636837532778368
[INFO] postSolveP: 160.281 [ms]
smoothSolver:  Solving for nuTilda, Initial residual = 0.01517137373061686, Final residual = 0.0009391433618538463, No Iterations 3
[INFO] TimeStep: 11093.632 [ms]
ExecutionTime = 743.52 s  ClockTime = 738 s

End

Finalising parallel run
