/*---------------------------------------------------------------------------*\
| =========                 |                                                 |
| \\      /  F ield         | OpenFOAM: The Open Source CFD Toolbox           |
|  \\    /   O peration     | Version:  2212                                  |
|   \\  /    A nd           | Website:  www.openfoam.com                      |
|    \\/     M anipulation  |                                                 |
\*---------------------------------------------------------------------------*/
Build  : 5614a57-20230228 OPENFOAM=2212 patch=230110 version=v2212
Arch   : "LSB;label=32;scalar=64"
Exec   : icoFoam -parallel -case /home/greole/data/code/exasim-project/micro_benchmarks/LidDrivenCavity3D/workspace/0b617d9dc180aba524e4f640e56b554b/case
Date   : Jun 30 2023
Time   : 09:41:17
Host   : guyot
PID    : 1562623
I/O    : uncollated
Case   : /home/greole/data/code/exasim-project/micro_benchmarks/LidDrivenCavity3D/workspace/0b617d9dc180aba524e4f640e56b554b/case
nProcs : 8
Hosts  :
(
    (guyot 8)
)
Pstream initialized with:
    floatTransfer      : 0
    nProcsSimpleSum    : 0
    commsType          : nonBlocking
    polling iterations : 0
trapFpe: Floating point exception trapping enabled (FOAM_SIGFPE).
fileModificationChecking : Monitoring run-time modified files using timeStampMaster (fileModificationSkew 5, maxFileModificationPolls 20)
allowSystemOperations : Allowing user-supplied system call operations

// * * * * * * * * * * * * * * * * * * * * * * * * * * * * * * * * * * * * * //
Create time

--> FOAM Warning : 
    From void* Foam::dlLibraryTable::openLibrary(const Foam::fileName&, bool)
    in file db/dynamicLibrary/dlLibraryTable/dlLibraryTable.C at line 188
    Could not load "libpetscFoam.so"
libpetscFoam.so: cannot open shared object file: No such file or directory
Create mesh for time = 0


PISO: Operating solver in PISO mode

Reading transportProperties

Reading field p

Reading field U

Reading/calculating face flux field phi


Starting time loop

Time = 0.00025

Courant Number mean: 8.24341e-18 max: 2.08167e-14
DILUPBiCGStab:  Solving for Ux, Initial residual = 1, Final residual = 0.00959752, No Iterations 5
DILUPBiCGStab:  Solving for Uy:  solution singularity
DILUPBiCGStab:  Solving for Uz:  solution singularity
[OGL LOG][lduLduBase.H:121] Initialising OGL
	OGL commit:  e496ca7+
	Branch: cyclic-fix-asym 
	Build type: Debug
	Ginkgo version: 1.5.0 ( develop)
	Ginkgo commit: 4292ffdee
	MPI is GPU aware: 1
	Forces host buffer based communication: 1
	CPU ranks per GPU: 1
	Matrix format: Coo
	End OGL_INFO
 cuda init
 device_id 1
 num devices  get__num_devices 
 cuda init
 device_id 2
 num devices  get__num_devices 
 cuda init
 device_id 3
 num devices  get__num_devices 
 cuda init
 device_id 4
 num devices  get__num_devices 
 cuda init
 device_id 5
 num devices  get__num_devices 
 cuda init
 device_id 6
 num devices  get__num_devices 
 cuda init
 device_id 7
 num devices  get__num_devices 
 cuda init
 device_id 0
 num devices  get__num_devices 
 8
 get__num_devices 
  get__num_devices 
 8
 get__num_devices 
  get__num_devices 
 8
 get__num_devices 
  get__num_devices 
 8
 get__num_devices 
  get__num_devices 
  get__num_devices 
  get__num_devices 
 8
 get__num_devices 
  get__num_devices 
 8
 get__num_devices 
  get__num_devices 
 8
 get__num_devices 
  get__num_devices 
 8
 get__num_devices 
  get__num_devices 
  get__num_devices 
  get__num_devices 
  get__num_devices 
  get__num_devices 
  get__num_devices 
  get__num_devices 
  get__num_devices 
  get__num_devices 
  get__num_devices 
  get__num_devices 
  get__num_devices 
  get__num_devices 
  get__num_devices 
  get__num_devices 
 [OGL LOG][Proc: 0]: global_index_init: 1587.58 [ms]
[OGL LOG][Proc: 0]p_local_cols: call_init: 0.687 [ms]
[OGL LOG][Proc: 0]p_local_rows: call_init: 0.013 [ms]
[OGL LOG][Proc: 0]p_local_ldu_map: call_init: 0.008 [ms]
[OGL LOG][Proc: 0]p_local_coeffs: call_init: 0.301 [ms]
[OGL LOG][Proc: 0]p_non_local_cols: call_init: 0.007 [ms]
[OGL LOG][Proc: 0]p_non_local_rows: call_init: 0.004 [ms]
[OGL LOG][Proc: 0]p_non_local_ldu_map: call_init: 0.004 [ms]
[OGL LOG][Proc: 0]p_non_local_coeffs: call_init: 0.008 [ms]
local_interface_nnzs01[OGL LOG][Proc: 0]p: init_local_sparsity_pattern: 1367.34 [ms]
[OGL LOG][Proc: 0]p: init_non_local_sparsity_pattern: 153.91 [ms]
[OGL LOG][Proc: 0]p: update_local_matrix_data: 56.14 [ms]
[OGL LOG][Proc: 0]p: update_non_local_matrix_data: 99.397 [ms]
[OGL LOG][Proc: 0]device_partition: call_init: 6.635 [ms]
[OGL LOG][Proc: 0]p_matrix: call_init: 286.041 [ms]
[OGL LOG][Proc: 0]p_rhs: call_init: 3.877 [ms]
[OGL LOG][Proc: 0]p_solution: call_init: 5.557 [ms]
[OGL LOG][Proc: 0]p: init_precond: 0.332 [ms]
[OGL LOG][StoppingCriterion.H:372] Creating stopping criterion with minIter 0 frequency 1
[OGL LOG][Proc: 0]p: generate_solver: 1.194 [ms]
[OGL LOG][Proc: 0]p: solve: 2428.68 [ms]
[OGL LOG][Proc: 0]p: copy_x_back: 10.433 [ms]
[OGL LOG][lduLduBase.H:319] 
Statistics:
	Time per iteration: 1507 [mu s]
	Time per residual norm calculation: 284.000000 [mu s]
	Time per iteration and DOF: 0.188375 [ns]
	Retrieve results bandwith 0.766000 [GByte/s]
[OGL LOG][Proc: 0]p: solve_multi_gpu: 2751.73 [ms]
nonecudaGKOCG:  Solving for p, Initial residual = 1, Final residual = 9.86725e-05, No Iterations 1611
time step continuity errors : sum local = 7.58218e-09, global = -2.01653e-21, cumulative = -2.01653e-21
[OGL LOG][Proc: 0]: global_index_init: 0.013 [ms]
[OGL LOG][Proc: 0]p_local_coeffs: call_update: 0.005 [ms]
[OGL LOG][Proc: 0]p_non_local_coeffs: call_update: 0 [ms]
local_interface_nnzs01[OGL LOG][Proc: 0]p: update_local_matrix_data: 90.776 [ms]
[OGL LOG][Proc: 0]p: update_non_local_matrix_data: 1.033 [ms]
[OGL LOG][Proc: 0]p_matrix: call_update: 36.481 [ms]
[OGL LOG][Proc: 0]p_rhs: call_update: 3.023 [ms]
[OGL LOG][Proc: 0]p: init_precond: 0.171 [ms]
[OGL LOG][StoppingCriterion.H:372] Creating stopping criterion with minIter 966 frequency 11
[OGL LOG][Proc: 0]p: generate_solver: 0.027 [ms]
[OGL LOG][Proc: 0]p: solve: 2099.93 [ms]
[OGL LOG][Proc: 0]p: copy_x_back: 10.015 [ms]
[OGL LOG][lduLduBase.H:319] 
Statistics:
	Time per iteration: 1315 [mu s]
	Time per residual norm calculation: 178.000000 [mu s]
	Time per iteration and DOF: 0.164375 [ns]
	Retrieve results bandwith 0.798000 [GByte/s]
[OGL LOG][Proc: 0]p: solve_multi_gpu: 2154.63 [ms]
nonecudaGKOCG:  Solving for p, Initial residual = 0.786527, Final residual = 8.71653e-05, No Iterations 1596
time step continuity errors : sum local = 8.3704e-09, global = 5.92093e-22, cumulative = -1.42444e-21
ExecutionTime = 17.35 s  ClockTime = 20 s

Time = 0.0005

Courant Number mean: 0.0159725 max: 0.41252
DILUPBiCGStab:  Solving for Ux, Initial residual = 0.129596, Final residual = 0.00510254, No Iterations 5
DILUPBiCGStab:  Solving for Uy, Initial residual = 0.426762, Final residual = 0.0132344, No Iterations 5
DILUPBiCGStab:  Solving for Uz, Initial residual = 0.993462, Final residual = 0.0333249, No Iterations 5
[OGL LOG][Proc: 0]: global_index_init: 0.014 [ms]
[OGL LOG][Proc: 0]p_local_coeffs: call_update: 0 [ms]
[OGL LOG][Proc: 0]p_non_local_coeffs: call_update: 0 [ms]
local_interface_nnzs01[OGL LOG][Proc: 0]p: update_local_matrix_data: 90 [ms]
[OGL LOG][Proc: 0]p: update_non_local_matrix_data: 1.879 [ms]
[OGL LOG][Proc: 0]p_matrix: call_update: 35.503 [ms]
[OGL LOG][Proc: 0]p_rhs: call_update: 4.843 [ms]
[OGL LOG][Proc: 0]p: init_precond: 0.034 [ms]
[OGL LOG][StoppingCriterion.H:372] Creating stopping criterion with minIter 957 frequency 9
[OGL LOG][Proc: 0]p: generate_solver: 0.023 [ms]
[OGL LOG][Proc: 0]p: solve: 2087.89 [ms]
[OGL LOG][Proc: 0]p: copy_x_back: 10.505 [ms]
[OGL LOG][lduLduBase.H:319] 
Statistics:
	Time per iteration: 1324 [mu s]
	Time per residual norm calculation: 181.000000 [mu s]
	Time per iteration and DOF: 0.165500 [ns]
	Retrieve results bandwith 0.761000 [GByte/s]
[OGL LOG][Proc: 0]p: solve_multi_gpu: 2143.91 [ms]
nonecudaGKOCG:  Solving for p, Initial residual = 0.824097, Final residual = 9.10604e-05, No Iterations 1576
time step continuity errors : sum local = 1.33403e-08, global = -4.42684e-22, cumulative = -1.86712e-21
[OGL LOG][Proc: 0]: global_index_init: 0.014 [ms]
[OGL LOG][Proc: 0]p_local_coeffs: call_update: 0 [ms]
[OGL LOG][Proc: 0]p_non_local_coeffs: call_update: 0 [ms]
local_interface_nnzs01[OGL LOG][Proc: 0]p: update_local_matrix_data: 91.306 [ms]
[OGL LOG][Proc: 0]p: update_non_local_matrix_data: 1.121 [ms]
[OGL LOG][Proc: 0]p_matrix: call_update: 36.305 [ms]
[OGL LOG][Proc: 0]p_rhs: call_update: 2.956 [ms]
[OGL LOG][Proc: 0]p: init_precond: 0.033 [ms]
[OGL LOG][StoppingCriterion.H:372] Creating stopping criterion with minIter 945 frequency 9
[OGL LOG][Proc: 0]p: generate_solver: 0.023 [ms]
[OGL LOG][Proc: 0]p: solve: 2088.76 [ms]
[OGL LOG][Proc: 0]p: copy_x_back: 10.348 [ms]
[OGL LOG][lduLduBase.H:319] 
Statistics:
	Time per iteration: 1332 [mu s]
	Time per residual norm calculation: 187.000000 [mu s]
	Time per iteration and DOF: 0.166500 [ns]
	Retrieve results bandwith 0.773000 [GByte/s]
[OGL LOG][Proc: 0]p: solve_multi_gpu: 2143.46 [ms]
nonecudaGKOCG:  Solving for p, Initial residual = 0.76738, Final residual = 9.39255e-05, No Iterations 1567
time step continuity errors : sum local = 1.40077e-08, global = -1.26406e-21, cumulative = -3.13118e-21
ExecutionTime = 28.13 s  ClockTime = 31 s

Time = 0.00075

Courant Number mean: 0.0243584 max: 0.471981
DILUPBiCGStab:  Solving for Ux, Initial residual = 0.0547593, Final residual = 0.00175942, No Iterations 5
DILUPBiCGStab:  Solving for Uy, Initial residual = 0.18208, Final residual = 0.00707539, No Iterations 5
DILUPBiCGStab:  Solving for Uz, Initial residual = 0.815569, Final residual = 0.0252725, No Iterations 5
[OGL LOG][Proc: 0]: global_index_init: 0.014 [ms]
[OGL LOG][Proc: 0]p_local_coeffs: call_update: 0.001 [ms]
[OGL LOG][Proc: 0]p_non_local_coeffs: call_update: 0 [ms]
local_interface_nnzs01[OGL LOG][Proc: 0]p: update_local_matrix_data: 89.558 [ms]
[OGL LOG][Proc: 0]p: update_non_local_matrix_data: 2.004 [ms]
[OGL LOG][Proc: 0]p_matrix: call_update: 36.736 [ms]
[OGL LOG][Proc: 0]p_rhs: call_update: 3.924 [ms]
[OGL LOG][Proc: 0]p: init_precond: 0.033 [ms]
[OGL LOG][StoppingCriterion.H:372] Creating stopping criterion with minIter 940 frequency 9
[OGL LOG][Proc: 0]p: generate_solver: 0.025 [ms]
[OGL LOG][Proc: 0]p: solve: 2082.8 [ms]
[OGL LOG][Proc: 0]p: copy_x_back: 10.258 [ms]
[OGL LOG][lduLduBase.H:319] 
Statistics:
	Time per iteration: 1321 [mu s]
	Time per residual norm calculation: 182.000000 [mu s]
	Time per iteration and DOF: 0.165125 [ns]
	Retrieve results bandwith 0.779000 [GByte/s]
[OGL LOG][Proc: 0]p: solve_multi_gpu: 2138.71 [ms]
nonecudaGKOCG:  Solving for p, Initial residual = 0.848666, Final residual = 8.95682e-05, No Iterations 1576
time step continuity errors : sum local = 1.19988e-08, global = -3.02129e-22, cumulative = -3.43331e-21
[OGL LOG][Proc: 0]: global_index_init: 0.05 [ms]
[OGL LOG][Proc: 0]p_local_coeffs: call_update: 0.001 [ms]
[OGL LOG][Proc: 0]p_non_local_coeffs: call_update: 0 [ms]
local_interface_nnzs01[OGL LOG][Proc: 0]p: update_local_matrix_data: 89.172 [ms]
[OGL LOG][Proc: 0]p: update_non_local_matrix_data: 0.999 [ms]
[OGL LOG][Proc: 0]p_matrix: call_update: 33.533 [ms]
[OGL LOG][Proc: 0]p_rhs: call_update: 7.235 [ms]
[OGL LOG][Proc: 0]p: init_precond: 0.033 [ms]
[OGL LOG][StoppingCriterion.H:372] Creating stopping criterion with minIter 945 frequency 9
[OGL LOG][Proc: 0]p: generate_solver: 0.023 [ms]
[OGL LOG][Proc: 0]p: solve: 2088.3 [ms]
[OGL LOG][Proc: 0]p: copy_x_back: 10.273 [ms]
[OGL LOG][lduLduBase.H:319] 
Statistics:
	Time per iteration: 1325 [mu s]
	Time per residual norm calculation: 183.000000 [mu s]
	Time per iteration and DOF: 0.165625 [ns]
	Retrieve results bandwith 0.778000 [GByte/s]
[OGL LOG][Proc: 0]p: solve_multi_gpu: 2144.77 [ms]
nonecudaGKOCG:  Solving for p, Initial residual = 0.815329, Final residual = 8.44733e-05, No Iterations 1576
time step continuity errors : sum local = 1.10724e-08, global = 9.62491e-22, cumulative = -2.47082e-21
ExecutionTime = 38.89 s  ClockTime = 42 s

Time = 0.001

Courant Number mean: 0.029233 max: 0.467776
DILUPBiCGStab:  Solving for Ux, Initial residual = 0.0346512, Final residual = 0.00116378, No Iterations 5
DILUPBiCGStab:  Solving for Uy, Initial residual = 0.129012, Final residual = 0.00438844, No Iterations 5
DILUPBiCGStab:  Solving for Uz, Initial residual = 0.601207, Final residual = 0.0148419, No Iterations 5
[OGL LOG][Proc: 0]: global_index_init: 0.013 [ms]
[OGL LOG][Proc: 0]p_local_coeffs: call_update: 0 [ms]
[OGL LOG][Proc: 0]p_non_local_coeffs: call_update: 0 [ms]
local_interface_nnzs01[OGL LOG][Proc: 0]p: update_local_matrix_data: 89.862 [ms]
[OGL LOG][Proc: 0]p: update_non_local_matrix_data: 1.259 [ms]
[OGL LOG][Proc: 0]p_matrix: call_update: 36.124 [ms]
[OGL LOG][Proc: 0]p_rhs: call_update: 4.058 [ms]
[OGL LOG][Proc: 0]p: init_precond: 0.037 [ms]
[OGL LOG][StoppingCriterion.H:372] Creating stopping criterion with minIter 945 frequency 9
[OGL LOG][Proc: 0]p: generate_solver: 0.023 [ms]
[OGL LOG][Proc: 0]p: solve: 1284.4 [ms]
[OGL LOG][Proc: 0]p: copy_x_back: 9.507 [ms]
[OGL LOG][lduLduBase.H:319] 
Statistics:
	Time per iteration: 1357 [mu s]
	Time per residual norm calculation: 187.000000 [mu s]
	Time per iteration and DOF: 0.169625 [ns]
	Retrieve results bandwith 0.841000 [GByte/s]
[OGL LOG][Proc: 0]p: solve_multi_gpu: 1339.01 [ms]
nonecudaGKOCG:  Solving for p, Initial residual = 0.769317, Final residual = 4.89149e-05, No Iterations 946
time step continuity errors : sum local = 6.41188e-09, global = -2.39365e-22, cumulative = -2.71019e-21
[OGL LOG][Proc: 0]: global_index_init: 0.044 [ms]
[OGL LOG][Proc: 0]p_local_coeffs: call_update: 0 [ms]
[OGL LOG][Proc: 0]p_non_local_coeffs: call_update: 0 [ms]
local_interface_nnzs01[OGL LOG][Proc: 0]p: update_local_matrix_data: 87.322 [ms]
[OGL LOG][Proc: 0]p: update_non_local_matrix_data: 2.65 [ms]
[OGL LOG][Proc: 0]p_matrix: call_update: 29.801 [ms]
[OGL LOG][Proc: 0]p_rhs: call_update: 11.46 [ms]
[OGL LOG][Proc: 0]p: init_precond: 0.03 [ms]
[OGL LOG][StoppingCriterion.H:372] Creating stopping criterion with minIter 567 frequency 7
[OGL LOG][Proc: 0]p: generate_solver: 0.021 [ms]
[OGL LOG][Proc: 0]p: solve: 1070.66 [ms]
[OGL LOG][Proc: 0]p: copy_x_back: 9.862 [ms]
[OGL LOG][lduLduBase.H:319] 
Statistics:
	Time per iteration: 1401 [mu s]
	Time per residual norm calculation: 179.000000 [mu s]
	Time per iteration and DOF: 0.175125 [ns]
	Retrieve results bandwith 0.811000 [GByte/s]
[OGL LOG][Proc: 0]p: solve_multi_gpu: 1127.03 [ms]
nonecudaGKOCG:  Solving for p, Initial residual = 0.706639, Final residual = 8.69517e-05, No Iterations 764
time step continuity errors : sum local = 1.08485e-08, global = -1.23679e-21, cumulative = -3.94698e-21
ExecutionTime = 47.85 s  ClockTime = 51 s

Time = 0.00125

Courant Number mean: 0.0333806 max: 0.472901
DILUPBiCGStab:  Solving for Ux, Initial residual = 0.0270932, Final residual = 0.000842224, No Iterations 5
DILUPBiCGStab:  Solving for Uy, Initial residual = 0.0811965, Final residual = 0.00325903, No Iterations 5
DILUPBiCGStab:  Solving for Uz, Initial residual = 0.448089, Final residual = 0.0108904, No Iterations 5
[OGL LOG][Proc: 0]: global_index_init: 0.013 [ms]
[OGL LOG][Proc: 0]p_local_coeffs: call_update: 0.001 [ms]
[OGL LOG][Proc: 0]p_non_local_coeffs: call_update: 0 [ms]
local_interface_nnzs01[OGL LOG][Proc: 0]p: update_local_matrix_data: 88.268 [ms]
[OGL LOG][Proc: 0]p: update_non_local_matrix_data: 3.8 [ms]
[OGL LOG][Proc: 0]p_matrix: call_update: 36.395 [ms]
[OGL LOG][Proc: 0]p_rhs: call_update: 3.415 [ms]
[OGL LOG][Proc: 0]p: init_precond: 0.037 [ms]
[OGL LOG][StoppingCriterion.H:372] Creating stopping criterion with minIter 458 frequency 6
[OGL LOG][Proc: 0]p: generate_solver: 0.024 [ms]
[OGL LOG][Proc: 0]p: solve: 1051.2 [ms]
[OGL LOG][Proc: 0]p: copy_x_back: 10.343 [ms]
[OGL LOG][lduLduBase.H:319] 
Statistics:
	Time per iteration: 1411 [mu s]
	Time per residual norm calculation: 181.000000 [mu s]
	Time per iteration and DOF: 0.176375 [ns]
	Retrieve results bandwith 0.773000 [GByte/s]
[OGL LOG][Proc: 0]p: solve_multi_gpu: 1106.35 [ms]
nonecudaGKOCG:  Solving for p, Initial residual = 0.774765, Final residual = 9.15973e-05, No Iterations 745
time step continuity errors : sum local = 9.40378e-09, global = -2.84661e-21, cumulative = -6.79359e-21
[OGL LOG][Proc: 0]: global_index_init: 0.018 [ms]
[OGL LOG][Proc: 0]p_local_coeffs: call_update: 0 [ms]
[OGL LOG][Proc: 0]p_non_local_coeffs: call_update: 0 [ms]
local_interface_nnzs01[OGL LOG][Proc: 0]p: update_local_matrix_data: 90.29 [ms]
[OGL LOG][Proc: 0]p: update_non_local_matrix_data: 1.021 [ms]
[OGL LOG][Proc: 0]p_matrix: call_update: 35.881 [ms]
[OGL LOG][Proc: 0]p_rhs: call_update: 4.299 [ms]
[OGL LOG][Proc: 0]p: init_precond: 0.036 [ms]
[OGL LOG][StoppingCriterion.H:372] Creating stopping criterion with minIter 447 frequency 6
[OGL LOG][Proc: 0]p: generate_solver: 0.022 [ms]
[OGL LOG][Proc: 0]p: solve: 1053.21 [ms]
[OGL LOG][Proc: 0]p: copy_x_back: 10.37 [ms]
[OGL LOG][lduLduBase.H:319] 
Statistics:
	Time per iteration: 1413 [mu s]
	Time per residual norm calculation: 184.000000 [mu s]
	Time per iteration and DOF: 0.176625 [ns]
	Retrieve results bandwith 0.771000 [GByte/s]
[OGL LOG][Proc: 0]p: solve_multi_gpu: 1108.77 [ms]
nonecudaGKOCG:  Solving for p, Initial residual = 0.723575, Final residual = 8.65872e-05, No Iterations 745
time step continuity errors : sum local = 8.64473e-09, global = -1.8045e-21, cumulative = -8.59809e-21
ExecutionTime = 56.56 s  ClockTime = 59 s

Time = 0.0015

Courant Number mean: 0.036686 max: 0.475572
DILUPBiCGStab:  Solving for Ux, Initial residual = 0.0203804, Final residual = 0.000603376, No Iterations 5
DILUPBiCGStab:  Solving for Uy, Initial residual = 0.0656707, Final residual = 0.00224175, No Iterations 5
DILUPBiCGStab:  Solving for Uz, Initial residual = 0.325601, Final residual = 0.00776998, No Iterations 5
[OGL LOG][Proc: 0]: global_index_init: 0.014 [ms]
[OGL LOG][Proc: 0]p_local_coeffs: call_update: 0 [ms]
[OGL LOG][Proc: 0]p_non_local_coeffs: call_update: 0 [ms]
local_interface_nnzs01[OGL LOG][Proc: 0]p: update_local_matrix_data: 90.089 [ms]
[OGL LOG][Proc: 0]p: update_non_local_matrix_data: 0.949 [ms]
[OGL LOG][Proc: 0]p_matrix: call_update: 37.948 [ms]
[OGL LOG][Proc: 0]p_rhs: call_update: 3.258 [ms]
[OGL LOG][Proc: 0]p: init_precond: 0.034 [ms]
[OGL LOG][StoppingCriterion.H:372] Creating stopping criterion with minIter 447 frequency 6
[OGL LOG][Proc: 0]p: generate_solver: 0.026 [ms]
[OGL LOG][Proc: 0]p: solve: 1051.01 [ms]
[OGL LOG][Proc: 0]p: copy_x_back: 10.012 [ms]
[OGL LOG][lduLduBase.H:319] 
Statistics:
	Time per iteration: 1410 [mu s]
	Time per residual norm calculation: 180.000000 [mu s]
	Time per iteration and DOF: 0.176250 [ns]
	Retrieve results bandwith 0.799000 [GByte/s]
[OGL LOG][Proc: 0]p: solve_multi_gpu: 1107.37 [ms]
nonecudaGKOCG:  Solving for p, Initial residual = 0.681284, Final residual = 9.70091e-05, No Iterations 745
time step continuity errors : sum local = 1.00258e-08, global = -2.55754e-22, cumulative = -8.85384e-21
[OGL LOG][Proc: 0]: global_index_init: 0.013 [ms]
[OGL LOG][Proc: 0]p_local_coeffs: call_update: 0 [ms]
[OGL LOG][Proc: 0]p_non_local_coeffs: call_update: 0 [ms]
local_interface_nnzs01[OGL LOG][Proc: 0]p: update_local_matrix_data: 90.379 [ms]
[OGL LOG][Proc: 0]p: update_non_local_matrix_data: 1.042 [ms]
[OGL LOG][Proc: 0]p_matrix: call_update: 36.975 [ms]
[OGL LOG][Proc: 0]p_rhs: call_update: 3.409 [ms]
[OGL LOG][Proc: 0]p: init_precond: 0.036 [ms]
[OGL LOG][StoppingCriterion.H:372] Creating stopping criterion with minIter 447 frequency 6
[OGL LOG][Proc: 0]p: generate_solver: 0.023 [ms]
[OGL LOG][Proc: 0]p: solve: 1056.07 [ms]
[OGL LOG][Proc: 0]p: copy_x_back: 10.543 [ms]
[OGL LOG][lduLduBase.H:319] 
Statistics:
	Time per iteration: 1417 [mu s]
	Time per residual norm calculation: 178.000000 [mu s]
	Time per iteration and DOF: 0.177125 [ns]
	Retrieve results bandwith 0.758000 [GByte/s]
[OGL LOG][Proc: 0]p: solve_multi_gpu: 1112.41 [ms]
nonecudaGKOCG:  Solving for p, Initial residual = 0.620506, Final residual = 8.14786e-05, No Iterations 745
time step continuity errors : sum local = 7.90026e-09, global = -2.31549e-21, cumulative = -1.11693e-20
ExecutionTime = 65.26 s  ClockTime = 68 s

Time = 0.00175

Courant Number mean: 0.039604 max: 0.477516
DILUPBiCGStab:  Solving for Ux, Initial residual = 0.0173939, Final residual = 0.000478459, No Iterations 5
DILUPBiCGStab:  Solving for Uy, Initial residual = 0.0488548, Final residual = 0.00163366, No Iterations 5
DILUPBiCGStab:  Solving for Uz, Initial residual = 0.252341, Final residual = 0.00728617, No Iterations 5
[OGL LOG][Proc: 0]: global_index_init: 0.056 [ms]
[OGL LOG][Proc: 0]p_local_coeffs: call_update: 0.001 [ms]
[OGL LOG][Proc: 0]p_non_local_coeffs: call_update: 0 [ms]
local_interface_nnzs01[OGL LOG][Proc: 0]p: update_local_matrix_data: 89.419 [ms]
[OGL LOG][Proc: 0]p: update_non_local_matrix_data: 1.79 [ms]
[OGL LOG][Proc: 0]p_matrix: call_update: 35.845 [ms]
[OGL LOG][Proc: 0]p_rhs: call_update: 4.928 [ms]
[OGL LOG][Proc: 0]p: init_precond: 0.034 [ms]
[OGL LOG][StoppingCriterion.H:372] Creating stopping criterion with minIter 447 frequency 6
[OGL LOG][Proc: 0]p: generate_solver: 0.028 [ms]
[OGL LOG][Proc: 0]p: solve: 2033.55 [ms]
[OGL LOG][Proc: 0]p: copy_x_back: 10.385 [ms]
[OGL LOG][lduLduBase.H:319] 
Statistics:
	Time per iteration: 1338 [mu s]
	Time per residual norm calculation: 181.000000 [mu s]
	Time per iteration and DOF: 0.167250 [ns]
	Retrieve results bandwith 0.770000 [GByte/s]
[OGL LOG][Proc: 0]p: solve_multi_gpu: 2089.68 [ms]
nonecudaGKOCG:  Solving for p, Initial residual = 0.677202, Final residual = 8.92124e-05, No Iterations 1519
time step continuity errors : sum local = 6.89932e-09, global = -6.11875e-22, cumulative = -1.17812e-20
[OGL LOG][Proc: 0]: global_index_init: 0.023 [ms]
[OGL LOG][Proc: 0]p_local_coeffs: call_update: 0.001 [ms]
[OGL LOG][Proc: 0]p_non_local_coeffs: call_update: 0 [ms]
local_interface_nnzs01[OGL LOG][Proc: 0]p: update_local_matrix_data: 89.199 [ms]
[OGL LOG][Proc: 0]p: update_non_local_matrix_data: 2.328 [ms]
[OGL LOG][Proc: 0]p_matrix: call_update: 35.156 [ms]
[OGL LOG][Proc: 0]p_rhs: call_update: 4.912 [ms]
[OGL LOG][Proc: 0]p: init_precond: 0.033 [ms]
[OGL LOG][StoppingCriterion.H:372] Creating stopping criterion with minIter 911 frequency 9
[OGL LOG][Proc: 0]p: generate_solver: 0.023 [ms]
[OGL LOG][Proc: 0]p: solve: 1998.69 [ms]
[OGL LOG][Proc: 0]p: copy_x_back: 10.255 [ms]
[OGL LOG][lduLduBase.H:319] 
Statistics:
	Time per iteration: 1321 [mu s]
	Time per residual norm calculation: 178.000000 [mu s]
	Time per iteration and DOF: 0.165125 [ns]
	Retrieve results bandwith 0.780000 [GByte/s]
[OGL LOG][Proc: 0]p: solve_multi_gpu: 2054.18 [ms]
nonecudaGKOCG:  Solving for p, Initial residual = 0.617344, Final residual = 9.83495e-05, No Iterations 1513
time step continuity errors : sum local = 7.56654e-09, global = 2.9384e-22, cumulative = -1.14874e-20
ExecutionTime = 75.87 s  ClockTime = 79 s

Time = 0.002

Courant Number mean: 0.0421308 max: 0.47922
DILUPBiCGStab:  Solving for Ux, Initial residual = 0.0142547, Final residual = 0.000366426, No Iterations 5
DILUPBiCGStab:  Solving for Uy, Initial residual = 0.0416195, Final residual = 0.00126876, No Iterations 5
DILUPBiCGStab:  Solving for Uz, Initial residual = 0.19649, Final residual = 0.0054804, No Iterations 5
[OGL LOG][Proc: 0]: global_index_init: 0.02 [ms]
[OGL LOG][Proc: 0]p_local_coeffs: call_update: 0 [ms]
[OGL LOG][Proc: 0]p_non_local_coeffs: call_update: 0 [ms]
local_interface_nnzs01[OGL LOG][Proc: 0]p: update_local_matrix_data: 89.858 [ms]
[OGL LOG][Proc: 0]p: update_non_local_matrix_data: 2.044 [ms]
[OGL LOG][Proc: 0]p_matrix: call_update: 35.733 [ms]
[OGL LOG][Proc: 0]p_rhs: call_update: 3.768 [ms]
[OGL LOG][Proc: 0]p: init_precond: 0.036 [ms]
[OGL LOG][StoppingCriterion.H:372] Creating stopping criterion with minIter 907 frequency 9
[OGL LOG][Proc: 0]p: generate_solver: 0.026 [ms]
[OGL LOG][Proc: 0]p: solve: 2009.81 [ms]
[OGL LOG][Proc: 0]p: copy_x_back: 10.198 [ms]
[OGL LOG][lduLduBase.H:319] 
Statistics:
	Time per iteration: 1320 [mu s]
	Time per residual norm calculation: 177.000000 [mu s]
	Time per iteration and DOF: 0.165000 [ns]
	Retrieve results bandwith 0.784000 [GByte/s]
[OGL LOG][Proc: 0]p: solve_multi_gpu: 2063.51 [ms]
nonecudaGKOCG:  Solving for p, Initial residual = 0.586003, Final residual = 9.33437e-05, No Iterations 1522
time step continuity errors : sum local = 6.8716e-09, global = -3.38546e-21, cumulative = -1.48728e-20
[OGL LOG][Proc: 0]: global_index_init: 0.014 [ms]
[OGL LOG][Proc: 0]p_local_coeffs: call_update: 0.001 [ms]
[OGL LOG][Proc: 0]p_non_local_coeffs: call_update: 0 [ms]
local_interface_nnzs01[OGL LOG][Proc: 0]p: update_local_matrix_data: 89.463 [ms]
[OGL LOG][Proc: 0]p: update_non_local_matrix_data: 2.182 [ms]
[OGL LOG][Proc: 0]p_matrix: call_update: 35.582 [ms]
[OGL LOG][Proc: 0]p_rhs: call_update: 4.606 [ms]
[OGL LOG][Proc: 0]p: init_precond: 0.033 [ms]
[OGL LOG][StoppingCriterion.H:372] Creating stopping criterion with minIter 913 frequency 9
[OGL LOG][Proc: 0]p: generate_solver: 0.023 [ms]
[OGL LOG][Proc: 0]p: solve: 2018.99 [ms]
[OGL LOG][Proc: 0]p: copy_x_back: 10.399 [ms]
[OGL LOG][lduLduBase.H:319] 
Statistics:
	Time per iteration: 1326 [mu s]
	Time per residual norm calculation: 178.000000 [mu s]
	Time per iteration and DOF: 0.165750 [ns]
	Retrieve results bandwith 0.769000 [GByte/s]
[OGL LOG][Proc: 0]p: solve_multi_gpu: 2074.49 [ms]
nonecudaGKOCG:  Solving for p, Initial residual = 0.528156, Final residual = 8.90424e-05, No Iterations 1522
time step continuity errors : sum local = 6.53944e-09, global = -4.7702e-21, cumulative = -1.9643e-20
ExecutionTime = 86.49 s  ClockTime = 90 s

Time = 0.00225

Courant Number mean: 0.0444171 max: 0.48037
DILUPBiCGStab:  Solving for Ux, Initial residual = 0.0125409, Final residual = 0.000301392, No Iterations 5
DILUPBiCGStab:  Solving for Uy, Initial residual = 0.0334839, Final residual = 0.000894091, No Iterations 5
DILUPBiCGStab:  Solving for Uz, Initial residual = 0.15824, Final residual = 0.00518201, No Iterations 5
[OGL LOG][Proc: 0]: global_index_init: 0.076 [ms]
[OGL LOG][Proc: 0]p_local_coeffs: call_update: 0 [ms]
[OGL LOG][Proc: 0]p_non_local_coeffs: call_update: 0 [ms]
local_interface_nnzs01[OGL LOG][Proc: 0]p: update_local_matrix_data: 89.242 [ms]
[OGL LOG][Proc: 0]p: update_non_local_matrix_data: 1.435 [ms]
[OGL LOG][Proc: 0]p_matrix: call_update: 32.267 [ms]
[OGL LOG][Proc: 0]p_rhs: call_update: 8.579 [ms]
[OGL LOG][Proc: 0]p: init_precond: 0.034 [ms]
[OGL LOG][StoppingCriterion.H:372] Creating stopping criterion with minIter 913 frequency 9
[OGL LOG][Proc: 0]p: generate_solver: 0.024 [ms]
[OGL LOG][Proc: 0]p: solve: 2003.69 [ms]
[OGL LOG][Proc: 0]p: copy_x_back: 10.272 [ms]
[OGL LOG][lduLduBase.H:319] 
Statistics:
	Time per iteration: 1332 [mu s]
	Time per residual norm calculation: 177.000000 [mu s]
	Time per iteration and DOF: 0.166500 [ns]
	Retrieve results bandwith 0.778000 [GByte/s]
[OGL LOG][Proc: 0]p: solve_multi_gpu: 2060.08 [ms]
nonecudaGKOCG:  Solving for p, Initial residual = 0.572982, Final residual = 9.44419e-05, No Iterations 1504
time step continuity errors : sum local = 6.02572e-09, global = -2.24547e-22, cumulative = -1.98676e-20
[OGL LOG][Proc: 0]: global_index_init: 0.042 [ms]
[OGL LOG][Proc: 0]p_local_coeffs: call_update: 0.001 [ms]
[OGL LOG][Proc: 0]p_non_local_coeffs: call_update: 0 [ms]
local_interface_nnzs01[OGL LOG][Proc: 0]p: update_local_matrix_data: 88.578 [ms]
[OGL LOG][Proc: 0]p: update_non_local_matrix_data: 1.965 [ms]
[OGL LOG][Proc: 0]p_matrix: call_update: 27.048 [ms]
[OGL LOG][Proc: 0]p_rhs: call_update: 14.232 [ms]
[OGL LOG][Proc: 0]p: init_precond: 0.032 [ms]
[OGL LOG][StoppingCriterion.H:372] Creating stopping criterion with minIter 902 frequency 9
[OGL LOG][Proc: 0]p: generate_solver: 0.024 [ms]
[OGL LOG][Proc: 0]p: solve: 1988.78 [ms]
[OGL LOG][Proc: 0]p: copy_x_back: 10.388 [ms]
[OGL LOG][lduLduBase.H:319] 
Statistics:
	Time per iteration: 1330 [mu s]
	Time per residual norm calculation: 180.000000 [mu s]
	Time per iteration and DOF: 0.166250 [ns]
	Retrieve results bandwith 0.770000 [GByte/s]
[OGL LOG][Proc: 0]p: solve_multi_gpu: 2045.69 [ms]
nonecudaGKOCG:  Solving for p, Initial residual = 0.511886, Final residual = 9.94462e-05, No Iterations 1495
time step continuity errors : sum local = 6.34299e-09, global = -4.08446e-21, cumulative = -2.3952e-20
ExecutionTime = 97.08 s  ClockTime = 100 s

Time = 0.0025

Courant Number mean: 0.0464716 max: 0.481475
DILUPBiCGStab:  Solving for Ux, Initial residual = 0.0107879, Final residual = 0.00024243, No Iterations 5
DILUPBiCGStab:  Solving for Uy, Initial residual = 0.0293476, Final residual = 0.000733682, No Iterations 5
DILUPBiCGStab:  Solving for Uz, Initial residual = 0.127517, Final residual = 0.00418093, No Iterations 5
[OGL LOG][Proc: 0]: global_index_init: 0.014 [ms]
[OGL LOG][Proc: 0]p_local_coeffs: call_update: 0.001 [ms]
[OGL LOG][Proc: 0]p_non_local_coeffs: call_update: 0 [ms]
local_interface_nnzs01[OGL LOG][Proc: 0]p: update_local_matrix_data: 90.282 [ms]
[OGL LOG][Proc: 0]p: update_non_local_matrix_data: 0.958 [ms]
[OGL LOG][Proc: 0]p_matrix: call_update: 34.578 [ms]
[OGL LOG][Proc: 0]p_rhs: call_update: 5.567 [ms]
[OGL LOG][Proc: 0]p: init_precond: 0.035 [ms]
[OGL LOG][StoppingCriterion.H:372] Creating stopping criterion with minIter 897 frequency 9
[OGL LOG][Proc: 0]p: generate_solver: 0.023 [ms]
[OGL LOG][Proc: 0]p: solve: 2003.1 [ms]
[OGL LOG][Proc: 0]p: copy_x_back: 10.042 [ms]
[OGL LOG][lduLduBase.H:319] 
Statistics:
	Time per iteration: 1331 [mu s]
	Time per residual norm calculation: 182.000000 [mu s]
	Time per iteration and DOF: 0.166375 [ns]
	Retrieve results bandwith 0.796000 [GByte/s]
[OGL LOG][Proc: 0]p: solve_multi_gpu: 2058.61 [ms]
nonecudaGKOCG:  Solving for p, Initial residual = 0.496169, Final residual = 9.57693e-05, No Iterations 1504
time step continuity errors : sum local = 5.93124e-09, global = -2.73119e-21, cumulative = -2.66832e-20
[OGL LOG][Proc: 0]: global_index_init: 0.053 [ms]
[OGL LOG][Proc: 0]p_local_coeffs: call_update: 0.001 [ms]
[OGL LOG][Proc: 0]p_non_local_coeffs: call_update: 0 [ms]
local_interface_nnzs01[OGL LOG][Proc: 0]p: update_local_matrix_data: 89.209 [ms]
[OGL LOG][Proc: 0]p: update_non_local_matrix_data: 2.596 [ms]
[OGL LOG][Proc: 0]p_matrix: call_update: 35.625 [ms]
[OGL LOG][Proc: 0]p_rhs: call_update: 3.937 [ms]
[OGL LOG][Proc: 0]p: init_precond: 0.034 [ms]
[OGL LOG][StoppingCriterion.H:372] Creating stopping criterion with minIter 902 frequency 9
[OGL LOG][Proc: 0]p: generate_solver: 0.022 [ms]
[OGL LOG][Proc: 0]p: solve: 1980.66 [ms]
[OGL LOG][Proc: 0]p: copy_x_back: 10.536 [ms]
[OGL LOG][lduLduBase.H:319] 
Statistics:
	Time per iteration: 1324 [mu s]
	Time per residual norm calculation: 179.000000 [mu s]
	Time per iteration and DOF: 0.165500 [ns]
	Retrieve results bandwith 0.759000 [GByte/s]
[OGL LOG][Proc: 0]p: solve_multi_gpu: 2036.01 [ms]
nonecudaGKOCG:  Solving for p, Initial residual = 0.443228, Final residual = 9.89606e-05, No Iterations 1495
time step continuity errors : sum local = 6.10236e-09, global = -1.99248e-21, cumulative = -2.86757e-20
ExecutionTime = 107.66 s  ClockTime = 111 s

Time = 0.00275

Courant Number mean: 0.0483595 max: 0.482248
DILUPBiCGStab:  Solving for Ux, Initial residual = 0.00966553, Final residual = 0.00020448, No Iterations 5
DILUPBiCGStab:  Solving for Uy, Initial residual = 0.0248272, Final residual = 0.000528864, No Iterations 5
DILUPBiCGStab:  Solving for Uz, Initial residual = 0.106717, Final residual = 0.00397841, No Iterations 5
[OGL LOG][Proc: 0]: global_index_init: 0.045 [ms]
[OGL LOG][Proc: 0]p_local_coeffs: call_update: 0 [ms]
[OGL LOG][Proc: 0]p_non_local_coeffs: call_update: 0 [ms]
local_interface_nnzs01[OGL LOG][Proc: 0]p: update_local_matrix_data: 89.648 [ms]
[OGL LOG][Proc: 0]p: update_non_local_matrix_data: 1.042 [ms]
[OGL LOG][Proc: 0]p_matrix: call_update: 36.485 [ms]
[OGL LOG][Proc: 0]p_rhs: call_update: 5.139 [ms]
[OGL LOG][Proc: 0]p: init_precond: 0.034 [ms]
[OGL LOG][StoppingCriterion.H:372] Creating stopping criterion with minIter 897 frequency 9
[OGL LOG][Proc: 0]p: generate_solver: 0.027 [ms]
[OGL LOG][Proc: 0]p: solve: 1976.99 [ms]
[OGL LOG][Proc: 0]p: copy_x_back: 9.176 [ms]
[OGL LOG][lduLduBase.H:319] 
Statistics:
	Time per iteration: 1330 [mu s]
	Time per residual norm calculation: 183.000000 [mu s]
	Time per iteration and DOF: 0.166250 [ns]
	Retrieve results bandwith 0.871000 [GByte/s]
[OGL LOG][Proc: 0]p: solve_multi_gpu: 2032.17 [ms]
nonecudaGKOCG:  Solving for p, Initial residual = 0.471712, Final residual = 9.75758e-05, No Iterations 1486
time step continuity errors : sum local = 5.46174e-09, global = -4.70466e-21, cumulative = -3.33804e-20
[OGL LOG][Proc: 0]: global_index_init: 0.026 [ms]
[OGL LOG][Proc: 0]p_local_coeffs: call_update: 0.001 [ms]
[OGL LOG][Proc: 0]p_non_local_coeffs: call_update: 0 [ms]
local_interface_nnzs01[OGL LOG][Proc: 0]p: update_local_matrix_data: 89.577 [ms]
[OGL LOG][Proc: 0]p: update_non_local_matrix_data: 1.038 [ms]
[OGL LOG][Proc: 0]p_matrix: call_update: 35.098 [ms]
[OGL LOG][Proc: 0]p_rhs: call_update: 5.902 [ms]
[OGL LOG][Proc: 0]p: init_precond: 0.035 [ms]
[OGL LOG][StoppingCriterion.H:372] Creating stopping criterion with minIter 891 frequency 9
[OGL LOG][Proc: 0]p: generate_solver: 0.024 [ms]
[OGL LOG][Proc: 0]p: solve: 1987.02 [ms]
[OGL LOG][Proc: 0]p: copy_x_back: 10.599 [ms]
[OGL LOG][lduLduBase.H:319] 
Statistics:
	Time per iteration: 1337 [mu s]
	Time per residual norm calculation: 178.000000 [mu s]
	Time per iteration and DOF: 0.167125 [ns]
	Retrieve results bandwith 0.754000 [GByte/s]
[OGL LOG][Proc: 0]p: solve_multi_gpu: 2044.37 [ms]
nonecudaGKOCG:  Solving for p, Initial residual = 0.416989, Final residual = 9.36721e-05, No Iterations 1486
time step continuity errors : sum local = 5.24895e-09, global = -1.07043e-21, cumulative = -3.44508e-20
ExecutionTime = 118.22 s  ClockTime = 121 s

Time = 0.003

Courant Number mean: 0.0500919 max: 0.483039
DILUPBiCGStab:  Solving for Ux, Initial residual = 0.00857563, Final residual = 0.000170893, No Iterations 5
DILUPBiCGStab:  Solving for Uy, Initial residual = 0.0221855, Final residual = 0.000438783, No Iterations 5
DILUPBiCGStab:  Solving for Uz, Initial residual = 0.0889905, Final residual = 0.00332609, No Iterations 5
[OGL LOG][Proc: 0]: global_index_init: 0.043 [ms]
[OGL LOG][Proc: 0]p_local_coeffs: call_update: 0 [ms]
[OGL LOG][Proc: 0]p_non_local_coeffs: call_update: 0 [ms]
local_interface_nnzs01[OGL LOG][Proc: 0]p: update_local_matrix_data: 89.918 [ms]
[OGL LOG][Proc: 0]p: update_non_local_matrix_data: 1.516 [ms]
[OGL LOG][Proc: 0]p_matrix: call_update: 35.082 [ms]
[OGL LOG][Proc: 0]p_rhs: call_update: 4.893 [ms]
[OGL LOG][Proc: 0]p: init_precond: 0.034 [ms]
[OGL LOG][StoppingCriterion.H:372] Creating stopping criterion with minIter 891 frequency 9
[OGL LOG][Proc: 0]p: generate_solver: 0.023 [ms]
[OGL LOG][Proc: 0]p: solve: 1965.74 [ms]
[OGL LOG][Proc: 0]p: copy_x_back: 9.929 [ms]
[OGL LOG][lduLduBase.H:319] 
Statistics:
	Time per iteration: 1322 [mu s]
	Time per residual norm calculation: 189.000000 [mu s]
	Time per iteration and DOF: 0.165250 [ns]
	Retrieve results bandwith 0.805000 [GByte/s]
[OGL LOG][Proc: 0]p: solve_multi_gpu: 2020.83 [ms]
nonecudaGKOCG:  Solving for p, Initial residual = 0.414525, Final residual = 9.88654e-05, No Iterations 1486
time step continuity errors : sum local = 5.37779e-09, global = -1.47491e-21, cumulative = -3.59257e-20
[OGL LOG][Proc: 0]: global_index_init: 0.025 [ms]
[OGL LOG][Proc: 0]p_local_coeffs: call_update: 0.001 [ms]
[OGL LOG][Proc: 0]p_non_local_coeffs: call_update: 0 [ms]
local_interface_nnzs01[OGL LOG][Proc: 0]p: update_local_matrix_data: 88.59 [ms]
[OGL LOG][Proc: 0]p: update_non_local_matrix_data: 1.659 [ms]
[OGL LOG][Proc: 0]p_matrix: call_update: 33.129 [ms]
[OGL LOG][Proc: 0]p_rhs: call_update: 7.735 [ms]
[OGL LOG][Proc: 0]p: init_precond: 0.033 [ms]
[OGL LOG][StoppingCriterion.H:372] Creating stopping criterion with minIter 891 frequency 9
[OGL LOG][Proc: 0]p: generate_solver: 0.023 [ms]
[OGL LOG][Proc: 0]p: solve: 1991.48 [ms]
[OGL LOG][Proc: 0]p: copy_x_back: 10.244 [ms]
[OGL LOG][lduLduBase.H:319] 
Statistics:
	Time per iteration: 1340 [mu s]
	Time per residual norm calculation: 185.000000 [mu s]
	Time per iteration and DOF: 0.167500 [ns]
	Retrieve results bandwith 0.780000 [GByte/s]
[OGL LOG][Proc: 0]p: solve_multi_gpu: 2047.7 [ms]
nonecudaGKOCG:  Solving for p, Initial residual = 0.367658, Final residual = 9.72286e-05, No Iterations 1486
time step continuity errors : sum local = 5.26498e-09, global = -3.21067e-21, cumulative = -3.91364e-20
ExecutionTime = 128.77 s  ClockTime = 132 s

Time = 0.00325

Courant Number mean: 0.051701 max: 0.483603
DILUPBiCGStab:  Solving for Ux, Initial residual = 0.00778582, Final residual = 0.000146897, No Iterations 5
DILUPBiCGStab:  Solving for Uy, Initial residual = 0.0194171, Final residual = 0.000338967, No Iterations 5
DILUPBiCGStab:  Solving for Uz, Initial residual = 0.0761156, Final residual = 0.0031191, No Iterations 5
[OGL LOG][Proc: 0]: global_index_init: 0.081 [ms]
[OGL LOG][Proc: 0]p_local_coeffs: call_update: 0.001 [ms]
[OGL LOG][Proc: 0]p_non_local_coeffs: call_update: 0 [ms]
local_interface_nnzs01[OGL LOG][Proc: 0]p: update_local_matrix_data: 90.463 [ms]
[OGL LOG][Proc: 0]p: update_non_local_matrix_data: 1.69 [ms]
[OGL LOG][Proc: 0]p_matrix: call_update: 35.96 [ms]
[OGL LOG][Proc: 0]p_rhs: call_update: 3.244 [ms]
[OGL LOG][Proc: 0]p: init_precond: 0.034 [ms]
[OGL LOG][StoppingCriterion.H:372] Creating stopping criterion with minIter 891 frequency 9
[OGL LOG][Proc: 0]p: generate_solver: 0.025 [ms]
[OGL LOG][Proc: 0]p: solve: 1964.04 [ms]
[OGL LOG][Proc: 0]p: copy_x_back: 10.275 [ms]
[OGL LOG][lduLduBase.H:319] 
Statistics:
	Time per iteration: 1321 [mu s]
	Time per residual norm calculation: 187.000000 [mu s]
	Time per iteration and DOF: 0.165125 [ns]
	Retrieve results bandwith 0.778000 [GByte/s]
[OGL LOG][Proc: 0]p: solve_multi_gpu: 2018.74 [ms]
nonecudaGKOCG:  Solving for p, Initial residual = 0.383849, Final residual = 9.3304e-05, No Iterations 1486
time step continuity errors : sum local = 4.74586e-09, global = -1.9306e-21, cumulative = -4.1067e-20
[OGL LOG][Proc: 0]: global_index_init: 0.06 [ms]
[OGL LOG][Proc: 0]p_local_coeffs: call_update: 0.001 [ms]
[OGL LOG][Proc: 0]p_non_local_coeffs: call_update: 0 [ms]
local_interface_nnzs01[OGL LOG][Proc: 0]p: update_local_matrix_data: 88.619 [ms]
[OGL LOG][Proc: 0]p: update_non_local_matrix_data: 2.036 [ms]
[OGL LOG][Proc: 0]p_matrix: call_update: 32.267 [ms]
[OGL LOG][Proc: 0]p_rhs: call_update: 8.621 [ms]
[OGL LOG][Proc: 0]p: init_precond: 0.032 [ms]
[OGL LOG][StoppingCriterion.H:372] Creating stopping criterion with minIter 891 frequency 9
[OGL LOG][Proc: 0]p: generate_solver: 0.023 [ms]
[OGL LOG][Proc: 0]p: solve: 1988.13 [ms]
[OGL LOG][Proc: 0]p: copy_x_back: 10.314 [ms]
[OGL LOG][lduLduBase.H:319] 
Statistics:
	Time per iteration: 1337 [mu s]
	Time per residual norm calculation: 184.000000 [mu s]
	Time per iteration and DOF: 0.167125 [ns]
	Retrieve results bandwith 0.775000 [GByte/s]
[OGL LOG][Proc: 0]p: solve_multi_gpu: 2044.58 [ms]
nonecudaGKOCG:  Solving for p, Initial residual = 0.33745, Final residual = 9.28641e-05, No Iterations 1486
time step continuity errors : sum local = 4.72973e-09, global = -3.78076e-21, cumulative = -4.48477e-20
ExecutionTime = 139.32 s  ClockTime = 143 s

Time = 0.0035

Courant Number mean: 0.0531952 max: 0.484199
DILUPBiCGStab:  Solving for Ux, Initial residual = 0.00705321, Final residual = 0.00012628, No Iterations 5
DILUPBiCGStab:  Solving for Uy, Initial residual = 0.017612, Final residual = 0.000281014, No Iterations 5
DILUPBiCGStab:  Solving for Uz, Initial residual = 0.0654477, Final residual = 0.00267963, No Iterations 5
[OGL LOG][Proc: 0]: global_index_init: 0.037 [ms]
[OGL LOG][Proc: 0]p_local_coeffs: call_update: 0 [ms]
[OGL LOG][Proc: 0]p_non_local_coeffs: call_update: 0 [ms]
local_interface_nnzs01[OGL LOG][Proc: 0]p: update_local_matrix_data: 89.999 [ms]
[OGL LOG][Proc: 0]p: update_non_local_matrix_data: 1.139 [ms]
[OGL LOG][Proc: 0]p_matrix: call_update: 35.958 [ms]
[OGL LOG][Proc: 0]p_rhs: call_update: 4.563 [ms]
[OGL LOG][Proc: 0]p: init_precond: 0.034 [ms]
[OGL LOG][StoppingCriterion.H:372] Creating stopping criterion with minIter 891 frequency 9
[OGL LOG][Proc: 0]p: generate_solver: 0.027 [ms]
[OGL LOG][Proc: 0]p: solve: 1968.32 [ms]
[OGL LOG][Proc: 0]p: copy_x_back: 10.304 [ms]
[OGL LOG][lduLduBase.H:319] 
Statistics:
	Time per iteration: 1324 [mu s]
	Time per residual norm calculation: 178.000000 [mu s]
	Time per iteration and DOF: 0.165500 [ns]
	Retrieve results bandwith 0.776000 [GByte/s]
[OGL LOG][Proc: 0]p: solve_multi_gpu: 2024.17 [ms]
nonecudaGKOCG:  Solving for p, Initial residual = 0.342102, Final residual = 8.88649e-05, No Iterations 1486
time step continuity errors : sum local = 4.37366e-09, global = -3.09621e-21, cumulative = -4.79439e-20
[OGL LOG][Proc: 0]: global_index_init: 0.014 [ms]
[OGL LOG][Proc: 0]p_local_coeffs: call_update: 0.001 [ms]
[OGL LOG][Proc: 0]p_non_local_coeffs: call_update: 0 [ms]
local_interface_nnzs01[OGL LOG][Proc: 0]p: update_local_matrix_data: 88.978 [ms]
[OGL LOG][Proc: 0]p: update_non_local_matrix_data: 3.298 [ms]
[OGL LOG][Proc: 0]p_matrix: call_update: 35.537 [ms]
[OGL LOG][Proc: 0]p_rhs: call_update: 4.103 [ms]
[OGL LOG][Proc: 0]p: init_precond: 0.035 [ms]
[OGL LOG][StoppingCriterion.H:372] Creating stopping criterion with minIter 891 frequency 9
[OGL LOG][Proc: 0]p: generate_solver: 0.026 [ms]
[OGL LOG][Proc: 0]p: solve: 1976.62 [ms]
[OGL LOG][Proc: 0]p: copy_x_back: 10.556 [ms]
[OGL LOG][lduLduBase.H:319] 
Statistics:
	Time per iteration: 1330 [mu s]
	Time per residual norm calculation: 185.000000 [mu s]
	Time per iteration and DOF: 0.166250 [ns]
	Retrieve results bandwith 0.757000 [GByte/s]
[OGL LOG][Proc: 0]p: solve_multi_gpu: 2031.76 [ms]
nonecudaGKOCG:  Solving for p, Initial residual = 0.302303, Final residual = 8.81843e-05, No Iterations 1486
time step continuity errors : sum local = 4.32272e-09, global = -4.68321e-21, cumulative = -5.26272e-20
ExecutionTime = 149.86 s  ClockTime = 153 s

Time = 0.00375

Courant Number mean: 0.0545956 max: 0.484637
DILUPBiCGStab:  Solving for Ux, Initial residual = 0.00646989, Final residual = 0.000110081, No Iterations 5
DILUPBiCGStab:  Solving for Uy, Initial residual = 0.0157813, Final residual = 0.000234427, No Iterations 5
DILUPBiCGStab:  Solving for Uz, Initial residual = 0.056727, Final residual = 0.00245678, No Iterations 5
[OGL LOG][Proc: 0]: global_index_init: 0.05 [ms]
[OGL LOG][Proc: 0]p_local_coeffs: call_update: 0.001 [ms]
[OGL LOG][Proc: 0]p_non_local_coeffs: call_update: 0 [ms]
local_interface_nnzs01[OGL LOG][Proc: 0]p: update_local_matrix_data: 89.177 [ms]
[OGL LOG][Proc: 0]p: update_non_local_matrix_data: 2.412 [ms]
[OGL LOG][Proc: 0]p_matrix: call_update: 34.861 [ms]
[OGL LOG][Proc: 0]p_rhs: call_update: 5.275 [ms]
[OGL LOG][Proc: 0]p: init_precond: 0.039 [ms]
[OGL LOG][StoppingCriterion.H:372] Creating stopping criterion with minIter 891 frequency 9
[OGL LOG][Proc: 0]p: generate_solver: 0.027 [ms]
[OGL LOG][Proc: 0]p: solve: 1969.58 [ms]
[OGL LOG][Proc: 0]p: copy_x_back: 10.262 [ms]
[OGL LOG][lduLduBase.H:319] 
Statistics:
	Time per iteration: 1325 [mu s]
	Time per residual norm calculation: 181.000000 [mu s]
	Time per iteration and DOF: 0.165625 [ns]
	Retrieve results bandwith 0.779000 [GByte/s]
[OGL LOG][Proc: 0]p: solve_multi_gpu: 2025.16 [ms]
nonecudaGKOCG:  Solving for p, Initial residual = 0.309853, Final residual = 7.84689e-05, No Iterations 1486
time step continuity errors : sum local = 3.70818e-09, global = -1.83181e-21, cumulative = -5.4459e-20
[OGL LOG][Proc: 0]: global_index_init: 0.036 [ms]
[OGL LOG][Proc: 0]p_local_coeffs: call_update: 0.001 [ms]
[OGL LOG][Proc: 0]p_non_local_coeffs: call_update: 0 [ms]
local_interface_nnzs01[OGL LOG][Proc: 0]p: update_local_matrix_data: 89.201 [ms]
[OGL LOG][Proc: 0]p: update_non_local_matrix_data: 2.295 [ms]
[OGL LOG][Proc: 0]p_matrix: call_update: 35.056 [ms]
[OGL LOG][Proc: 0]p_rhs: call_update: 4.722 [ms]
[OGL LOG][Proc: 0]p: init_precond: 0.036 [ms]
[OGL LOG][StoppingCriterion.H:372] Creating stopping criterion with minIter 891 frequency 9
[OGL LOG][Proc: 0]p: generate_solver: 0.028 [ms]
[OGL LOG][Proc: 0]p: solve: 1967.88 [ms]
[OGL LOG][Proc: 0]p: copy_x_back: 9.378 [ms]
[OGL LOG][lduLduBase.H:319] 
Statistics:
	Time per iteration: 1324 [mu s]
	Time per residual norm calculation: 182.000000 [mu s]
	Time per iteration and DOF: 0.165500 [ns]
	Retrieve results bandwith 0.853000 [GByte/s]
[OGL LOG][Proc: 0]p: solve_multi_gpu: 2022.11 [ms]
nonecudaGKOCG:  Solving for p, Initial residual = 0.27167, Final residual = 7.69615e-05, No Iterations 1486
time step continuity errors : sum local = 3.64114e-09, global = -3.61478e-21, cumulative = -5.80737e-20
ExecutionTime = 160.4 s  ClockTime = 164 s

Time = 0.004

Courant Number mean: 0.0559077 max: 0.485102
DILUPBiCGStab:  Solving for Ux, Initial residual = 0.00594772, Final residual = 9.66516e-05, No Iterations 5
DILUPBiCGStab:  Solving for Uy, Initial residual = 0.0144874, Final residual = 0.000196461, No Iterations 5
DILUPBiCGStab:  Solving for Uz, Initial residual = 0.0499436, Final residual = 0.0021388, No Iterations 5
[OGL LOG][Proc: 0]: global_index_init: 0.013 [ms]
[OGL LOG][Proc: 0]p_local_coeffs: call_update: 0.001 [ms]
[OGL LOG][Proc: 0]p_non_local_coeffs: call_update: 0 [ms]
local_interface_nnzs01[OGL LOG][Proc: 0]p: update_local_matrix_data: 92.675 [ms]
[OGL LOG][Proc: 0]p: update_non_local_matrix_data: 1.713 [ms]
[OGL LOG][Proc: 0]p_matrix: call_update: 34.885 [ms]
[OGL LOG][Proc: 0]p_rhs: call_update: 1.642 [ms]
[OGL LOG][Proc: 0]p: init_precond: 0.032 [ms]
[OGL LOG][StoppingCriterion.H:372] Creating stopping criterion with minIter 891 frequency 9
[OGL LOG][Proc: 0]p: generate_solver: 0.024 [ms]
[OGL LOG][Proc: 0]p: solve: 1954.22 [ms]
[OGL LOG][Proc: 0]p: copy_x_back: 9.142 [ms]
[OGL LOG][lduLduBase.H:319] 
Statistics:
	Time per iteration: 1323 [mu s]
	Time per residual norm calculation: 179.000000 [mu s]
	Time per iteration and DOF: 0.165375 [ns]
	Retrieve results bandwith 0.875000 [GByte/s]
[OGL LOG][Proc: 0]p: solve_multi_gpu: 2004.76 [ms]
nonecudaGKOCG:  Solving for p, Initial residual = 0.279414, Final residual = 9.04832e-05, No Iterations 1477
time step continuity errors : sum local = 4.12099e-09, global = -3.72075e-21, cumulative = -6.17945e-20
[OGL LOG][Proc: 0]: global_index_init: 0.014 [ms]
[OGL LOG][Proc: 0]p_local_coeffs: call_update: 0 [ms]
[OGL LOG][Proc: 0]p_non_local_coeffs: call_update: 0 [ms]
local_interface_nnzs01[OGL LOG][Proc: 0]p: update_local_matrix_data: 90.461 [ms]
[OGL LOG][Proc: 0]p: update_non_local_matrix_data: 0.955 [ms]
[OGL LOG][Proc: 0]p_matrix: call_update: 36.974 [ms]
[OGL LOG][Proc: 0]p_rhs: call_update: 3.112 [ms]
[OGL LOG][Proc: 0]p: init_precond: 0.033 [ms]
[OGL LOG][StoppingCriterion.H:372] Creating stopping criterion with minIter 886 frequency 9
[OGL LOG][Proc: 0]p: generate_solver: 0.024 [ms]
[OGL LOG][Proc: 0]p: solve: 1967.62 [ms]
[OGL LOG][Proc: 0]p: copy_x_back: 10.361 [ms]
[OGL LOG][lduLduBase.H:319] 
Statistics:
	Time per iteration: 1332 [mu s]
	Time per residual norm calculation: 188.000000 [mu s]
	Time per iteration and DOF: 0.166500 [ns]
	Retrieve results bandwith 0.772000 [GByte/s]
[OGL LOG][Proc: 0]p: solve_multi_gpu: 2022.09 [ms]
nonecudaGKOCG:  Solving for p, Initial residual = 0.246094, Final residual = 8.90473e-05, No Iterations 1477
time step continuity errors : sum local = 4.04235e-09, global = -1.46197e-21, cumulative = -6.32565e-20
ExecutionTime = 170.92 s  ClockTime = 174 s

Time = 0.00425

Courant Number mean: 0.0571444 max: 0.485457
DILUPBiCGStab:  Solving for Ux, Initial residual = 0.00550196, Final residual = 8.50774e-05, No Iterations 5
DILUPBiCGStab:  Solving for Uy, Initial residual = 0.0131989, Final residual = 0.000174423, No Iterations 5
DILUPBiCGStab:  Solving for Uz, Initial residual = 0.0438473, Final residual = 0.00192218, No Iterations 5
[OGL LOG][Proc: 0]: global_index_init: 0.056 [ms]
[OGL LOG][Proc: 0]p_local_coeffs: call_update: 0.001 [ms]
[OGL LOG][Proc: 0]p_non_local_coeffs: call_update: 0 [ms]
local_interface_nnzs01[OGL LOG][Proc: 0]p: update_local_matrix_data: 90.877 [ms]
[OGL LOG][Proc: 0]p: update_non_local_matrix_data: 1.099 [ms]
[OGL LOG][Proc: 0]p_matrix: call_update: 36.502 [ms]
[OGL LOG][Proc: 0]p_rhs: call_update: 3.094 [ms]
[OGL LOG][Proc: 0]p: init_precond: 0.034 [ms]
[OGL LOG][StoppingCriterion.H:372] Creating stopping criterion with minIter 886 frequency 9
[OGL LOG][Proc: 0]p: generate_solver: 0.022 [ms]
[OGL LOG][Proc: 0]p: solve: 1218.69 [ms]
[OGL LOG][Proc: 0]p: copy_x_back: 10.336 [ms]
[OGL LOG][lduLduBase.H:319] 
Statistics:
	Time per iteration: 1366 [mu s]
	Time per residual norm calculation: 185.000000 [mu s]
	Time per iteration and DOF: 0.170750 [ns]
	Retrieve results bandwith 0.773000 [GByte/s]
[OGL LOG][Proc: 0]p: solve_multi_gpu: 1273.62 [ms]
nonecudaGKOCG:  Solving for p, Initial residual = 0.249441, Final residual = 6.82737e-05, No Iterations 892
time step continuity errors : sum local = 3.18388e-09, global = -1.80567e-21, cumulative = -6.50621e-20
[OGL LOG][Proc: 0]: global_index_init: 0.013 [ms]
[OGL LOG][Proc: 0]p_local_coeffs: call_update: 0.001 [ms]
[OGL LOG][Proc: 0]p_non_local_coeffs: call_update: 0 [ms]
local_interface_nnzs01[OGL LOG][Proc: 0]p: update_local_matrix_data: 90.175 [ms]
[OGL LOG][Proc: 0]p: update_non_local_matrix_data: 0.982 [ms]
[OGL LOG][Proc: 0]p_matrix: call_update: 35.305 [ms]
[OGL LOG][Proc: 0]p_rhs: call_update: 5.145 [ms]
[OGL LOG][Proc: 0]p: init_precond: 0.034 [ms]
[OGL LOG][StoppingCriterion.H:372] Creating stopping criterion with minIter 535 frequency 7
[OGL LOG][Proc: 0]p: generate_solver: 0.023 [ms]
[OGL LOG][Proc: 0]p: solve: 937.255 [ms]
[OGL LOG][Proc: 0]p: copy_x_back: 10.293 [ms]
[OGL LOG][lduLduBase.H:319] 
Statistics:
	Time per iteration: 1422 [mu s]
	Time per residual norm calculation: 180.000000 [mu s]
	Time per iteration and DOF: 0.177750 [ns]
	Retrieve results bandwith 0.777000 [GByte/s]
[OGL LOG][Proc: 0]p: solve_multi_gpu: 993.034 [ms]
nonecudaGKOCG:  Solving for p, Initial residual = 0.218126, Final residual = 9.46833e-05, No Iterations 659
time step continuity errors : sum local = 4.27165e-09, global = -2.68418e-21, cumulative = -6.77463e-20
ExecutionTime = 179.69 s  ClockTime = 183 s

Time = 0.0045

Courant Number mean: 0.0583118 max: 0.485831
DILUPBiCGStab:  Solving for Ux, Initial residual = 0.00511456, Final residual = 7.58572e-05, No Iterations 5
DILUPBiCGStab:  Solving for Uy, Initial residual = 0.0122356, Final residual = 0.000149628, No Iterations 5
DILUPBiCGStab:  Solving for Uz, Initial residual = 0.0393901, Final residual = 0.00167998, No Iterations 5
[OGL LOG][Proc: 0]: global_index_init: 0.061 [ms]
[OGL LOG][Proc: 0]p_local_coeffs: call_update: 0 [ms]
[OGL LOG][Proc: 0]p_non_local_coeffs: call_update: 0 [ms]
local_interface_nnzs01[OGL LOG][Proc: 0]p: update_local_matrix_data: 90.068 [ms]
[OGL LOG][Proc: 0]p: update_non_local_matrix_data: 1.79 [ms]
[OGL LOG][Proc: 0]p_matrix: call_update: 35.257 [ms]
[OGL LOG][Proc: 0]p_rhs: call_update: 4.001 [ms]
[OGL LOG][Proc: 0]p: init_precond: 0.034 [ms]
[OGL LOG][StoppingCriterion.H:372] Creating stopping criterion with minIter 395 frequency 6
[OGL LOG][Proc: 0]p: generate_solver: 0.022 [ms]
[OGL LOG][Proc: 0]p: solve: 974.798 [ms]
[OGL LOG][Proc: 0]p: copy_x_back: 10.506 [ms]
[OGL LOG][lduLduBase.H:319] 
Statistics:
	Time per iteration: 1435 [mu s]
	Time per residual norm calculation: 179.000000 [mu s]
	Time per iteration and DOF: 0.179375 [ns]
	Retrieve results bandwith 0.761000 [GByte/s]
[OGL LOG][Proc: 0]p: solve_multi_gpu: 1029.54 [ms]
nonecudaGKOCG:  Solving for p, Initial residual = 0.226262, Final residual = 9.94878e-05, No Iterations 679
time step continuity errors : sum local = 4.63261e-09, global = -3.13047e-21, cumulative = -7.08768e-20
[OGL LOG][Proc: 0]: global_index_init: 0.034 [ms]
[OGL LOG][Proc: 0]p_local_coeffs: call_update: 0 [ms]
[OGL LOG][Proc: 0]p_non_local_coeffs: call_update: 0 [ms]
local_interface_nnzs01[OGL LOG][Proc: 0]p: update_local_matrix_data: 88.25 [ms]
[OGL LOG][Proc: 0]p: update_non_local_matrix_data: 5.658 [ms]
[OGL LOG][Proc: 0]p_matrix: call_update: 33.542 [ms]
[OGL LOG][Proc: 0]p_rhs: call_update: 3.652 [ms]
[OGL LOG][Proc: 0]p: init_precond: 0.034 [ms]
[OGL LOG][StoppingCriterion.H:372] Creating stopping criterion with minIter 407 frequency 5
[OGL LOG][Proc: 0]p: generate_solver: 0.026 [ms]
[OGL LOG][Proc: 0]p: solve: 941.866 [ms]
[OGL LOG][Proc: 0]p: copy_x_back: 10.392 [ms]
[OGL LOG][lduLduBase.H:319] 
Statistics:
	Time per iteration: 1435 [mu s]
	Time per residual norm calculation: 181.000000 [mu s]
	Time per iteration and DOF: 0.179375 [ns]
	Retrieve results bandwith 0.769000 [GByte/s]
[OGL LOG][Proc: 0]p: solve_multi_gpu: 994.756 [ms]
nonecudaGKOCG:  Solving for p, Initial residual = 0.19862, Final residual = 9.52761e-05, No Iterations 656
time step continuity errors : sum local = 4.18357e-09, global = -5.40246e-21, cumulative = -7.62792e-20
ExecutionTime = 188.22 s  ClockTime = 192 s

Time = 0.00475

Courant Number mean: 0.0594174 max: 0.486127
DILUPBiCGStab:  Solving for Ux, Initial residual = 0.00475986, Final residual = 6.72569e-05, No Iterations 5
DILUPBiCGStab:  Solving for Uy, Initial residual = 0.0113044, Final residual = 0.000137595, No Iterations 5
DILUPBiCGStab:  Solving for Uz, Initial residual = 0.0356114, Final residual = 0.00150771, No Iterations 5
[OGL LOG][Proc: 0]: global_index_init: 0.095 [ms]
[OGL LOG][Proc: 0]p_local_coeffs: call_update: 0.001 [ms]
[OGL LOG][Proc: 0]p_non_local_coeffs: call_update: 0 [ms]
local_interface_nnzs01[OGL LOG][Proc: 0]p: update_local_matrix_data: 90.254 [ms]
[OGL LOG][Proc: 0]p: update_non_local_matrix_data: 0.985 [ms]
[OGL LOG][Proc: 0]p_matrix: call_update: 34.9 [ms]
[OGL LOG][Proc: 0]p_rhs: call_update: 5.391 [ms]
[OGL LOG][Proc: 0]p: init_precond: 0.036 [ms]
[OGL LOG][StoppingCriterion.H:372] Creating stopping criterion with minIter 393 frequency 6
[OGL LOG][Proc: 0]p: generate_solver: 0.029 [ms]
[OGL LOG][Proc: 0]p: solve: 1982.69 [ms]
[OGL LOG][Proc: 0]p: copy_x_back: 10.127 [ms]
[OGL LOG][lduLduBase.H:319] 
Statistics:
	Time per iteration: 1347 [mu s]
	Time per residual norm calculation: 178.000000 [mu s]
	Time per iteration and DOF: 0.168375 [ns]
	Retrieve results bandwith 0.789000 [GByte/s]
[OGL LOG][Proc: 0]p: solve_multi_gpu: 2038.4 [ms]
nonecudaGKOCG:  Solving for p, Initial residual = 0.200676, Final residual = 9.86341e-05, No Iterations 1471
time step continuity errors : sum local = 4.19513e-09, global = -2.3069e-21, cumulative = -7.85861e-20
[OGL LOG][Proc: 0]: global_index_init: 0.064 [ms]
[OGL LOG][Proc: 0]p_local_coeffs: call_update: 0.001 [ms]
[OGL LOG][Proc: 0]p_non_local_coeffs: call_update: 0 [ms]
local_interface_nnzs01[OGL LOG][Proc: 0]p: update_local_matrix_data: 88.735 [ms]
[OGL LOG][Proc: 0]p: update_non_local_matrix_data: 1.546 [ms]
[OGL LOG][Proc: 0]p_matrix: call_update: 32.496 [ms]
[OGL LOG][Proc: 0]p_rhs: call_update: 8.387 [ms]
[OGL LOG][Proc: 0]p: init_precond: 0.034 [ms]
[OGL LOG][StoppingCriterion.H:372] Creating stopping criterion with minIter 882 frequency 9
[OGL LOG][Proc: 0]p: generate_solver: 0.022 [ms]
[OGL LOG][Proc: 0]p: solve: 1967.02 [ms]
[OGL LOG][Proc: 0]p: copy_x_back: 10.223 [ms]
[OGL LOG][lduLduBase.H:319] 
Statistics:
	Time per iteration: 1331 [mu s]
	Time per residual norm calculation: 180.000000 [mu s]
	Time per iteration and DOF: 0.166375 [ns]
	Retrieve results bandwith 0.782000 [GByte/s]
[OGL LOG][Proc: 0]p: solve_multi_gpu: 2023.27 [ms]
nonecudaGKOCG:  Solving for p, Initial residual = 0.175064, Final residual = 7.33188e-05, No Iterations 1477
time step continuity errors : sum local = 3.12007e-09, global = -1.54129e-21, cumulative = -8.01274e-20
ExecutionTime = 198.77 s  ClockTime = 202 s

Time = 0.005

Courant Number mean: 0.0604662 max: 0.486433
DILUPBiCGStab:  Solving for Ux, Initial residual = 0.00446419, Final residual = 6.06431e-05, No Iterations 5
DILUPBiCGStab:  Solving for Uy, Initial residual = 0.0105595, Final residual = 0.000120915, No Iterations 5
DILUPBiCGStab:  Solving for Uz, Initial residual = 0.0322857, Final residual = 0.00129234, No Iterations 5
[OGL LOG][Proc: 0]: global_index_init: 0.086 [ms]
[OGL LOG][Proc: 0]p_local_coeffs: call_update: 0.001 [ms]
[OGL LOG][Proc: 0]p_non_local_coeffs: call_update: 0 [ms]
local_interface_nnzs01[OGL LOG][Proc: 0]p: update_local_matrix_data: 89.699 [ms]
[OGL LOG][Proc: 0]p: update_non_local_matrix_data: 1.394 [ms]
[OGL LOG][Proc: 0]p_matrix: call_update: 34.233 [ms]
[OGL LOG][Proc: 0]p_rhs: call_update: 5.977 [ms]
[OGL LOG][Proc: 0]p: init_precond: 0.038 [ms]
[OGL LOG][StoppingCriterion.H:372] Creating stopping criterion with minIter 886 frequency 9
[OGL LOG][Proc: 0]p: generate_solver: 0.024 [ms]
[OGL LOG][Proc: 0]p: solve: 1959.89 [ms]
[OGL LOG][Proc: 0]p: copy_x_back: 10.176 [ms]
[OGL LOG][lduLduBase.H:319] 
Statistics:
	Time per iteration: 1326 [mu s]
	Time per residual norm calculation: 181.000000 [mu s]
	Time per iteration and DOF: 0.165750 [ns]
	Retrieve results bandwith 0.786000 [GByte/s]
[OGL LOG][Proc: 0]p: solve_multi_gpu: 2015.45 [ms]
nonecudaGKOCG:  Solving for p, Initial residual = 0.182359, Final residual = 7.31882e-05, No Iterations 1477
time step continuity errors : sum local = 3.00722e-09, global = -2.9789e-21, cumulative = -8.31063e-20
[OGL LOG][Proc: 0]: global_index_init: 0.056 [ms]
[OGL LOG][Proc: 0]p_local_coeffs: call_update: 0.001 [ms]
[OGL LOG][Proc: 0]p_non_local_coeffs: call_update: 0 [ms]
local_interface_nnzs01[OGL LOG][Proc: 0]p: update_local_matrix_data: 89.9 [ms]
[OGL LOG][Proc: 0]p: update_non_local_matrix_data: 0.958 [ms]
[OGL LOG][Proc: 0]p_matrix: call_update: 36.529 [ms]
[OGL LOG][Proc: 0]p_rhs: call_update: 4.118 [ms]
[OGL LOG][Proc: 0]p: init_precond: 0.031 [ms]
[OGL LOG][StoppingCriterion.H:372] Creating stopping criterion with minIter 886 frequency 9
[OGL LOG][Proc: 0]p: generate_solver: 0.024 [ms]
[OGL LOG][Proc: 0]p: solve: 1973.2 [ms]
[OGL LOG][Proc: 0]p: copy_x_back: 10.707 [ms]
[OGL LOG][lduLduBase.H:319] 
Statistics:
	Time per iteration: 1344 [mu s]
	Time per residual norm calculation: 182.000000 [mu s]
	Time per iteration and DOF: 0.168000 [ns]
	Retrieve results bandwith 0.747000 [GByte/s]
[OGL LOG][Proc: 0]p: solve_multi_gpu: 2029.5 [ms]
nonecudaGKOCG:  Solving for p, Initial residual = 0.159753, Final residual = 9.78439e-05, No Iterations 1468
time step continuity errors : sum local = 4.01355e-09, global = -3.78888e-21, cumulative = -8.68952e-20
ExecutionTime = 209.29 s  ClockTime = 213 s

End

Finalising parallel run
 local_interface_nnzs01local_interface_nnzs01local_interface_nnzs01local_interface_nnzs01local_interface_nnzs01local_interface_nnzs01local_interface_nnzs01local_interface_nnzs01local_interface_nnzs01local_interface_nnzs01local_interface_nnzs01local_interface_nnzs01local_interface_nnzs01local_interface_nnzs01local_interface_nnzs01local_interface_nnzs01local_interface_nnzs01local_interface_nnzs01local_interface_nnzs01local_interface_nnzs01local_interface_nnzs01local_interface_nnzs01local_interface_nnzs01local_interface_nnzs01local_interface_nnzs01local_interface_nnzs01local_interface_nnzs01local_interface_nnzs01local_interface_nnzs01local_interface_nnzs01local_interface_nnzs01local_interface_nnzs01local_interface_nnzs01local_interface_nnzs01local_interface_nnzs01local_interface_nnzs01local_interface_nnzs01local_interface_nnzs01local_interface_nnzs01local_interface_nnzs01 local_interface_nnzs01local_interface_nnzs01local_interface_nnzs01local_interface_nnzs01local_interface_nnzs01local_interface_nnzs01local_interface_nnzs01local_interface_nnzs01local_interface_nnzs01local_interface_nnzs01local_interface_nnzs01local_interface_nnzs01local_interface_nnzs01local_interface_nnzs01local_interface_nnzs01local_interface_nnzs01local_interface_nnzs01local_interface_nnzs01local_interface_nnzs01local_interface_nnzs01local_interface_nnzs01local_interface_nnzs01local_interface_nnzs01local_interface_nnzs01local_interface_nnzs01local_interface_nnzs01local_interface_nnzs01local_interface_nnzs01local_interface_nnzs01local_interface_nnzs01local_interface_nnzs01local_interface_nnzs01local_interface_nnzs01local_interface_nnzs01local_interface_nnzs01local_interface_nnzs01local_interface_nnzs01local_interface_nnzs01local_interface_nnzs01local_interface_nnzs01 local_interface_nnzs01local_interface_nnzs01local_interface_nnzs01local_interface_nnzs01local_interface_nnzs01local_interface_nnzs01local_interface_nnzs01local_interface_nnzs01local_interface_nnzs01local_interface_nnzs01local_interface_nnzs01local_interface_nnzs01local_interface_nnzs01local_interface_nnzs01local_interface_nnzs01local_interface_nnzs01local_interface_nnzs01local_interface_nnzs01local_interface_nnzs01local_interface_nnzs01local_interface_nnzs01local_interface_nnzs01local_interface_nnzs01local_interface_nnzs01local_interface_nnzs01local_interface_nnzs01local_interface_nnzs01local_interface_nnzs01local_interface_nnzs01local_interface_nnzs01local_interface_nnzs01local_interface_nnzs01local_interface_nnzs01local_interface_nnzs01local_interface_nnzs01local_interface_nnzs01local_interface_nnzs01local_interface_nnzs01local_interface_nnzs01local_interface_nnzs01 local_interface_nnzs01local_interface_nnzs01local_interface_nnzs01local_interface_nnzs01local_interface_nnzs01local_interface_nnzs01local_interface_nnzs01local_interface_nnzs01local_interface_nnzs01local_interface_nnzs01local_interface_nnzs01local_interface_nnzs01local_interface_nnzs01local_interface_nnzs01local_interface_nnzs01local_interface_nnzs01local_interface_nnzs01local_interface_nnzs01local_interface_nnzs01local_interface_nnzs01local_interface_nnzs01local_interface_nnzs01local_interface_nnzs01local_interface_nnzs01local_interface_nnzs01local_interface_nnzs01local_interface_nnzs01local_interface_nnzs01local_interface_nnzs01local_interface_nnzs01local_interface_nnzs01local_interface_nnzs01local_interface_nnzs01local_interface_nnzs01local_interface_nnzs01local_interface_nnzs01local_interface_nnzs01local_interface_nnzs01local_interface_nnzs01local_interface_nnzs01 local_interface_nnzs01local_interface_nnzs01local_interface_nnzs01local_interface_nnzs01local_interface_nnzs01local_interface_nnzs01local_interface_nnzs01local_interface_nnzs01local_interface_nnzs01local_interface_nnzs01local_interface_nnzs01local_interface_nnzs01local_interface_nnzs01local_interface_nnzs01local_interface_nnzs01local_interface_nnzs01local_interface_nnzs01local_interface_nnzs01local_interface_nnzs01local_interface_nnzs01local_interface_nnzs01local_interface_nnzs01local_interface_nnzs01local_interface_nnzs01local_interface_nnzs01local_interface_nnzs01local_interface_nnzs01local_interface_nnzs01local_interface_nnzs01local_interface_nnzs01local_interface_nnzs01local_interface_nnzs01local_interface_nnzs01local_interface_nnzs01local_interface_nnzs01local_interface_nnzs01local_interface_nnzs01local_interface_nnzs01local_interface_nnzs01local_interface_nnzs01 local_interface_nnzs01local_interface_nnzs01local_interface_nnzs01local_interface_nnzs01local_interface_nnzs01local_interface_nnzs01local_interface_nnzs01local_interface_nnzs01local_interface_nnzs01local_interface_nnzs01local_interface_nnzs01local_interface_nnzs01local_interface_nnzs01local_interface_nnzs01local_interface_nnzs01local_interface_nnzs01local_interface_nnzs01local_interface_nnzs01local_interface_nnzs01local_interface_nnzs01local_interface_nnzs01local_interface_nnzs01local_interface_nnzs01local_interface_nnzs01local_interface_nnzs01local_interface_nnzs01local_interface_nnzs01local_interface_nnzs01local_interface_nnzs01local_interface_nnzs01local_interface_nnzs01local_interface_nnzs01local_interface_nnzs01local_interface_nnzs01local_interface_nnzs01local_interface_nnzs01local_interface_nnzs01local_interface_nnzs01local_interface_nnzs01local_interface_nnzs01 local_interface_nnzs01local_interface_nnzs01local_interface_nnzs01local_interface_nnzs01local_interface_nnzs01local_interface_nnzs01local_interface_nnzs01local_interface_nnzs01local_interface_nnzs01local_interface_nnzs01local_interface_nnzs01local_interface_nnzs01local_interface_nnzs01local_interface_nnzs01local_interface_nnzs01local_interface_nnzs01local_interface_nnzs01local_interface_nnzs01local_interface_nnzs01local_interface_nnzs01local_interface_nnzs01local_interface_nnzs01local_interface_nnzs01local_interface_nnzs01local_interface_nnzs01local_interface_nnzs01local_interface_nnzs01local_interface_nnzs01local_interface_nnzs01local_interface_nnzs01local_interface_nnzs01local_interface_nnzs01local_interface_nnzs01local_interface_nnzs01local_interface_nnzs01local_interface_nnzs01local_interface_nnzs01local_interface_nnzs01local_interface_nnzs01local_interface_nnzs01