/*---------------------------------------------------------------------------*\
| =========                 |                                                 |
| \\      /  F ield         | OpenFOAM: The Open Source CFD Toolbox           |
|  \\    /   O peration     | Version:  2306                                  |
|   \\  /    A nd           | Website:  www.openfoam.com                      |
|    \\/     M anipulation  |                                                 |
\*---------------------------------------------------------------------------*/
Build  : a6e826bd55-20230630 OPENFOAM=2306 version=v2306
Arch   : "LSB;label=32;scalar=64"
Exec   : icoFoam -parallel -case /tmp/lidDrivenCavity3D/workspace/2c6c48267c8aa95e479b8c101d460f50/case
Date   : Dec 05 2023
Time   : 20:49:46
Host   : nla-gpu2.ianm.kit.edu
PID    : 3934484
I/O    : uncollated
Case   : /tmp/lidDrivenCavity3D/workspace/2c6c48267c8aa95e479b8c101d460f50/case
nProcs : 32
Hosts  :
(
    (nla-gpu2.ianm.kit.edu 32)
)
Pstream initialized with:
    floatTransfer      : false
    nProcsSimpleSum    : 0
    nonBlockingExchange: 0 (tuning: 0)
    exchange algorithm : -1
    commsType          : nonBlocking
    polling iterations : 0
trapFpe: Floating point exception trapping enabled (FOAM_SIGFPE).
fileModificationChecking : Monitoring run-time modified files using timeStampMaster (fileModificationSkew 5, maxFileModificationPolls 20)
allowSystemOperations : Allowing user-supplied system call operations

// * * * * * * * * * * * * * * * * * * * * * * * * * * * * * * * * * * * * * //
Create time

--> FOAM Warning : 
    From void* Foam::dlLibraryTable::openLibrary(const Foam::fileName&, bool)
    in file db/dynamicLibrary/dlLibraryTable/dlLibraryTable.C at line 188
    Could not load "libpetscFoam.so"
libpetscFoam.so: cannot open shared object file: No such file or directory
Create mesh for time = 0


PISO: Operating solver in PISO mode

Reading transportProperties

Reading field p

Reading field U

Reading/calculating face flux field phi


Starting time loop

Time = 0.000166

Courant Number mean: 8.14055e-18 max: 3.11001e-14
momentum setup 237.154 [ms]
DILUPBiCGStab:  Solving for Ux, Initial residual = 1, Final residual = 0.0163135, No Iterations 5
DILUPBiCGStab:  Solving for Uy:  solution singularity
DILUPBiCGStab:  Solving for Uz:  solution singularity
piso setup 259.637 [ms]
 correctNonOrthogonal 
 setRef 
 startSolve 
[OGL LOG][lduLduBase.H:119] Initialising OGL
	OGL commit:  5ef1233
	Branch: feat/on_device_permute 
	Build type: Release
	Ginkgo version: 1.7.0 ( develop)
	Ginkgo commit: sparse-communicator
	MPI is GPU aware: 1
	Forces host buffer based communication: 0
	CPU ranks per GPU: 1
	Matrix format: Coo
	End OGL_INFO
[OGL LOG][Proc: 0]: global_index_init: 17.504 [ms]
[OGL LOG][Proc: 0]p_local_cols: call_init: 0.018 [ms]
[OGL LOG][Proc: 0]p_local_rows: call_init: 0.003 [ms]
[OGL LOG][Proc: 0]p_local_ldu_map: call_init: 0.011 [ms]
[OGL LOG][Proc: 0]p_local_coeffs: call_init: 0.007 [ms]
[OGL LOG][Proc: 0]p_non_local_cols: call_init: 0.004 [ms]
[OGL LOG][Proc: 0]p_non_local_rows: call_init: 0.002 [ms]
[OGL LOG][Proc: 0]p_non_local_ldu_map: call_init: 0.002 [ms]
[OGL LOG][Proc: 0]p_non_local_coeffs: call_init: 0.002 [ms]
[OGL LOG][Proc: 0]p: init_local_sparsity_pattern: 201.091 [ms]
[OGL LOG][Proc: 0]p: init_non_local_sparsity_pattern: 7.787 [ms]
[OGL LOG][Proc: 0]p: update_local_matrix_data: 31.835 [ms]
[OGL LOG][Proc: 0]p: update_non_local_matrix_data: 0.185 [ms]
[OGL LOG][Proc: 0]device_partition: call_init: 0.129 [ms]
[OGL LOG][Proc: 0]p_matrix: call_init: 154.966 [ms]
[OGL LOG][Proc: 0]p_rhs: call_init: 5.67 [ms]
[OGL LOG][Proc: 0]p_solution: call_init: 4.621 [ms]
[OGL LOG][Proc: 0]p: init_precond: 0.084 [ms]
[OGL LOG][StoppingCriterion.H:373] Creating stopping criterion with minIter 0 frequency 1
[OGL LOG][Proc: 0]p: generate_solver: 0.046 [ms]
[OGL LOG][Proc: 0]p: solve: 8731.83 [ms]
[OGL LOG][Proc: 0]p: copy_x_back: 5.377 [ms]
[OGL LOG][lduLduBase.H:330] 
Statistics:
	Time per iteration: 3593 [mu s]
	Time per residual norm calculation: 1431.000000 [mu s]
	Time per iteration and DOF: 0.133074 [ns]
	Retrieve results bandwidth 1.255000 [GByte/s]
[OGL LOG][Proc: 0]p: solve_multi_gpu: 8915.81 [ms]
nonehipGKOCG:  Solving for p, Initial residual = 1, Final residual = 9.97936e-05, No Iterations 2430
piso step 9622.34 [ms]
 contErrors 
time step continuity errors : sum local = 4.03247e-09, global = 1.08847e-21, cumulative = 1.08847e-21
piso setup 247.512 [ms]
 correctNonOrthogonal 
 setRef 
 startSolve 
[OGL LOG][Proc: 0]: global_index_init: 0.05 [ms]
[OGL LOG][Proc: 0]p_local_coeffs: call_update: 0.001 [ms]
[OGL LOG][Proc: 0]p_non_local_coeffs: call_update: 0 [ms]
[OGL LOG][Proc: 0]p: update_local_matrix_data: 34.077 [ms]
[OGL LOG][Proc: 0]p: update_non_local_matrix_data: 0.155 [ms]
[OGL LOG][Proc: 0]p_matrix: call_update: 13.208 [ms]
[OGL LOG][Proc: 0]p_rhs: call_update: 12.503 [ms]
[OGL LOG][Proc: 0]p: init_precond: 0.045 [ms]
[OGL LOG][StoppingCriterion.H:373] Creating stopping criterion with minIter 1458 frequency 22
[OGL LOG][Proc: 0]p: generate_solver: 0.002 [ms]
[OGL LOG][Proc: 0]p: solve: 5714.39 [ms]
[OGL LOG][Proc: 0]p: copy_x_back: 5.539 [ms]
[OGL LOG][lduLduBase.H:330] 
Statistics:
	Time per iteration: 2360 [mu s]
	Time per residual norm calculation: 438.000000 [mu s]
	Time per iteration and DOF: 0.087407 [ns]
	Retrieve results bandwidth 1.218000 [GByte/s]
[OGL LOG][Proc: 0]p: solve_multi_gpu: 5747.28 [ms]
nonehipGKOCG:  Solving for p, Initial residual = 0.80945, Final residual = 9.18465e-05, No Iterations 2421
piso step 5887.38 [ms]
 contErrors 
time step continuity errors : sum local = 4.53022e-09, global = -2.0629e-23, cumulative = 1.06784e-21
ExecutionTime = 20.42 s  ClockTime = 18 s

Time = 0.000332

Courant Number mean: 0.0128238 max: 0.426584
momentum setup 217.449 [ms]
DILUPBiCGStab:  Solving for Ux, Initial residual = 0.116949, Final residual = 0.00993048, No Iterations 5
DILUPBiCGStab:  Solving for Uy, Initial residual = 0.460127, Final residual = 0.0326302, No Iterations 5
DILUPBiCGStab:  Solving for Uz, Initial residual = 0.988823, Final residual = 0.0765129, No Iterations 5
piso setup 253.488 [ms]
 correctNonOrthogonal 
 setRef 
 startSolve 
[OGL LOG][Proc: 0]: global_index_init: 0.046 [ms]
[OGL LOG][Proc: 0]p_local_coeffs: call_update: 0 [ms]
[OGL LOG][Proc: 0]p_non_local_coeffs: call_update: 0 [ms]
[OGL LOG][Proc: 0]p: update_local_matrix_data: 33.793 [ms]
[OGL LOG][Proc: 0]p: update_non_local_matrix_data: 0.151 [ms]
[OGL LOG][Proc: 0]p_matrix: call_update: 18.263 [ms]
[OGL LOG][Proc: 0]p_rhs: call_update: 22.415 [ms]
[OGL LOG][Proc: 0]p: init_precond: 0.039 [ms]
[OGL LOG][StoppingCriterion.H:373] Creating stopping criterion with minIter 1452 frequency 13
[OGL LOG][Proc: 0]p: generate_solver: 0.002 [ms]
[OGL LOG][Proc: 0]p: solve: 5459.54 [ms]
[OGL LOG][Proc: 0]p: copy_x_back: 4.477 [ms]
[OGL LOG][lduLduBase.H:330] 
Statistics:
	Time per iteration: 2293 [mu s]
	Time per residual norm calculation: 451.000000 [mu s]
	Time per iteration and DOF: 0.084926 [ns]
	Retrieve results bandwidth 1.507000 [GByte/s]
[OGL LOG][Proc: 0]p: solve_multi_gpu: 5506.51 [ms]
nonehipGKOCG:  Solving for p, Initial residual = 0.881301, Final residual = 9.99742e-05, No Iterations 2380
piso step 5648.35 [ms]
 contErrors 
time step continuity errors : sum local = 9.73551e-09, global = 1.07452e-21, cumulative = 2.14236e-21
piso setup 245.559 [ms]
 correctNonOrthogonal 
 setRef 
 startSolve 
[OGL LOG][Proc: 0]: global_index_init: 0.039 [ms]
[OGL LOG][Proc: 0]p_local_coeffs: call_update: 0 [ms]
[OGL LOG][Proc: 0]p_non_local_coeffs: call_update: 0 [ms]
[OGL LOG][Proc: 0]p: update_local_matrix_data: 33.752 [ms]
[OGL LOG][Proc: 0]p: update_non_local_matrix_data: 0.171 [ms]
[OGL LOG][Proc: 0]p_matrix: call_update: 11.896 [ms]
[OGL LOG][Proc: 0]p_rhs: call_update: 12.22 [ms]
[OGL LOG][Proc: 0]p: init_precond: 0.04 [ms]
[OGL LOG][StoppingCriterion.H:373] Creating stopping criterion with minIter 1428 frequency 13
[OGL LOG][Proc: 0]p: generate_solver: 0.002 [ms]
[OGL LOG][Proc: 0]p: solve: 5530.63 [ms]
[OGL LOG][Proc: 0]p: copy_x_back: 4.304 [ms]
[OGL LOG][lduLduBase.H:330] 
Statistics:
	Time per iteration: 2323 [mu s]
	Time per residual norm calculation: 433.000000 [mu s]
	Time per iteration and DOF: 0.086037 [ns]
	Retrieve results bandwidth 1.568000 [GByte/s]
[OGL LOG][Proc: 0]p: solve_multi_gpu: 5561.11 [ms]
nonehipGKOCG:  Solving for p, Initial residual = 0.829027, Final residual = 8.7763e-05, No Iterations 2380
piso step 5703.03 [ms]
 contErrors 
time step continuity errors : sum local = 8.70774e-09, global = 1.22854e-21, cumulative = 3.3709e-21
ExecutionTime = 36.25 s  ClockTime = 32 s

Time = 0.000498

Courant Number mean: 0.019784 max: 0.492001
momentum setup 216.042 [ms]
DILUPBiCGStab:  Solving for Ux, Initial residual = 0.0544453, Final residual = 0.00371397, No Iterations 5
DILUPBiCGStab:  Solving for Uy, Initial residual = 0.226654, Final residual = 0.0167554, No Iterations 5
DILUPBiCGStab:  Solving for Uz, Initial residual = 0.849589, Final residual = 0.0548959, No Iterations 5
piso setup 253.465 [ms]
 correctNonOrthogonal 
 setRef 
 startSolve 
[OGL LOG][Proc: 0]: global_index_init: 0.041 [ms]
[OGL LOG][Proc: 0]p_local_coeffs: call_update: 0 [ms]
[OGL LOG][Proc: 0]p_non_local_coeffs: call_update: 0 [ms]
[OGL LOG][Proc: 0]p: update_local_matrix_data: 34.1 [ms]
[OGL LOG][Proc: 0]p: update_non_local_matrix_data: 0.123 [ms]
[OGL LOG][Proc: 0]p_matrix: call_update: 13.935 [ms]
[OGL LOG][Proc: 0]p_rhs: call_update: 13.651 [ms]
[OGL LOG][Proc: 0]p: init_precond: 0.05 [ms]
[OGL LOG][StoppingCriterion.H:373] Creating stopping criterion with minIter 1428 frequency 13
[OGL LOG][Proc: 0]p: generate_solver: 0.002 [ms]
[OGL LOG][Proc: 0]p: solve: 3266.83 [ms]
[OGL LOG][Proc: 0]p: copy_x_back: 4.235 [ms]
[OGL LOG][lduLduBase.H:330] 
Statistics:
	Time per iteration: 2282 [mu s]
	Time per residual norm calculation: 459.000000 [mu s]
	Time per iteration and DOF: 0.084519 [ns]
	Retrieve results bandwidth 1.593000 [GByte/s]
[OGL LOG][Proc: 0]p: solve_multi_gpu: 3300.51 [ms]
nonehipGKOCG:  Solving for p, Initial residual = 0.914893, Final residual = 6.74126e-05, No Iterations 1431
piso step 3441.05 [ms]
 contErrors 
time step continuity errors : sum local = 7.60111e-09, global = 1.97764e-22, cumulative = 3.56867e-21
piso setup 246.521 [ms]
 correctNonOrthogonal 
 setRef 
 startSolve 
[OGL LOG][Proc: 0]: global_index_init: 0.176 [ms]
[OGL LOG][Proc: 0]p_local_coeffs: call_update: 0 [ms]
[OGL LOG][Proc: 0]p_non_local_coeffs: call_update: 0 [ms]
[OGL LOG][Proc: 0]p: update_local_matrix_data: 33.325 [ms]
[OGL LOG][Proc: 0]p: update_non_local_matrix_data: 0.25 [ms]
[OGL LOG][Proc: 0]p_matrix: call_update: 12.425 [ms]
[OGL LOG][Proc: 0]p_rhs: call_update: 16.653 [ms]
[OGL LOG][Proc: 0]p: init_precond: 0.032 [ms]
[OGL LOG][StoppingCriterion.H:373] Creating stopping criterion with minIter 858 frequency 11
[OGL LOG][Proc: 0]p: generate_solver: 0.002 [ms]
[OGL LOG][Proc: 0]p: solve: 2682.31 [ms]
[OGL LOG][Proc: 0]p: copy_x_back: 5.379 [ms]
[OGL LOG][lduLduBase.H:330] 
Statistics:
	Time per iteration: 2320 [mu s]
	Time per residual norm calculation: 428.000000 [mu s]
	Time per iteration and DOF: 0.085926 [ns]
	Retrieve results bandwidth 1.254000 [GByte/s]
[OGL LOG][Proc: 0]p: solve_multi_gpu: 2718.84 [ms]
nonehipGKOCG:  Solving for p, Initial residual = 0.883114, Final residual = 8.92595e-05, No Iterations 1156
piso step 2858.63 [ms]
 contErrors 
time step continuity errors : sum local = 9.44842e-09, global = 1.01206e-21, cumulative = 4.58072e-21
ExecutionTime = 46.12 s  ClockTime = 41 s

Time = 0.000664

Courant Number mean: 0.0238679 max: 0.471986
momentum setup 217.104 [ms]
DILUPBiCGStab:  Solving for Ux, Initial residual = 0.0385401, Final residual = 0.00298159, No Iterations 5
DILUPBiCGStab:  Solving for Uy, Initial residual = 0.174159, Final residual = 0.0136321, No Iterations 5
DILUPBiCGStab:  Solving for Uz, Initial residual = 0.735759, Final residual = 0.0395035, No Iterations 5
piso setup 252.532 [ms]
 correctNonOrthogonal 
 setRef 
 startSolve 
[OGL LOG][Proc: 0]: global_index_init: 0.192 [ms]
[OGL LOG][Proc: 0]p_local_coeffs: call_update: 0 [ms]
[OGL LOG][Proc: 0]p_non_local_coeffs: call_update: 0 [ms]
[OGL LOG][Proc: 0]p: update_local_matrix_data: 33.996 [ms]
[OGL LOG][Proc: 0]p: update_non_local_matrix_data: 0.132 [ms]
[OGL LOG][Proc: 0]p_matrix: call_update: 12.421 [ms]
[OGL LOG][Proc: 0]p_rhs: call_update: 15.847 [ms]
[OGL LOG][Proc: 0]p: init_precond: 0.067 [ms]
[OGL LOG][StoppingCriterion.H:373] Creating stopping criterion with minIter 693 frequency 9
[OGL LOG][Proc: 0]p: generate_solver: 0.004 [ms]
[OGL LOG][Proc: 0]p: solve: 2629.07 [ms]
[OGL LOG][Proc: 0]p: copy_x_back: 5.256 [ms]
[OGL LOG][lduLduBase.H:330] 
Statistics:
	Time per iteration: 2280 [mu s]
	Time per residual norm calculation: 440.000000 [mu s]
	Time per iteration and DOF: 0.084444 [ns]
	Retrieve results bandwidth 1.284000 [GByte/s]
[OGL LOG][Proc: 0]p: solve_multi_gpu: 2664.49 [ms]
nonehipGKOCG:  Solving for p, Initial residual = 0.892473, Final residual = 9.93151e-05, No Iterations 1153
piso step 2806.42 [ms]
 contErrors 
time step continuity errors : sum local = 1.2041e-08, global = 6.25319e-22, cumulative = 5.20604e-21
piso setup 246.345 [ms]
 correctNonOrthogonal 
 setRef 
 startSolve 
[OGL LOG][Proc: 0]: global_index_init: 0.134 [ms]
[OGL LOG][Proc: 0]p_local_coeffs: call_update: 0 [ms]
[OGL LOG][Proc: 0]p_non_local_coeffs: call_update: 0 [ms]
[OGL LOG][Proc: 0]p: update_local_matrix_data: 33.675 [ms]
[OGL LOG][Proc: 0]p: update_non_local_matrix_data: 0.171 [ms]
[OGL LOG][Proc: 0]p_matrix: call_update: 13.06 [ms]
[OGL LOG][Proc: 0]p_rhs: call_update: 12.051 [ms]
[OGL LOG][Proc: 0]p: init_precond: 0.032 [ms]
[OGL LOG][StoppingCriterion.H:373] Creating stopping criterion with minIter 691 frequency 9
[OGL LOG][Proc: 0]p: generate_solver: 0.002 [ms]
[OGL LOG][Proc: 0]p: solve: 2696.41 [ms]
[OGL LOG][Proc: 0]p: copy_x_back: 4.933 [ms]
[OGL LOG][lduLduBase.H:330] 
Statistics:
	Time per iteration: 2338 [mu s]
	Time per residual norm calculation: 439.000000 [mu s]
	Time per iteration and DOF: 0.086593 [ns]
	Retrieve results bandwidth 1.368000 [GByte/s]
[OGL LOG][Proc: 0]p: solve_multi_gpu: 2728.36 [ms]
nonehipGKOCG:  Solving for p, Initial residual = 0.832032, Final residual = 8.38993e-05, No Iterations 1153
piso step 2868.06 [ms]
 contErrors 
time step continuity errors : sum local = 9.91556e-09, global = 1.15411e-22, cumulative = 5.32145e-21
ExecutionTime = 55.25 s  ClockTime = 49 s

Time = 0.00083

Courant Number mean: 0.0273793 max: 0.505307
momentum setup 207.73 [ms]
DILUPBiCGStab:  Solving for Ux, Initial residual = 0.0324447, Final residual = 0.00255751, No Iterations 5
DILUPBiCGStab:  Solving for Uy, Initial residual = 0.130091, Final residual = 0.0115367, No Iterations 5
DILUPBiCGStab:  Solving for Uz, Initial residual = 0.685817, Final residual = 0.0352368, No Iterations 5
piso setup 253.727 [ms]
 correctNonOrthogonal 
 setRef 
 startSolve 
[OGL LOG][Proc: 0]: global_index_init: 0.063 [ms]
[OGL LOG][Proc: 0]p_local_coeffs: call_update: 0 [ms]
[OGL LOG][Proc: 0]p_non_local_coeffs: call_update: 0 [ms]
[OGL LOG][Proc: 0]p: update_local_matrix_data: 33.729 [ms]
[OGL LOG][Proc: 0]p: update_non_local_matrix_data: 0.183 [ms]
[OGL LOG][Proc: 0]p_matrix: call_update: 10.858 [ms]
[OGL LOG][Proc: 0]p_rhs: call_update: 12.781 [ms]
[OGL LOG][Proc: 0]p: init_precond: 0.031 [ms]
[OGL LOG][StoppingCriterion.H:373] Creating stopping criterion with minIter 691 frequency 9
[OGL LOG][Proc: 0]p: generate_solver: 0.002 [ms]
[OGL LOG][Proc: 0]p: solve: 5407.92 [ms]
[OGL LOG][Proc: 0]p: copy_x_back: 6.308 [ms]
[OGL LOG][lduLduBase.H:330] 
Statistics:
	Time per iteration: 2266 [mu s]
	Time per residual norm calculation: 428.000000 [mu s]
	Time per iteration and DOF: 0.083926 [ns]
	Retrieve results bandwidth 1.070000 [GByte/s]
[OGL LOG][Proc: 0]p: solve_multi_gpu: 5439.56 [ms]
nonehipGKOCG:  Solving for p, Initial residual = 0.912076, Final residual = 7.93737e-05, No Iterations 2386
piso step 5580.06 [ms]
 contErrors 
time step continuity errors : sum local = 8.89716e-09, global = 2.5248e-22, cumulative = 5.57393e-21
piso setup 247.134 [ms]
 correctNonOrthogonal 
 setRef 
 startSolve 
[OGL LOG][Proc: 0]: global_index_init: 0.036 [ms]
[OGL LOG][Proc: 0]p_local_coeffs: call_update: 0 [ms]
[OGL LOG][Proc: 0]p_non_local_coeffs: call_update: 0 [ms]
[OGL LOG][Proc: 0]p: update_local_matrix_data: 33.95 [ms]
[OGL LOG][Proc: 0]p: update_non_local_matrix_data: 0.134 [ms]
[OGL LOG][Proc: 0]p_matrix: call_update: 10.323 [ms]
[OGL LOG][Proc: 0]p_rhs: call_update: 19.023 [ms]
[OGL LOG][Proc: 0]p: init_precond: 0.044 [ms]
[OGL LOG][StoppingCriterion.H:373] Creating stopping criterion with minIter 1431 frequency 13
[OGL LOG][Proc: 0]p: generate_solver: 0.002 [ms]
[OGL LOG][Proc: 0]p: solve: 5377.44 [ms]
[OGL LOG][Proc: 0]p: copy_x_back: 3.436 [ms]
[OGL LOG][lduLduBase.H:330] 
Statistics:
	Time per iteration: 2259 [mu s]
	Time per residual norm calculation: 447.000000 [mu s]
	Time per iteration and DOF: 0.083667 [ns]
	Retrieve results bandwidth 1.964000 [GByte/s]
[OGL LOG][Proc: 0]p: solve_multi_gpu: 5411.87 [ms]
nonehipGKOCG:  Solving for p, Initial residual = 0.87368, Final residual = 8.9666e-05, No Iterations 2380
piso step 5554.25 [ms]
 contErrors 
time step continuity errors : sum local = 9.92131e-09, global = 1.20045e-21, cumulative = 6.77438e-21
ExecutionTime = 70.82 s  ClockTime = 63 s

Time = 0.000996

Courant Number mean: 0.0301078 max: 0.478346
momentum setup 214.255 [ms]
DILUPBiCGStab:  Solving for Ux, Initial residual = 0.0271512, Final residual = 0.00232963, No Iterations 5
DILUPBiCGStab:  Solving for Uy, Initial residual = 0.112274, Final residual = 0.00922716, No Iterations 5
DILUPBiCGStab:  Solving for Uz, Initial residual = 0.590005, Final residual = 0.0274584, No Iterations 5
piso setup 254.015 [ms]
 correctNonOrthogonal 
 setRef 
 startSolve 
[OGL LOG][Proc: 0]: global_index_init: 0.081 [ms]
[OGL LOG][Proc: 0]p_local_coeffs: call_update: 0 [ms]
[OGL LOG][Proc: 0]p_non_local_coeffs: call_update: 0 [ms]
[OGL LOG][Proc: 0]p: update_local_matrix_data: 33.207 [ms]
[OGL LOG][Proc: 0]p: update_non_local_matrix_data: 0.248 [ms]
[OGL LOG][Proc: 0]p_matrix: call_update: 17.602 [ms]
[OGL LOG][Proc: 0]p_rhs: call_update: 9.462 [ms]
[OGL LOG][Proc: 0]p: init_precond: 0.036 [ms]
[OGL LOG][StoppingCriterion.H:373] Creating stopping criterion with minIter 1428 frequency 13
[OGL LOG][Proc: 0]p: generate_solver: 0.002 [ms]
[OGL LOG][Proc: 0]p: solve: 5291.64 [ms]
[OGL LOG][Proc: 0]p: copy_x_back: 4.199 [ms]
[OGL LOG][lduLduBase.H:330] 
Statistics:
	Time per iteration: 2223 [mu s]
	Time per residual norm calculation: 431.000000 [mu s]
	Time per iteration and DOF: 0.082333 [ns]
	Retrieve results bandwidth 1.607000 [GByte/s]
[OGL LOG][Proc: 0]p: solve_multi_gpu: 5325.53 [ms]
nonehipGKOCG:  Solving for p, Initial residual = 0.890405, Final residual = 8.2043e-05, No Iterations 2380
piso step 5465.26 [ms]
 contErrors 
time step continuity errors : sum local = 9.42765e-09, global = -6.43365e-22, cumulative = 6.13102e-21
piso setup 247.339 [ms]
 correctNonOrthogonal 
 setRef 
 startSolve 
[OGL LOG][Proc: 0]: global_index_init: 0.096 [ms]
[OGL LOG][Proc: 0]p_local_coeffs: call_update: 0 [ms]
[OGL LOG][Proc: 0]p_non_local_coeffs: call_update: 0 [ms]
[OGL LOG][Proc: 0]p: update_local_matrix_data: 34.206 [ms]
[OGL LOG][Proc: 0]p: update_non_local_matrix_data: 0.121 [ms]
[OGL LOG][Proc: 0]p_matrix: call_update: 13.263 [ms]
[OGL LOG][Proc: 0]p_rhs: call_update: 15.283 [ms]
[OGL LOG][Proc: 0]p: init_precond: 0.032 [ms]
[OGL LOG][StoppingCriterion.H:373] Creating stopping criterion with minIter 1428 frequency 13
[OGL LOG][Proc: 0]p: generate_solver: 0.002 [ms]
[OGL LOG][Proc: 0]p: solve: 5341.54 [ms]
[OGL LOG][Proc: 0]p: copy_x_back: 5.249 [ms]
[OGL LOG][lduLduBase.H:330] 
Statistics:
	Time per iteration: 2256 [mu s]
	Time per residual norm calculation: 439.000000 [mu s]
	Time per iteration and DOF: 0.083556 [ns]
	Retrieve results bandwidth 1.285000 [GByte/s]
[OGL LOG][Proc: 0]p: solve_multi_gpu: 5377.46 [ms]
nonehipGKOCG:  Solving for p, Initial residual = 0.827114, Final residual = 9.90971e-05, No Iterations 2367
piso step 5516.19 [ms]
 contErrors 
time step continuity errors : sum local = 1.15588e-08, global = 1.14256e-21, cumulative = 7.27358e-21
ExecutionTime = 86.24 s  ClockTime = 77 s

Time = 0.001162

Courant Number mean: 0.0325679 max: 0.512353
momentum setup 208.228 [ms]
DILUPBiCGStab:  Solving for Ux, Initial residual = 0.0246331, Final residual = 0.00216045, No Iterations 5
DILUPBiCGStab:  Solving for Uy, Initial residual = 0.0988452, Final residual = 0.00848375, No Iterations 5
DILUPBiCGStab:  Solving for Uz, Initial residual = 0.563835, Final residual = 0.0242952, No Iterations 5
piso setup 252.959 [ms]
 correctNonOrthogonal 
 setRef 
 startSolve 
[OGL LOG][Proc: 0]: global_index_init: 0.115 [ms]
[OGL LOG][Proc: 0]p_local_coeffs: call_update: 0 [ms]
[OGL LOG][Proc: 0]p_non_local_coeffs: call_update: 0 [ms]
[OGL LOG][Proc: 0]p: update_local_matrix_data: 33.292 [ms]
[OGL LOG][Proc: 0]p: update_non_local_matrix_data: 0.254 [ms]
[OGL LOG][Proc: 0]p_matrix: call_update: 14.142 [ms]
[OGL LOG][Proc: 0]p_rhs: call_update: 16.396 [ms]
[OGL LOG][Proc: 0]p: init_precond: 0.052 [ms]
[OGL LOG][StoppingCriterion.H:373] Creating stopping criterion with minIter 1420 frequency 13
[OGL LOG][Proc: 0]p: generate_solver: 0.002 [ms]
[OGL LOG][Proc: 0]p: solve: 4804.55 [ms]
[OGL LOG][Proc: 0]p: copy_x_back: 4.497 [ms]
[OGL LOG][lduLduBase.H:330] 
Statistics:
	Time per iteration: 2280 [mu s]
	Time per residual norm calculation: 438.000000 [mu s]
	Time per iteration and DOF: 0.084444 [ns]
	Retrieve results bandwidth 1.501000 [GByte/s]
[OGL LOG][Proc: 0]p: solve_multi_gpu: 4842.59 [ms]
nonehipGKOCG:  Solving for p, Initial residual = 0.907976, Final residual = 9.26925e-05, No Iterations 2107
piso step 4984.13 [ms]
 contErrors 
time step continuity errors : sum local = 1.0378e-08, global = 1.53233e-21, cumulative = 8.80591e-21
piso setup 246.308 [ms]
 correctNonOrthogonal 
 setRef 
 startSolve 
[OGL LOG][Proc: 0]: global_index_init: 0.048 [ms]
[OGL LOG][Proc: 0]p_local_coeffs: call_update: 0 [ms]
[OGL LOG][Proc: 0]p_non_local_coeffs: call_update: 0 [ms]
[OGL LOG][Proc: 0]p: update_local_matrix_data: 33.851 [ms]
[OGL LOG][Proc: 0]p: update_non_local_matrix_data: 0.14 [ms]
[OGL LOG][Proc: 0]p_matrix: call_update: 13.481 [ms]
[OGL LOG][Proc: 0]p_rhs: call_update: 11.89 [ms]
[OGL LOG][Proc: 0]p: init_precond: 0.031 [ms]
[OGL LOG][StoppingCriterion.H:373] Creating stopping criterion with minIter 1264 frequency 12
[OGL LOG][Proc: 0]p: generate_solver: 0.002 [ms]
[OGL LOG][Proc: 0]p: solve: 4718.97 [ms]
[OGL LOG][Proc: 0]p: copy_x_back: 4.205 [ms]
[OGL LOG][lduLduBase.H:330] 
Statistics:
	Time per iteration: 2246 [mu s]
	Time per residual norm calculation: 428.000000 [mu s]
	Time per iteration and DOF: 0.083185 [ns]
	Retrieve results bandwidth 1.605000 [GByte/s]
[OGL LOG][Proc: 0]p: solve_multi_gpu: 4750.3 [ms]
nonehipGKOCG:  Solving for p, Initial residual = 0.862797, Final residual = 9.44744e-05, No Iterations 2101
piso step 4890.52 [ms]
 contErrors 
time step continuity errors : sum local = 1.04615e-08, global = 4.67238e-22, cumulative = 9.27315e-21
ExecutionTime = 100.35 s  ClockTime = 89 s

Time = 0.001328

Courant Number mean: 0.0346366 max: 0.481266
momentum setup 216.063 [ms]
DILUPBiCGStab:  Solving for Ux, Initial residual = 0.0222317, Final residual = 0.0020249, No Iterations 5
DILUPBiCGStab:  Solving for Uy, Initial residual = 0.0875442, Final residual = 0.00712955, No Iterations 5
DILUPBiCGStab:  Solving for Uz, Initial residual = 0.52148, Final residual = 0.0219418, No Iterations 5
piso setup 253.027 [ms]
 correctNonOrthogonal 
 setRef 
 startSolve 
[OGL LOG][Proc: 0]: global_index_init: 0.202 [ms]
[OGL LOG][Proc: 0]p_local_coeffs: call_update: 0 [ms]
[OGL LOG][Proc: 0]p_non_local_coeffs: call_update: 0 [ms]
[OGL LOG][Proc: 0]p: update_local_matrix_data: 33.954 [ms]
[OGL LOG][Proc: 0]p: update_non_local_matrix_data: 0.159 [ms]
[OGL LOG][Proc: 0]p_matrix: call_update: 20.857 [ms]
[OGL LOG][Proc: 0]p_rhs: call_update: 8.437 [ms]
[OGL LOG][Proc: 0]p: init_precond: 0.062 [ms]
[OGL LOG][StoppingCriterion.H:373] Creating stopping criterion with minIter 1260 frequency 12
[OGL LOG][Proc: 0]p: generate_solver: 0.002 [ms]
[OGL LOG][Proc: 0]p: solve: 5198.99 [ms]
[OGL LOG][Proc: 0]p: copy_x_back: 5.319 [ms]
[OGL LOG][lduLduBase.H:330] 
Statistics:
	Time per iteration: 2243 [mu s]
	Time per residual norm calculation: 494.000000 [mu s]
	Time per iteration and DOF: 0.083074 [ns]
	Retrieve results bandwidth 1.269000 [GByte/s]
[OGL LOG][Proc: 0]p: solve_multi_gpu: 5235.59 [ms]
nonehipGKOCG:  Solving for p, Initial residual = 0.88675, Final residual = 9.17322e-05, No Iterations 2317
piso step 5375.34 [ms]
 contErrors 
time step continuity errors : sum local = 1.0458e-08, global = 1.47321e-21, cumulative = 1.07464e-20
piso setup 244.483 [ms]
 correctNonOrthogonal 
 setRef 
 startSolve 
[OGL LOG][Proc: 0]: global_index_init: 0.03 [ms]
[OGL LOG][Proc: 0]p_local_coeffs: call_update: 0 [ms]
[OGL LOG][Proc: 0]p_non_local_coeffs: call_update: 0 [ms]
[OGL LOG][Proc: 0]p: update_local_matrix_data: 33.394 [ms]
[OGL LOG][Proc: 0]p: update_non_local_matrix_data: 0.268 [ms]
[OGL LOG][Proc: 0]p_matrix: call_update: 9.789 [ms]
[OGL LOG][Proc: 0]p_rhs: call_update: 15.872 [ms]
[OGL LOG][Proc: 0]p: init_precond: 0.029 [ms]
[OGL LOG][StoppingCriterion.H:373] Creating stopping criterion with minIter 1390 frequency 15
[OGL LOG][Proc: 0]p: generate_solver: 0.002 [ms]
[OGL LOG][Proc: 0]p: solve: 5142.02 [ms]
[OGL LOG][Proc: 0]p: copy_x_back: 5.434 [ms]
[OGL LOG][lduLduBase.H:330] 
Statistics:
	Time per iteration: 2225 [mu s]
	Time per residual norm calculation: 438.000000 [mu s]
	Time per iteration and DOF: 0.082407 [ns]
	Retrieve results bandwidth 1.242000 [GByte/s]
[OGL LOG][Proc: 0]p: solve_multi_gpu: 5175.35 [ms]
nonehipGKOCG:  Solving for p, Initial residual = 0.820849, Final residual = 9.57086e-05, No Iterations 2311
piso step 5315.39 [ms]
 contErrors 
time step continuity errors : sum local = 1.106e-08, global = 7.93311e-22, cumulative = 1.15397e-20
ExecutionTime = 115.45 s  ClockTime = 102 s

Time = 0.001494

Courant Number mean: 0.0365679 max: 0.518551
momentum setup 216.886 [ms]
DILUPBiCGStab:  Solving for Ux, Initial residual = 0.0206507, Final residual = 0.00188662, No Iterations 5
DILUPBiCGStab:  Solving for Uy, Initial residual = 0.0824688, Final residual = 0.00672604, No Iterations 5
DILUPBiCGStab:  Solving for Uz, Initial residual = 0.516021, Final residual = 0.0204628, No Iterations 5
piso setup 254.295 [ms]
 correctNonOrthogonal 
 setRef 
 startSolve 
[OGL LOG][Proc: 0]: global_index_init: 0.136 [ms]
[OGL LOG][Proc: 0]p_local_coeffs: call_update: 0 [ms]
[OGL LOG][Proc: 0]p_non_local_coeffs: call_update: 0 [ms]
[OGL LOG][Proc: 0]p: update_local_matrix_data: 33.829 [ms]
[OGL LOG][Proc: 0]p: update_non_local_matrix_data: 0.15 [ms]
[OGL LOG][Proc: 0]p_matrix: call_update: 11.939 [ms]
[OGL LOG][Proc: 0]p_rhs: call_update: 14.774 [ms]
[OGL LOG][Proc: 0]p: init_precond: 0.032 [ms]
[OGL LOG][StoppingCriterion.H:373] Creating stopping criterion with minIter 1386 frequency 13
[OGL LOG][Proc: 0]p: generate_solver: 0.002 [ms]
[OGL LOG][Proc: 0]p: solve: 4962.8 [ms]
[OGL LOG][Proc: 0]p: copy_x_back: 4.349 [ms]
[OGL LOG][lduLduBase.H:330] 
Statistics:
	Time per iteration: 2231 [mu s]
	Time per residual norm calculation: 430.000000 [mu s]
	Time per iteration and DOF: 0.082630 [ns]
	Retrieve results bandwidth 1.552000 [GByte/s]
[OGL LOG][Proc: 0]p: solve_multi_gpu: 4995.95 [ms]
nonehipGKOCG:  Solving for p, Initial residual = 0.903871, Final residual = 9.91758e-05, No Iterations 2224
piso step 5138.6 [ms]
 contErrors 
time step continuity errors : sum local = 1.10557e-08, global = 3.44623e-22, cumulative = 1.18843e-20
piso setup 245.914 [ms]
 correctNonOrthogonal 
 setRef 
 startSolve 
[OGL LOG][Proc: 0]: global_index_init: 0.147 [ms]
[OGL LOG][Proc: 0]p_local_coeffs: call_update: 0 [ms]
[OGL LOG][Proc: 0]p_non_local_coeffs: call_update: 0 [ms]
[OGL LOG][Proc: 0]p: update_local_matrix_data: 33.529 [ms]
[OGL LOG][Proc: 0]p: update_non_local_matrix_data: 0.338 [ms]
[OGL LOG][Proc: 0]p_matrix: call_update: 22.392 [ms]
[OGL LOG][Proc: 0]p_rhs: call_update: 8.97 [ms]
[OGL LOG][Proc: 0]p: init_precond: 0.032 [ms]
[OGL LOG][StoppingCriterion.H:373] Creating stopping criterion with minIter 1334 frequency 13
[OGL LOG][Proc: 0]p: generate_solver: 0.002 [ms]
[OGL LOG][Proc: 0]p: solve: 5130.23 [ms]
[OGL LOG][Proc: 0]p: copy_x_back: 5.111 [ms]
[OGL LOG][lduLduBase.H:330] 
Statistics:
	Time per iteration: 2228 [mu s]
	Time per residual norm calculation: 432.000000 [mu s]
	Time per iteration and DOF: 0.082519 [ns]
	Retrieve results bandwidth 1.320000 [GByte/s]
[OGL LOG][Proc: 0]p: solve_multi_gpu: 5168.88 [ms]
nonehipGKOCG:  Solving for p, Initial residual = 0.854158, Final residual = 8.32264e-05, No Iterations 2302
piso step 5308.48 [ms]
 contErrors 
time step continuity errors : sum local = 9.18745e-09, global = 2.82298e-22, cumulative = 1.21666e-20
ExecutionTime = 130.24 s  ClockTime = 115 s

Time = 0.00166

Courant Number mean: 0.0382481 max: 0.483676
momentum setup 213.789 [ms]
DILUPBiCGStab:  Solving for Ux, Initial residual = 0.0194477, Final residual = 0.00179471, No Iterations 5
DILUPBiCGStab:  Solving for Uy, Initial residual = 0.0741071, Final residual = 0.00583245, No Iterations 5
DILUPBiCGStab:  Solving for Uz, Initial residual = 0.492765, Final residual = 0.0193188, No Iterations 5
piso setup 252.964 [ms]
 correctNonOrthogonal 
 setRef 
 startSolve 
[OGL LOG][Proc: 0]: global_index_init: 0.032 [ms]
[OGL LOG][Proc: 0]p_local_coeffs: call_update: 0 [ms]
[OGL LOG][Proc: 0]p_non_local_coeffs: call_update: 0 [ms]
[OGL LOG][Proc: 0]p: update_local_matrix_data: 33.892 [ms]
[OGL LOG][Proc: 0]p: update_non_local_matrix_data: 0.148 [ms]
[OGL LOG][Proc: 0]p_matrix: call_update: 15.58 [ms]
[OGL LOG][Proc: 0]p_rhs: call_update: 11.497 [ms]
[OGL LOG][Proc: 0]p: init_precond: 0.064 [ms]
[OGL LOG][StoppingCriterion.H:373] Creating stopping criterion with minIter 1381 frequency 13
[OGL LOG][Proc: 0]p: generate_solver: 0.004 [ms]
[OGL LOG][Proc: 0]p: solve: 5160.18 [ms]
[OGL LOG][Proc: 0]p: copy_x_back: 4.332 [ms]
[OGL LOG][lduLduBase.H:330] 
Statistics:
	Time per iteration: 2241 [mu s]
	Time per residual norm calculation: 436.000000 [mu s]
	Time per iteration and DOF: 0.083000 [ns]
	Retrieve results bandwidth 1.558000 [GByte/s]
[OGL LOG][Proc: 0]p: solve_multi_gpu: 5193.6 [ms]
nonehipGKOCG:  Solving for p, Initial residual = 0.885462, Final residual = 8.95198e-05, No Iterations 2302
piso step 5334.83 [ms]
 contErrors 
time step continuity errors : sum local = 1.03037e-08, global = 1.4722e-22, cumulative = 1.23138e-20
piso setup 246.155 [ms]
 correctNonOrthogonal 
 setRef 
 startSolve 
[OGL LOG][Proc: 0]: global_index_init: 0.095 [ms]
[OGL LOG][Proc: 0]p_local_coeffs: call_update: 0 [ms]
[OGL LOG][Proc: 0]p_non_local_coeffs: call_update: 0 [ms]
[OGL LOG][Proc: 0]p: update_local_matrix_data: 33.778 [ms]
[OGL LOG][Proc: 0]p: update_non_local_matrix_data: 0.135 [ms]
[OGL LOG][Proc: 0]p_matrix: call_update: 17.293 [ms]
[OGL LOG][Proc: 0]p_rhs: call_update: 8.473 [ms]
[OGL LOG][Proc: 0]p: init_precond: 0.049 [ms]
[OGL LOG][StoppingCriterion.H:373] Creating stopping criterion with minIter 1381 frequency 13
[OGL LOG][Proc: 0]p: generate_solver: 0.002 [ms]
[OGL LOG][Proc: 0]p: solve: 5190.98 [ms]
[OGL LOG][Proc: 0]p: copy_x_back: 5.253 [ms]
[OGL LOG][lduLduBase.H:330] 
Statistics:
	Time per iteration: 2254 [mu s]
	Time per residual norm calculation: 433.000000 [mu s]
	Time per iteration and DOF: 0.083481 [ns]
	Retrieve results bandwidth 1.284000 [GByte/s]
[OGL LOG][Proc: 0]p: solve_multi_gpu: 5224.5 [ms]
nonehipGKOCG:  Solving for p, Initial residual = 0.816456, Final residual = 8.36006e-05, No Iterations 2302
piso step 5364.9 [ms]
 contErrors 
time step continuity errors : sum local = 9.7421e-09, global = 3.96186e-22, cumulative = 1.271e-20
ExecutionTime = 145.32 s  ClockTime = 129 s

Time = 0.001826

Courant Number mean: 0.0398559 max: 0.52517
momentum setup 214.589 [ms]
DILUPBiCGStab:  Solving for Ux, Initial residual = 0.0182769, Final residual = 0.00167233, No Iterations 5
DILUPBiCGStab:  Solving for Uy, Initial residual = 0.0725296, Final residual = 0.00561522, No Iterations 5
DILUPBiCGStab:  Solving for Uz, Initial residual = 0.496576, Final residual = 0.0185986, No Iterations 5
piso setup 254.247 [ms]
 correctNonOrthogonal 
 setRef 
 startSolve 
[OGL LOG][Proc: 0]: global_index_init: 0.682 [ms]
[OGL LOG][Proc: 0]p_local_coeffs: call_update: 0 [ms]
[OGL LOG][Proc: 0]p_non_local_coeffs: call_update: 0 [ms]
[OGL LOG][Proc: 0]p: update_local_matrix_data: 33.659 [ms]
[OGL LOG][Proc: 0]p: update_non_local_matrix_data: 0.169 [ms]
[OGL LOG][Proc: 0]p_matrix: call_update: 12.419 [ms]
[OGL LOG][Proc: 0]p_rhs: call_update: 11.896 [ms]
[OGL LOG][Proc: 0]p: init_precond: 0.046 [ms]
[OGL LOG][StoppingCriterion.H:373] Creating stopping criterion with minIter 1381 frequency 13
[OGL LOG][Proc: 0]p: generate_solver: 0.002 [ms]
[OGL LOG][Proc: 0]p: solve: 5188.99 [ms]
[OGL LOG][Proc: 0]p: copy_x_back: 4.554 [ms]
[OGL LOG][lduLduBase.H:330] 
Statistics:
	Time per iteration: 2254 [mu s]
	Time per residual norm calculation: 430.000000 [mu s]
	Time per iteration and DOF: 0.083481 [ns]
	Retrieve results bandwidth 1.482000 [GByte/s]
[OGL LOG][Proc: 0]p: solve_multi_gpu: 5220.2 [ms]
nonehipGKOCG:  Solving for p, Initial residual = 0.903988, Final residual = 9.02023e-05, No Iterations 2302
piso step 5361.33 [ms]
 contErrors 
time step continuity errors : sum local = 1.03162e-08, global = 1.53033e-21, cumulative = 1.42403e-20
piso setup 245.783 [ms]
 correctNonOrthogonal 
 setRef 
 startSolve 
[OGL LOG][Proc: 0]: global_index_init: 0.04 [ms]
[OGL LOG][Proc: 0]p_local_coeffs: call_update: 0 [ms]
[OGL LOG][Proc: 0]p_non_local_coeffs: call_update: 0 [ms]
[OGL LOG][Proc: 0]p: update_local_matrix_data: 34.081 [ms]
[OGL LOG][Proc: 0]p: update_non_local_matrix_data: 0.13 [ms]
[OGL LOG][Proc: 0]p_matrix: call_update: 18.816 [ms]
[OGL LOG][Proc: 0]p_rhs: call_update: 12.86 [ms]
[OGL LOG][Proc: 0]p: init_precond: 0.04 [ms]
[OGL LOG][StoppingCriterion.H:373] Creating stopping criterion with minIter 1381 frequency 13
[OGL LOG][Proc: 0]p: generate_solver: 0.002 [ms]
[OGL LOG][Proc: 0]p: solve: 5207.91 [ms]
[OGL LOG][Proc: 0]p: copy_x_back: 3.476 [ms]
[OGL LOG][lduLduBase.H:330] 
Statistics:
	Time per iteration: 2262 [mu s]
	Time per residual norm calculation: 640.000000 [mu s]
	Time per iteration and DOF: 0.083778 [ns]
	Retrieve results bandwidth 1.941000 [GByte/s]
[OGL LOG][Proc: 0]p: solve_multi_gpu: 5244.99 [ms]
nonehipGKOCG:  Solving for p, Initial residual = 0.849396, Final residual = 8.60596e-05, No Iterations 2302
piso step 5391.88 [ms]
 contErrors 
time step continuity errors : sum local = 9.76029e-09, global = 2.09038e-21, cumulative = 1.63307e-20
ExecutionTime = 160.42 s  ClockTime = 142 s

Time = 0.001992

Courant Number mean: 0.0412763 max: 0.486779
momentum setup 216.167 [ms]
DILUPBiCGStab:  Solving for Ux, Initial residual = 0.0176889, Final residual = 0.00161799, No Iterations 5
DILUPBiCGStab:  Solving for Uy, Initial residual = 0.0659924, Final residual = 0.00494023, No Iterations 5
DILUPBiCGStab:  Solving for Uz, Initial residual = 0.482081, Final residual = 0.0180681, No Iterations 5
piso setup 252.887 [ms]
 correctNonOrthogonal 
 setRef 
 startSolve 
[OGL LOG][Proc: 0]: global_index_init: 0.042 [ms]
[OGL LOG][Proc: 0]p_local_coeffs: call_update: 0 [ms]
[OGL LOG][Proc: 0]p_non_local_coeffs: call_update: 0 [ms]
[OGL LOG][Proc: 0]p: update_local_matrix_data: 32.716 [ms]
[OGL LOG][Proc: 0]p: update_non_local_matrix_data: 0.284 [ms]
[OGL LOG][Proc: 0]p_matrix: call_update: 13.77 [ms]
[OGL LOG][Proc: 0]p_rhs: call_update: 9.129 [ms]
[OGL LOG][Proc: 0]p: init_precond: 0.043 [ms]
[OGL LOG][StoppingCriterion.H:373] Creating stopping criterion with minIter 1381 frequency 17
[OGL LOG][Proc: 0]p: generate_solver: 0.002 [ms]
[OGL LOG][Proc: 0]p: solve: 5119.81 [ms]
[OGL LOG][Proc: 0]p: copy_x_back: 5.064 [ms]
[OGL LOG][lduLduBase.H:330] 
Statistics:
	Time per iteration: 2229 [mu s]
	Time per residual norm calculation: 450.000000 [mu s]
	Time per iteration and DOF: 0.082556 [ns]
	Retrieve results bandwidth 1.332000 [GByte/s]
[OGL LOG][Proc: 0]p: solve_multi_gpu: 5151.18 [ms]
nonehipGKOCG:  Solving for p, Initial residual = 0.88699, Final residual = 8.62e-05, No Iterations 2296
piso step 5287.22 [ms]
 contErrors 
time step continuity errors : sum local = 1.0259e-08, global = 1.31459e-21, cumulative = 1.76453e-20
piso setup 242.057 [ms]
 correctNonOrthogonal 
 setRef 
 startSolve 
[OGL LOG][Proc: 0]: global_index_init: 0.047 [ms]
[OGL LOG][Proc: 0]p_local_coeffs: call_update: 0 [ms]
[OGL LOG][Proc: 0]p_non_local_coeffs: call_update: 0 [ms]
[OGL LOG][Proc: 0]p: update_local_matrix_data: 33.534 [ms]
[OGL LOG][Proc: 0]p: update_non_local_matrix_data: 0.25 [ms]
[OGL LOG][Proc: 0]p_matrix: call_update: 15.475 [ms]
[OGL LOG][Proc: 0]p_rhs: call_update: 8.871 [ms]
[OGL LOG][Proc: 0]p: init_precond: 0.066 [ms]
[OGL LOG][StoppingCriterion.H:373] Creating stopping criterion with minIter 1377 frequency 15
[OGL LOG][Proc: 0]p: generate_solver: 0.002 [ms]
[OGL LOG][Proc: 0]p: solve: 5135.26 [ms]
[OGL LOG][Proc: 0]p: copy_x_back: 4.853 [ms]
[OGL LOG][lduLduBase.H:330] 
Statistics:
	Time per iteration: 2236 [mu s]
	Time per residual norm calculation: 432.000000 [mu s]
	Time per iteration and DOF: 0.082815 [ns]
	Retrieve results bandwidth 1.390000 [GByte/s]
[OGL LOG][Proc: 0]p: solve_multi_gpu: 5166.77 [ms]
nonehipGKOCG:  Solving for p, Initial residual = 0.81654, Final residual = 8.88048e-05, No Iterations 2296
piso step 5306.95 [ms]
 contErrors 
time step continuity errors : sum local = 1.06861e-08, global = -5.68832e-22, cumulative = 1.70765e-20
ExecutionTime = 175.4 s  ClockTime = 155 s

Time = 0.002158

Courant Number mean: 0.0426634 max: 0.532776
momentum setup 213.523 [ms]
DILUPBiCGStab:  Solving for Ux, Initial residual = 0.0167482, Final residual = 0.00150125, No Iterations 5
DILUPBiCGStab:  Solving for Uy, Initial residual = 0.0660579, Final residual = 0.00484783, No Iterations 5
DILUPBiCGStab:  Solving for Uz, Initial residual = 0.489115, Final residual = 0.0175414, No Iterations 5
piso setup 253.135 [ms]
 correctNonOrthogonal 
 setRef 
 startSolve 
[OGL LOG][Proc: 0]: global_index_init: 0.08 [ms]
[OGL LOG][Proc: 0]p_local_coeffs: call_update: 0 [ms]
[OGL LOG][Proc: 0]p_non_local_coeffs: call_update: 0 [ms]
[OGL LOG][Proc: 0]p: update_local_matrix_data: 34.162 [ms]
[OGL LOG][Proc: 0]p: update_non_local_matrix_data: 0.129 [ms]
[OGL LOG][Proc: 0]p_matrix: call_update: 12.901 [ms]
[OGL LOG][Proc: 0]p_rhs: call_update: 21.163 [ms]
[OGL LOG][Proc: 0]p: init_precond: 0.031 [ms]
[OGL LOG][StoppingCriterion.H:373] Creating stopping criterion with minIter 1377 frequency 13
[OGL LOG][Proc: 0]p: generate_solver: 0.002 [ms]
[OGL LOG][Proc: 0]p: solve: 5155.22 [ms]
[OGL LOG][Proc: 0]p: copy_x_back: 5.282 [ms]
[OGL LOG][lduLduBase.H:330] 
Statistics:
	Time per iteration: 2239 [mu s]
	Time per residual norm calculation: 463.000000 [mu s]
	Time per iteration and DOF: 0.082926 [ns]
	Retrieve results bandwidth 1.277000 [GByte/s]
[OGL LOG][Proc: 0]p: solve_multi_gpu: 5196.44 [ms]
nonehipGKOCG:  Solving for p, Initial residual = 0.904667, Final residual = 8.44151e-05, No Iterations 2302
piso step 5339.19 [ms]
 contErrors 
time step continuity errors : sum local = 1.00407e-08, global = -7.33918e-22, cumulative = 1.63425e-20
piso setup 245.129 [ms]
 correctNonOrthogonal 
 setRef 
 startSolve 
[OGL LOG][Proc: 0]: global_index_init: 0.101 [ms]
[OGL LOG][Proc: 0]p_local_coeffs: call_update: 0 [ms]
[OGL LOG][Proc: 0]p_non_local_coeffs: call_update: 0 [ms]
[OGL LOG][Proc: 0]p: update_local_matrix_data: 33.203 [ms]
[OGL LOG][Proc: 0]p: update_non_local_matrix_data: 0.293 [ms]
[OGL LOG][Proc: 0]p_matrix: call_update: 17.528 [ms]
[OGL LOG][Proc: 0]p_rhs: call_update: 5.711 [ms]
[OGL LOG][Proc: 0]p: init_precond: 0.032 [ms]
[OGL LOG][StoppingCriterion.H:373] Creating stopping criterion with minIter 1381 frequency 15
[OGL LOG][Proc: 0]p: generate_solver: 0.002 [ms]
[OGL LOG][Proc: 0]p: solve: 5109.38 [ms]
[OGL LOG][Proc: 0]p: copy_x_back: 5.081 [ms]
[OGL LOG][lduLduBase.H:330] 
Statistics:
	Time per iteration: 2225 [mu s]
	Time per residual norm calculation: 425.000000 [mu s]
	Time per iteration and DOF: 0.082407 [ns]
	Retrieve results bandwidth 1.328000 [GByte/s]
[OGL LOG][Proc: 0]p: solve_multi_gpu: 5140.44 [ms]
nonehipGKOCG:  Solving for p, Initial residual = 0.84656, Final residual = 9.10933e-05, No Iterations 2296
piso step 5280.56 [ms]
 contErrors 
time step continuity errors : sum local = 1.07599e-08, global = 7.53671e-23, cumulative = 1.64179e-20
ExecutionTime = 190.41 s  ClockTime = 168 s

Time = 0.002324

Courant Number mean: 0.0438967 max: 0.489837
momentum setup 212.168 [ms]
DILUPBiCGStab:  Solving for Ux, Initial residual = 0.0165117, Final residual = 0.00147552, No Iterations 5
DILUPBiCGStab:  Solving for Uy, Initial residual = 0.0608474, Final residual = 0.0043052, No Iterations 5
DILUPBiCGStab:  Solving for Uz, Initial residual = 0.479909, Final residual = 0.0172119, No Iterations 5
piso setup 252.97 [ms]
 correctNonOrthogonal 
 setRef 
 startSolve 
[OGL LOG][Proc: 0]: global_index_init: 0.054 [ms]
[OGL LOG][Proc: 0]p_local_coeffs: call_update: 0 [ms]
[OGL LOG][Proc: 0]p_non_local_coeffs: call_update: 0 [ms]
[OGL LOG][Proc: 0]p: update_local_matrix_data: 33.272 [ms]
[OGL LOG][Proc: 0]p: update_non_local_matrix_data: 0.23 [ms]
[OGL LOG][Proc: 0]p_matrix: call_update: 19.188 [ms]
[OGL LOG][Proc: 0]p_rhs: call_update: 11.888 [ms]
[OGL LOG][Proc: 0]p: init_precond: 0.034 [ms]
[OGL LOG][StoppingCriterion.H:373] Creating stopping criterion with minIter 1377 frequency 13
[OGL LOG][Proc: 0]p: generate_solver: 0.003 [ms]
[OGL LOG][Proc: 0]p: solve: 5153.83 [ms]
[OGL LOG][Proc: 0]p: copy_x_back: 5.335 [ms]
[OGL LOG][lduLduBase.H:330] 
Statistics:
	Time per iteration: 2238 [mu s]
	Time per residual norm calculation: 462.000000 [mu s]
	Time per iteration and DOF: 0.082889 [ns]
	Retrieve results bandwidth 1.265000 [GByte/s]
[OGL LOG][Proc: 0]p: solve_multi_gpu: 5195.01 [ms]
nonehipGKOCG:  Solving for p, Initial residual = 0.889332, Final residual = 8.56795e-05, No Iterations 2302
piso step 5333.88 [ms]
 contErrors 
time step continuity errors : sum local = 1.06157e-08, global = 9.56985e-22, cumulative = 1.73749e-20
piso setup 246.097 [ms]
 correctNonOrthogonal 
 setRef 
 startSolve 
[OGL LOG][Proc: 0]: global_index_init: 0.103 [ms]
[OGL LOG][Proc: 0]p_local_coeffs: call_update: 0 [ms]
[OGL LOG][Proc: 0]p_non_local_coeffs: call_update: 0 [ms]
[OGL LOG][Proc: 0]p: update_local_matrix_data: 34.111 [ms]
[OGL LOG][Proc: 0]p: update_non_local_matrix_data: 0.13 [ms]
[OGL LOG][Proc: 0]p_matrix: call_update: 13.428 [ms]
[OGL LOG][Proc: 0]p_rhs: call_update: 10.894 [ms]
[OGL LOG][Proc: 0]p: init_precond: 0.037 [ms]
[OGL LOG][StoppingCriterion.H:373] Creating stopping criterion with minIter 1381 frequency 15
[OGL LOG][Proc: 0]p: generate_solver: 0.002 [ms]
[OGL LOG][Proc: 0]p: solve: 5182.76 [ms]
[OGL LOG][Proc: 0]p: copy_x_back: 5.679 [ms]
[OGL LOG][lduLduBase.H:330] 
Statistics:
	Time per iteration: 2257 [mu s]
	Time per residual norm calculation: 438.000000 [mu s]
	Time per iteration and DOF: 0.083593 [ns]
	Retrieve results bandwidth 1.188000 [GByte/s]
[OGL LOG][Proc: 0]p: solve_multi_gpu: 5215.64 [ms]
nonehipGKOCG:  Solving for p, Initial residual = 0.817721, Final residual = 9.06452e-05, No Iterations 2296
piso step 5354.83 [ms]
 contErrors 
time step continuity errors : sum local = 1.13396e-08, global = 1.43962e-21, cumulative = 1.88145e-20
ExecutionTime = 205.47 s  ClockTime = 182 s

Time = 0.00249

Courant Number mean: 0.0451233 max: 0.541414
momentum setup 210.19 [ms]
DILUPBiCGStab:  Solving for Ux, Initial residual = 0.0157565, Final residual = 0.00136401, No Iterations 5
DILUPBiCGStab:  Solving for Uy, Initial residual = 0.0617236, Final residual = 0.00428865, No Iterations 5
DILUPBiCGStab:  Solving for Uz, Initial residual = 0.48923, Final residual = 0.0169504, No Iterations 5
piso setup 252.917 [ms]
 correctNonOrthogonal 
 setRef 
 startSolve 
[OGL LOG][Proc: 0]: global_index_init: 0.048 [ms]
[OGL LOG][Proc: 0]p_local_coeffs: call_update: 0 [ms]
[OGL LOG][Proc: 0]p_non_local_coeffs: call_update: 0 [ms]
[OGL LOG][Proc: 0]p: update_local_matrix_data: 33.61 [ms]
[OGL LOG][Proc: 0]p: update_non_local_matrix_data: 0.214 [ms]
[OGL LOG][Proc: 0]p_matrix: call_update: 11.357 [ms]
[OGL LOG][Proc: 0]p_rhs: call_update: 17.138 [ms]
[OGL LOG][Proc: 0]p: init_precond: 0.031 [ms]
[OGL LOG][StoppingCriterion.H:373] Creating stopping criterion with minIter 1377 frequency 13
[OGL LOG][Proc: 0]p: generate_solver: 0.002 [ms]
[OGL LOG][Proc: 0]p: solve: 5155.16 [ms]
[OGL LOG][Proc: 0]p: copy_x_back: 4.534 [ms]
[OGL LOG][lduLduBase.H:330] 
Statistics:
	Time per iteration: 2239 [mu s]
	Time per residual norm calculation: 438.000000 [mu s]
	Time per iteration and DOF: 0.082926 [ns]
	Retrieve results bandwidth 1.488000 [GByte/s]
[OGL LOG][Proc: 0]p: solve_multi_gpu: 5190.5 [ms]
nonehipGKOCG:  Solving for p, Initial residual = 0.905493, Final residual = 8.30508e-05, No Iterations 2302
piso step 5331.94 [ms]
 contErrors 
time step continuity errors : sum local = 1.03206e-08, global = 8.03769e-22, cumulative = 1.96183e-20
piso setup 246.43 [ms]
 correctNonOrthogonal 
 setRef 
 startSolve 
[OGL LOG][Proc: 0]: global_index_init: 0.035 [ms]
[OGL LOG][Proc: 0]p_local_coeffs: call_update: 0 [ms]
[OGL LOG][Proc: 0]p_non_local_coeffs: call_update: 0 [ms]
[OGL LOG][Proc: 0]p: update_local_matrix_data: 33.003 [ms]
[OGL LOG][Proc: 0]p: update_non_local_matrix_data: 0.296 [ms]
[OGL LOG][Proc: 0]p_matrix: call_update: 21.45 [ms]
[OGL LOG][Proc: 0]p_rhs: call_update: 9.901 [ms]
[OGL LOG][Proc: 0]p: init_precond: 0.029 [ms]
[OGL LOG][StoppingCriterion.H:373] Creating stopping criterion with minIter 1381 frequency 13
[OGL LOG][Proc: 0]p: generate_solver: 0.002 [ms]
[OGL LOG][Proc: 0]p: solve: 5153.99 [ms]
[OGL LOG][Proc: 0]p: copy_x_back: 5.143 [ms]
[OGL LOG][lduLduBase.H:330] 
Statistics:
	Time per iteration: 2238 [mu s]
	Time per residual norm calculation: 461.000000 [mu s]
	Time per iteration and DOF: 0.082889 [ns]
	Retrieve results bandwidth 1.312000 [GByte/s]
[OGL LOG][Proc: 0]p: solve_multi_gpu: 5193.26 [ms]
nonehipGKOCG:  Solving for p, Initial residual = 0.844393, Final residual = 7.88203e-05, No Iterations 2302
piso step 5332.5 [ms]
 contErrors 
time step continuity errors : sum local = 9.74002e-09, global = 9.66854e-22, cumulative = 2.05851e-20
ExecutionTime = 220.48 s  ClockTime = 195 s

Time = 0.002656

Courant Number mean: 0.046214 max: 0.492949
momentum setup 215.64 [ms]
DILUPBiCGStab:  Solving for Ux, Initial residual = 0.0157331, Final residual = 0.00135846, No Iterations 5
DILUPBiCGStab:  Solving for Uy, Initial residual = 0.0576223, Final residual = 0.00384038, No Iterations 5
DILUPBiCGStab:  Solving for Uz, Initial residual = 0.48295, Final residual = 0.016676, No Iterations 5
piso setup 253.396 [ms]
 correctNonOrthogonal 
 setRef 
 startSolve 
[OGL LOG][Proc: 0]: global_index_init: 0.038 [ms]
[OGL LOG][Proc: 0]p_local_coeffs: call_update: 0 [ms]
[OGL LOG][Proc: 0]p_non_local_coeffs: call_update: 0 [ms]
[OGL LOG][Proc: 0]p: update_local_matrix_data: 33.365 [ms]
[OGL LOG][Proc: 0]p: update_non_local_matrix_data: 0.212 [ms]
[OGL LOG][Proc: 0]p_matrix: call_update: 11.126 [ms]
[OGL LOG][Proc: 0]p_rhs: call_update: 10.671 [ms]
[OGL LOG][Proc: 0]p: init_precond: 0.034 [ms]
[OGL LOG][StoppingCriterion.H:373] Creating stopping criterion with minIter 1381 frequency 15
[OGL LOG][Proc: 0]p: generate_solver: 0.002 [ms]
[OGL LOG][Proc: 0]p: solve: 5195.43 [ms]
[OGL LOG][Proc: 0]p: copy_x_back: 4.437 [ms]
[OGL LOG][lduLduBase.H:330] 
Statistics:
	Time per iteration: 2262 [mu s]
	Time per residual norm calculation: 447.000000 [mu s]
	Time per iteration and DOF: 0.083778 [ns]
	Retrieve results bandwidth 1.521000 [GByte/s]
[OGL LOG][Proc: 0]p: solve_multi_gpu: 5225.17 [ms]
nonehipGKOCG:  Solving for p, Initial residual = 0.89216, Final residual = 9.60205e-05, No Iterations 2296
piso step 5364.95 [ms]
 contErrors 
time step continuity errors : sum local = 1.24149e-08, global = 2.3896e-22, cumulative = 2.08241e-20
piso setup 247.857 [ms]
 correctNonOrthogonal 
 setRef 
 startSolve 
[OGL LOG][Proc: 0]: global_index_init: 0.113 [ms]
[OGL LOG][Proc: 0]p_local_coeffs: call_update: 0 [ms]
[OGL LOG][Proc: 0]p_non_local_coeffs: call_update: 0 [ms]
[OGL LOG][Proc: 0]p: update_local_matrix_data: 34.12 [ms]
[OGL LOG][Proc: 0]p: update_non_local_matrix_data: 0.125 [ms]
[OGL LOG][Proc: 0]p_matrix: call_update: 11.778 [ms]
[OGL LOG][Proc: 0]p_rhs: call_update: 12.495 [ms]
[OGL LOG][Proc: 0]p: init_precond: 0.042 [ms]
[OGL LOG][StoppingCriterion.H:373] Creating stopping criterion with minIter 1377 frequency 13
[OGL LOG][Proc: 0]p: generate_solver: 0.002 [ms]
[OGL LOG][Proc: 0]p: solve: 5174.41 [ms]
[OGL LOG][Proc: 0]p: copy_x_back: 4.618 [ms]
[OGL LOG][lduLduBase.H:330] 
Statistics:
	Time per iteration: 2247 [mu s]
	Time per residual norm calculation: 428.000000 [mu s]
	Time per iteration and DOF: 0.083222 [ns]
	Retrieve results bandwidth 1.461000 [GByte/s]
[OGL LOG][Proc: 0]p: solve_multi_gpu: 5206.12 [ms]
nonehipGKOCG:  Solving for p, Initial residual = 0.819615, Final residual = 7.92368e-05, No Iterations 2302
piso step 5347.28 [ms]
 contErrors 
time step continuity errors : sum local = 1.03308e-08, global = 6.06416e-22, cumulative = 2.14305e-20
ExecutionTime = 235.59 s  ClockTime = 208 s

Time = 0.002822

Courant Number mean: 0.0473173 max: 0.551507
momentum setup 210.481 [ms]
DILUPBiCGStab:  Solving for Ux, Initial residual = 0.0151519, Final residual = 0.00125473, No Iterations 5
DILUPBiCGStab:  Solving for Uy, Initial residual = 0.0589303, Final residual = 0.00387048, No Iterations 5
DILUPBiCGStab:  Solving for Uz, Initial residual = 0.49342, Final residual = 0.0165822, No Iterations 5
piso setup 253.039 [ms]
 correctNonOrthogonal 
 setRef 
 startSolve 
[OGL LOG][Proc: 0]: global_index_init: 0.083 [ms]
[OGL LOG][Proc: 0]p_local_coeffs: call_update: 0 [ms]
[OGL LOG][Proc: 0]p_non_local_coeffs: call_update: 0 [ms]
[OGL LOG][Proc: 0]p: update_local_matrix_data: 33.098 [ms]
[OGL LOG][Proc: 0]p: update_non_local_matrix_data: 0.288 [ms]
[OGL LOG][Proc: 0]p_matrix: call_update: 11.147 [ms]
[OGL LOG][Proc: 0]p_rhs: call_update: 12.152 [ms]
[OGL LOG][Proc: 0]p: init_precond: 0.029 [ms]
[OGL LOG][StoppingCriterion.H:373] Creating stopping criterion with minIter 1381 frequency 13
[OGL LOG][Proc: 0]p: generate_solver: 0.002 [ms]
[OGL LOG][Proc: 0]p: solve: 5151.29 [ms]
[OGL LOG][Proc: 0]p: copy_x_back: 3.948 [ms]
[OGL LOG][lduLduBase.H:330] 
Statistics:
	Time per iteration: 2237 [mu s]
	Time per residual norm calculation: 425.000000 [mu s]
	Time per iteration and DOF: 0.082852 [ns]
	Retrieve results bandwidth 1.709000 [GByte/s]
[OGL LOG][Proc: 0]p: solve_multi_gpu: 5181.49 [ms]
nonehipGKOCG:  Solving for p, Initial residual = 0.906743, Final residual = 8.2214e-05, No Iterations 2302
piso step 5321.03 [ms]
 contErrors 
time step continuity errors : sum local = 1.07064e-08, global = -3.41827e-22, cumulative = 2.10887e-20
piso setup 246.145 [ms]
 correctNonOrthogonal 
 setRef 
 startSolve 
[OGL LOG][Proc: 0]: global_index_init: 0.048 [ms]
[OGL LOG][Proc: 0]p_local_coeffs: call_update: 0 [ms]
[OGL LOG][Proc: 0]p_non_local_coeffs: call_update: 0 [ms]
[OGL LOG][Proc: 0]p: update_local_matrix_data: 32.753 [ms]
[OGL LOG][Proc: 0]p: update_non_local_matrix_data: 0.182 [ms]
[OGL LOG][Proc: 0]p_matrix: call_update: 10.929 [ms]
[OGL LOG][Proc: 0]p_rhs: call_update: 18.237 [ms]
[OGL LOG][Proc: 0]p: init_precond: 0.041 [ms]
[OGL LOG][StoppingCriterion.H:373] Creating stopping criterion with minIter 1381 frequency 13
[OGL LOG][Proc: 0]p: generate_solver: 0.002 [ms]
[OGL LOG][Proc: 0]p: solve: 5167.06 [ms]
[OGL LOG][Proc: 0]p: copy_x_back: 3.956 [ms]
[OGL LOG][lduLduBase.H:330] 
Statistics:
	Time per iteration: 2244 [mu s]
	Time per residual norm calculation: 433.000000 [mu s]
	Time per iteration and DOF: 0.083111 [ns]
	Retrieve results bandwidth 1.706000 [GByte/s]
[OGL LOG][Proc: 0]p: solve_multi_gpu: 5204.55 [ms]
nonehipGKOCG:  Solving for p, Initial residual = 0.84268, Final residual = 7.80871e-05, No Iterations 2302
piso step 5341.34 [ms]
 contErrors 
time step continuity errors : sum local = 1.01242e-08, global = 8.15633e-22, cumulative = 2.19043e-20
ExecutionTime = 250.62 s  ClockTime = 221 s

Time = 0.002988

Courant Number mean: 0.0482956 max: 0.496273
momentum setup 215.051 [ms]
DILUPBiCGStab:  Solving for Ux, Initial residual = 0.0152621, Final residual = 0.0012613, No Iterations 5
DILUPBiCGStab:  Solving for Uy, Initial residual = 0.0557915, Final residual = 0.0034944, No Iterations 5
DILUPBiCGStab:  Solving for Uz, Initial residual = 0.489414, Final residual = 0.0163609, No Iterations 5
piso setup 253.262 [ms]
 correctNonOrthogonal 
 setRef 
 startSolve 
[OGL LOG][Proc: 0]: global_index_init: 0.037 [ms]
[OGL LOG][Proc: 0]p_local_coeffs: call_update: 0 [ms]
[OGL LOG][Proc: 0]p_non_local_coeffs: call_update: 0 [ms]
[OGL LOG][Proc: 0]p: update_local_matrix_data: 33.984 [ms]
[OGL LOG][Proc: 0]p: update_non_local_matrix_data: 0.145 [ms]
[OGL LOG][Proc: 0]p_matrix: call_update: 15.982 [ms]
[OGL LOG][Proc: 0]p_rhs: call_update: 7.688 [ms]
[OGL LOG][Proc: 0]p: init_precond: 0.043 [ms]
[OGL LOG][StoppingCriterion.H:373] Creating stopping criterion with minIter 1381 frequency 13
[OGL LOG][Proc: 0]p: generate_solver: 0.002 [ms]
[OGL LOG][Proc: 0]p: solve: 5142.98 [ms]
[OGL LOG][Proc: 0]p: copy_x_back: 5.551 [ms]
[OGL LOG][lduLduBase.H:330] 
Statistics:
	Time per iteration: 2234 [mu s]
	Time per residual norm calculation: 454.000000 [mu s]
	Time per iteration and DOF: 0.082741 [ns]
	Retrieve results bandwidth 1.215000 [GByte/s]
[OGL LOG][Proc: 0]p: solve_multi_gpu: 5174.13 [ms]
nonehipGKOCG:  Solving for p, Initial residual = 0.896559, Final residual = 8.58275e-05, No Iterations 2302
piso step 5313.94 [ms]
 contErrors 
time step continuity errors : sum local = 1.16203e-08, global = 1.23129e-21, cumulative = 2.31356e-20
piso setup 246 [ms]
 correctNonOrthogonal 
 setRef 
 startSolve 
[OGL LOG][Proc: 0]: global_index_init: 0.034 [ms]
[OGL LOG][Proc: 0]p_local_coeffs: call_update: 0 [ms]
[OGL LOG][Proc: 0]p_non_local_coeffs: call_update: 0 [ms]
[OGL LOG][Proc: 0]p: update_local_matrix_data: 33.297 [ms]
[OGL LOG][Proc: 0]p: update_non_local_matrix_data: 0.327 [ms]
[OGL LOG][Proc: 0]p_matrix: call_update: 13.661 [ms]
[OGL LOG][Proc: 0]p_rhs: call_update: 11.733 [ms]
[OGL LOG][Proc: 0]p: init_precond: 0.033 [ms]
[OGL LOG][StoppingCriterion.H:373] Creating stopping criterion with minIter 1381 frequency 15
[OGL LOG][Proc: 0]p: generate_solver: 0.003 [ms]
[OGL LOG][Proc: 0]p: solve: 5117.63 [ms]
[OGL LOG][Proc: 0]p: copy_x_back: 5.6 [ms]
[OGL LOG][lduLduBase.H:330] 
Statistics:
	Time per iteration: 2228 [mu s]
	Time per residual norm calculation: 454.000000 [mu s]
	Time per iteration and DOF: 0.082519 [ns]
	Retrieve results bandwidth 1.205000 [GByte/s]
[OGL LOG][Proc: 0]p: solve_multi_gpu: 5151.27 [ms]
nonehipGKOCG:  Solving for p, Initial residual = 0.822701, Final residual = 9.04694e-05, No Iterations 2296
piso step 5289.52 [ms]
 contErrors 
time step continuity errors : sum local = 1.2338e-08, global = 1.16253e-21, cumulative = 2.42981e-20
ExecutionTime = 265.58 s  ClockTime = 235 s

Time = 0.003154

Courant Number mean: 0.0493019 max: 0.563035
momentum setup 208.734 [ms]
DILUPBiCGStab:  Solving for Ux, Initial residual = 0.0148544, Final residual = 0.00116839, No Iterations 5
DILUPBiCGStab:  Solving for Uy, Initial residual = 0.0573563, Final residual = 0.00355325, No Iterations 5
DILUPBiCGStab:  Solving for Uz, Initial residual = 0.500403, Final residual = 0.0163644, No Iterations 5
piso setup 253.439 [ms]
 correctNonOrthogonal 
 setRef 
 startSolve 
[OGL LOG][Proc: 0]: global_index_init: 0.041 [ms]
[OGL LOG][Proc: 0]p_local_coeffs: call_update: 0 [ms]
[OGL LOG][Proc: 0]p_non_local_coeffs: call_update: 0 [ms]
[OGL LOG][Proc: 0]p: update_local_matrix_data: 33.422 [ms]
[OGL LOG][Proc: 0]p: update_non_local_matrix_data: 0.246 [ms]
[OGL LOG][Proc: 0]p_matrix: call_update: 11.914 [ms]
[OGL LOG][Proc: 0]p_rhs: call_update: 18.183 [ms]
[OGL LOG][Proc: 0]p: init_precond: 0.045 [ms]
[OGL LOG][StoppingCriterion.H:373] Creating stopping criterion with minIter 1377 frequency 15
[OGL LOG][Proc: 0]p: generate_solver: 0.002 [ms]
[OGL LOG][Proc: 0]p: solve: 4929.14 [ms]
[OGL LOG][Proc: 0]p: copy_x_back: 5.903 [ms]
[OGL LOG][lduLduBase.H:330] 
Statistics:
	Time per iteration: 2234 [mu s]
	Time per residual norm calculation: 445.000000 [mu s]
	Time per iteration and DOF: 0.082741 [ns]
	Retrieve results bandwidth 1.143000 [GByte/s]
[OGL LOG][Proc: 0]p: solve_multi_gpu: 4967.37 [ms]
nonehipGKOCG:  Solving for p, Initial residual = 0.909327, Final residual = 9.40539e-05, No Iterations 2206
piso step 5106.84 [ms]
 contErrors 
time step continuity errors : sum local = 1.2894e-08, global = 4.54801e-22, cumulative = 2.47529e-20
piso setup 245.849 [ms]
 correctNonOrthogonal 
 setRef 
 startSolve 
[OGL LOG][Proc: 0]: global_index_init: 0.045 [ms]
[OGL LOG][Proc: 0]p_local_coeffs: call_update: 0 [ms]
[OGL LOG][Proc: 0]p_non_local_coeffs: call_update: 0 [ms]
[OGL LOG][Proc: 0]p: update_local_matrix_data: 33.961 [ms]
[OGL LOG][Proc: 0]p: update_non_local_matrix_data: 0.14 [ms]
[OGL LOG][Proc: 0]p_matrix: call_update: 12.168 [ms]
[OGL LOG][Proc: 0]p_rhs: call_update: 12.77 [ms]
[OGL LOG][Proc: 0]p: init_precond: 0.037 [ms]
[OGL LOG][StoppingCriterion.H:373] Creating stopping criterion with minIter 1323 frequency 13
[OGL LOG][Proc: 0]p: generate_solver: 0.002 [ms]
[OGL LOG][Proc: 0]p: solve: 4956.28 [ms]
[OGL LOG][Proc: 0]p: copy_x_back: 5.269 [ms]
[OGL LOG][lduLduBase.H:330] 
Statistics:
	Time per iteration: 2241 [mu s]
	Time per residual norm calculation: 456.000000 [mu s]
	Time per iteration and DOF: 0.083000 [ns]
	Retrieve results bandwidth 1.281000 [GByte/s]
[OGL LOG][Proc: 0]p: solve_multi_gpu: 4989.01 [ms]
nonehipGKOCG:  Solving for p, Initial residual = 0.842336, Final residual = 9.87466e-05, No Iterations 2211
piso step 5131.23 [ms]
 contErrors 
time step continuity errors : sum local = 1.3492e-08, global = 1.60346e-21, cumulative = 2.63564e-20
ExecutionTime = 280.14 s  ClockTime = 247 s

Time = 0.00332

Courant Number mean: 0.0501879 max: 0.499869
momentum setup 204.838 [ms]
DILUPBiCGStab:  Solving for Ux, Initial residual = 0.0150599, Final residual = 0.00118036, No Iterations 5
DILUPBiCGStab:  Solving for Uy, Initial residual = 0.0549935, Final residual = 0.00323652, No Iterations 5
DILUPBiCGStab:  Solving for Uz, Initial residual = 0.498128, Final residual = 0.0162052, No Iterations 5
piso setup 254.18 [ms]
 correctNonOrthogonal 
 setRef 
 startSolve 
[OGL LOG][Proc: 0]: global_index_init: 0.034 [ms]
[OGL LOG][Proc: 0]p_local_coeffs: call_update: 0 [ms]
[OGL LOG][Proc: 0]p_non_local_coeffs: call_update: 0 [ms]
[OGL LOG][Proc: 0]p: update_local_matrix_data: 33.979 [ms]
[OGL LOG][Proc: 0]p: update_non_local_matrix_data: 0.226 [ms]
[OGL LOG][Proc: 0]p_matrix: call_update: 13.123 [ms]
[OGL LOG][Proc: 0]p_rhs: call_update: 16.802 [ms]
[OGL LOG][Proc: 0]p: init_precond: 0.039 [ms]
[OGL LOG][StoppingCriterion.H:373] Creating stopping criterion with minIter 1326 frequency 14
[OGL LOG][Proc: 0]p: generate_solver: 0.002 [ms]
[OGL LOG][Proc: 0]p: solve: 5123 [ms]
[OGL LOG][Proc: 0]p: copy_x_back: 5.297 [ms]
[OGL LOG][lduLduBase.H:330] 
Statistics:
	Time per iteration: 2230 [mu s]
	Time per residual norm calculation: 450.000000 [mu s]
	Time per iteration and DOF: 0.082593 [ns]
	Retrieve results bandwidth 1.274000 [GByte/s]
[OGL LOG][Proc: 0]p: solve_multi_gpu: 5161.34 [ms]
nonehipGKOCG:  Solving for p, Initial residual = 0.901984, Final residual = 9.69753e-05, No Iterations 2297
piso step 5302.44 [ms]
 contErrors 
time step continuity errors : sum local = 1.38089e-08, global = 1.51488e-21, cumulative = 2.78713e-20
piso setup 246.353 [ms]
 correctNonOrthogonal 
 setRef 
 startSolve 
[OGL LOG][Proc: 0]: global_index_init: 0.065 [ms]
[OGL LOG][Proc: 0]p_local_coeffs: call_update: 0 [ms]
[OGL LOG][Proc: 0]p_non_local_coeffs: call_update: 0 [ms]
[OGL LOG][Proc: 0]p: update_local_matrix_data: 33.028 [ms]
[OGL LOG][Proc: 0]p: update_non_local_matrix_data: 0.287 [ms]
[OGL LOG][Proc: 0]p_matrix: call_update: 10.81 [ms]
[OGL LOG][Proc: 0]p_rhs: call_update: 15.392 [ms]
[OGL LOG][Proc: 0]p: init_precond: 0.032 [ms]
[OGL LOG][StoppingCriterion.H:373] Creating stopping criterion with minIter 1378 frequency 15
[OGL LOG][Proc: 0]p: generate_solver: 0.002 [ms]
[OGL LOG][Proc: 0]p: solve: 5184.93 [ms]
[OGL LOG][Proc: 0]p: copy_x_back: 4.943 [ms]
[OGL LOG][lduLduBase.H:330] 
Statistics:
	Time per iteration: 2258 [mu s]
	Time per residual norm calculation: 445.000000 [mu s]
	Time per iteration and DOF: 0.083630 [ns]
	Retrieve results bandwidth 1.365000 [GByte/s]
[OGL LOG][Proc: 0]p: solve_multi_gpu: 5219.06 [ms]
nonehipGKOCG:  Solving for p, Initial residual = 0.8269, Final residual = 9.23517e-05, No Iterations 2296
piso step 5359.02 [ms]
 contErrors 
time step continuity errors : sum local = 1.32343e-08, global = -1.02753e-21, cumulative = 2.68438e-20
ExecutionTime = 295.15 s  ClockTime = 261 s

End

Finalising parallel run
