/*---------------------------------------------------------------------------*\
| =========                 |                                                 |
| \\      /  F ield         | OpenFOAM: The Open Source CFD Toolbox           |
|  \\    /   O peration     | Version:  2212                                  |
|   \\  /    A nd           | Website:  www.openfoam.com                      |
|    \\/     M anipulation  |                                                 |
\*---------------------------------------------------------------------------*/
Build  : 5614a57-20230228 OPENFOAM=2212 patch=230110 version=v2212
Arch   : "LSB;label=32;scalar=64"
Exec   : icoFoam -parallel -case /home/greole/data/code/exasim-project/micro_benchmarks/LidDrivenCavity3D/workspace/deb9f63eb08ea981b78aa52de9934930/case
Date   : Jul 01 2023
Time   : 10:25:36
Host   : guyot
PID    : 2143749
I/O    : uncollated
Case   : /home/greole/data/code/exasim-project/micro_benchmarks/LidDrivenCavity3D/workspace/deb9f63eb08ea981b78aa52de9934930/case
nProcs : 32
Hosts  :
(
    (guyot 32)
)
Pstream initialized with:
    floatTransfer      : 0
    nProcsSimpleSum    : 0
    commsType          : nonBlocking
    polling iterations : 0
trapFpe: Floating point exception trapping enabled (FOAM_SIGFPE).
fileModificationChecking : Monitoring run-time modified files using timeStampMaster (fileModificationSkew 5, maxFileModificationPolls 20)
allowSystemOperations : Allowing user-supplied system call operations

// * * * * * * * * * * * * * * * * * * * * * * * * * * * * * * * * * * * * * //
Create time

--> FOAM Warning : 
    From void* Foam::dlLibraryTable::openLibrary(const Foam::fileName&, bool)
    in file db/dynamicLibrary/dlLibraryTable/dlLibraryTable.C at line 188
    Could not load "libpetscFoam.so"
libpetscFoam.so: cannot open shared object file: No such file or directory
Create mesh for time = 0


PISO: Operating solver in PISO mode

Reading transportProperties

Reading field p

Reading field U

Reading/calculating face flux field phi


Starting time loop

Time = 0.0005

Courant Number mean: 8.62851e-18 max: 8.67362e-15
[INFO] MatrixAssemblyU: 16.694 [ms]
DILUPBiCGStab:  Solving for Ux, Initial residual = 1, Final residual = 0.00283431, No Iterations 5
DILUPBiCGStab:  Solving for Uy:  solution singularity
DILUPBiCGStab:  Solving for Uz:  solution singularity
[INFO] MomentumPredictor: 49.711 [ms]
[INFO] MatrixAssemblyPI: 15.119 [ms]
[INFO] AdjustPhi: 0.591 [ms]
[INFO] ConstrainPressure: 0.007 [ms]
[INFO] MatrixAssemblyPII: 4.691 [ms]
[OGL LOG][lduLduBase.H:122] Initialising OGL
	OGL commit:  6548490+
	Branch: gko-1.5.0 
	Build type: Release
	Ginkgo version: 1.5.0 ( develop)
	Ginkgo commit: 4292ffdee
	MPI is GPU aware: 1
	Forces host buffer based communication: 1
	CPU ranks per GPU: 1
	Matrix format: Coo
	End OGL_INFO
[OGL LOG][Proc: 0]: global_index_init: 514.846 [ms]
[OGL LOG][Proc: 0]p_local_cols: call_init: 0.049 [ms]
[OGL LOG][Proc: 0]p_local_rows: call_init: 0.006 [ms]
[OGL LOG][Proc: 0]p_local_ldu_map: call_init: 0.011 [ms]
[OGL LOG][Proc: 0]p_local_coeffs: call_init: 0.012 [ms]
[OGL LOG][Proc: 0]p_non_local_cols: call_init: 0.006 [ms]
[OGL LOG][Proc: 0]p_non_local_rows: call_init: 0.005 [ms]
[OGL LOG][Proc: 0]p_non_local_ldu_map: call_init: 0.004 [ms]
[OGL LOG][Proc: 0]p_non_local_coeffs: call_init: 0.005 [ms]
[OGL LOG][Proc: 0]p: init_local_sparsity_pattern: 7.717 [ms]
[OGL LOG][Proc: 0]p: init_non_local_sparsity_pattern: 0.3 [ms]
[OGL LOG][Proc: 0]p: update_local_matrix_data: 2.689 [ms]
[OGL LOG][Proc: 0]p: update_non_local_matrix_data: 0.064 [ms]
[OGL LOG][Proc: 0]device_partition: call_init: 0.383 [ms]
[OGL LOG][Proc: 0]p_matrix: call_init: 319.217 [ms]
[OGL LOG][Proc: 0]p_rhs: call_init: 5.261 [ms]
[OGL LOG][Proc: 0]p_solution: call_init: 0.257 [ms]
[OGL LOG][Proc: 0]p: init_precond: 0.129 [ms]
[OGL LOG][StoppingCriterion.H:372] Creating stopping criterion with minIter 0 frequency 1
[OGL LOG][Proc: 0]p: generate_solver: 0.048 [ms]
[OGL LOG][Proc: 0]p: solve: 5576.02 [ms]
[OGL LOG][Proc: 0]p: copy_x_back: 0.117 [ms]
[OGL LOG][lduLduBase.H:339] 
Statistics:
	Time per iteration: 7031 [mu s]
	Time per residual norm calculation: 2093.000000 [mu s]
	Time per iteration and DOF: 7.031000 [ns]
	Retrieve results bandwidth 2.136000 [GByte/s]
[OGL LOG][Proc: 0]p: solve_multi_gpu: 5904.36 [ms]
nonecudaGKOCG:  Solving for p, Initial residual = 1, Final residual = 9.96611e-05, No Iterations 793
[INFO] SolveP: 19410 [ms]
time step continuity errors : sum local = 2.14125e-08, global = -2.51416e-21, cumulative = -2.51416e-21
[INFO] ContinuityError: 5.25 [ms]
[INFO] CorrectBoundary: 0.086 [ms]
[INFO] PISOStep: 19441.7 [ms]
[INFO] MatrixAssemblyPI: 14.179 [ms]
[INFO] AdjustPhi: 0.543 [ms]
[INFO] ConstrainPressure: 0.001 [ms]
[INFO] MatrixAssemblyPII: 4.561 [ms]
[OGL LOG][Proc: 0]: global_index_init: 0.02 [ms]
[OGL LOG][Proc: 0]p_local_coeffs: call_update: 0.016 [ms]
[OGL LOG][Proc: 0]p_non_local_coeffs: call_update: 0 [ms]
[OGL LOG][Proc: 0]p: update_local_matrix_data: 2.588 [ms]
[OGL LOG][Proc: 0]p: update_non_local_matrix_data: 0.102 [ms]
[OGL LOG][Proc: 0]p_matrix: call_update: 11.426 [ms]
[OGL LOG][Proc: 0]p_rhs: call_update: 1.879 [ms]
[OGL LOG][Proc: 0]p: init_precond: 0.075 [ms]
[OGL LOG][StoppingCriterion.H:372] Creating stopping criterion with minIter 475 frequency 10
[OGL LOG][Proc: 0]p: generate_solver: 0.002 [ms]
[OGL LOG][Proc: 0]p: solve: 3664.57 [ms]
[OGL LOG][Proc: 0]p: copy_x_back: 0.103 [ms]
[OGL LOG][lduLduBase.H:339] 
Statistics:
	Time per iteration: 4632 [mu s]
	Time per residual norm calculation: 2031.000000 [mu s]
	Time per iteration and DOF: 4.632000 [ns]
	Retrieve results bandwidth 2.427000 [GByte/s]
[OGL LOG][Proc: 0]p: solve_multi_gpu: 3680.87 [ms]
nonecudaGKOCG:  Solving for p, Initial residual = 0.731148, Final residual = 7.05499e-05, No Iterations 791
[INFO] SolveP: 3686.7 [ms]
time step continuity errors : sum local = 2.0015e-08, global = -2.89997e-21, cumulative = -5.41413e-21
[INFO] ContinuityError: 3.922 [ms]
[INFO] CorrectBoundary: 0.072 [ms]
[INFO] PISOStep: 3716.26 [ms]
[INFO] TimeStep: 23225.9 [ms]
ExecutionTime = 15.56 s  ClockTime = 23 s

Time = 0.001

Courant Number mean: 0.0215183 max: 0.377124
[INFO] MatrixAssemblyU: 15.953 [ms]
DILUPBiCGStab:  Solving for Ux, Initial residual = 0.150306, Final residual = 0.00140866, No Iterations 5
DILUPBiCGStab:  Solving for Uy, Initial residual = 0.368268, Final residual = 0.00287079, No Iterations 5
DILUPBiCGStab:  Solving for Uz, Initial residual = 0.986413, Final residual = 0.00765772, No Iterations 5
[INFO] MomentumPredictor: 79.778 [ms]
[INFO] MatrixAssemblyPI: 15.328 [ms]
[INFO] AdjustPhi: 0.819 [ms]
[INFO] ConstrainPressure: 0.002 [ms]
[INFO] MatrixAssemblyPII: 4.66 [ms]
[OGL LOG][Proc: 0]: global_index_init: 0.021 [ms]
[OGL LOG][Proc: 0]p_local_coeffs: call_update: 0 [ms]
[OGL LOG][Proc: 0]p_non_local_coeffs: call_update: 0 [ms]
[OGL LOG][Proc: 0]p: update_local_matrix_data: 3.101 [ms]
[OGL LOG][Proc: 0]p: update_non_local_matrix_data: 0.048 [ms]
[OGL LOG][Proc: 0]p_matrix: call_update: 13.221 [ms]
[OGL LOG][Proc: 0]p_rhs: call_update: 0.092 [ms]
[OGL LOG][Proc: 0]p: init_precond: 0.053 [ms]
[OGL LOG][StoppingCriterion.H:372] Creating stopping criterion with minIter 474 frequency 12
[OGL LOG][Proc: 0]p: generate_solver: 0.001 [ms]
[OGL LOG][Proc: 0]p: solve: 3596.7 [ms]
[OGL LOG][Proc: 0]p: copy_x_back: 0.081 [ms]
[OGL LOG][lduLduBase.H:339] 
Statistics:
	Time per iteration: 4605 [mu s]
	Time per residual norm calculation: 2191.000000 [mu s]
	Time per iteration and DOF: 4.605000 [ns]
	Retrieve results bandwidth 3.086000 [GByte/s]
[OGL LOG][Proc: 0]p: solve_multi_gpu: 3614.39 [ms]
nonecudaGKOCG:  Solving for p, Initial residual = 0.693022, Final residual = 7.58546e-05, No Iterations 781
[INFO] SolveP: 3619.37 [ms]
time step continuity errors : sum local = 2.42649e-08, global = 5.01794e-21, cumulative = -3.96194e-22
[INFO] ContinuityError: 2.865 [ms]
[INFO] CorrectBoundary: 0.143 [ms]
[INFO] PISOStep: 3650.14 [ms]
[INFO] MatrixAssemblyPI: 14.208 [ms]
[INFO] AdjustPhi: 0.495 [ms]
[INFO] ConstrainPressure: 0.002 [ms]
[INFO] MatrixAssemblyPII: 4.735 [ms]
[OGL LOG][Proc: 0]: global_index_init: 0.021 [ms]
[OGL LOG][Proc: 0]p_local_coeffs: call_update: 0 [ms]
[OGL LOG][Proc: 0]p_non_local_coeffs: call_update: 0 [ms]
[OGL LOG][Proc: 0]p: update_local_matrix_data: 2.849 [ms]
[OGL LOG][Proc: 0]p: update_non_local_matrix_data: 0.078 [ms]
[OGL LOG][Proc: 0]p_matrix: call_update: 11.804 [ms]
[OGL LOG][Proc: 0]p_rhs: call_update: 1.425 [ms]
[OGL LOG][Proc: 0]p: init_precond: 0.056 [ms]
[OGL LOG][StoppingCriterion.H:372] Creating stopping criterion with minIter 468 frequency 12
[OGL LOG][Proc: 0]p: generate_solver: 0.002 [ms]
[OGL LOG][Proc: 0]p: solve: 3596.66 [ms]
[OGL LOG][Proc: 0]p: copy_x_back: 0.113 [ms]
[OGL LOG][lduLduBase.H:339] 
Statistics:
	Time per iteration: 4605 [mu s]
	Time per residual norm calculation: 2349.000000 [mu s]
	Time per iteration and DOF: 4.605000 [ns]
	Retrieve results bandwidth 2.212000 [GByte/s]
[OGL LOG][Proc: 0]p: solve_multi_gpu: 3614.83 [ms]
nonecudaGKOCG:  Solving for p, Initial residual = 0.622418, Final residual = 6.76652e-05, No Iterations 781
[INFO] SolveP: 3618.45 [ms]
time step continuity errors : sum local = 2.20787e-08, global = 3.09699e-21, cumulative = 2.7008e-21
[INFO] ContinuityError: 3.981 [ms]
[INFO] CorrectBoundary: 0.095 [ms]
[INFO] PISOStep: 3648.05 [ms]
[INFO] TimeStep: 7395.77 [ms]
ExecutionTime = 22.93 s  ClockTime = 31 s

Time = 0.0015

Courant Number mean: 0.0324754 max: 0.441214
[INFO] MatrixAssemblyU: 16.265 [ms]
DILUPBiCGStab:  Solving for Ux, Initial residual = 0.0531326, Final residual = 0.000432441, No Iterations 5
DILUPBiCGStab:  Solving for Uy, Initial residual = 0.124792, Final residual = 0.000734747, No Iterations 5
DILUPBiCGStab:  Solving for Uz, Initial residual = 0.579571, Final residual = 0.00404435, No Iterations 5
[INFO] MomentumPredictor: 78.9 [ms]
[INFO] MatrixAssemblyPI: 15.767 [ms]
[INFO] AdjustPhi: 0.446 [ms]
[INFO] ConstrainPressure: 0.002 [ms]
[INFO] MatrixAssemblyPII: 4.618 [ms]
[OGL LOG][Proc: 0]: global_index_init: 0.019 [ms]
[OGL LOG][Proc: 0]p_local_coeffs: call_update: 0 [ms]
[OGL LOG][Proc: 0]p_non_local_coeffs: call_update: 0 [ms]
[OGL LOG][Proc: 0]p: update_local_matrix_data: 3.157 [ms]
[OGL LOG][Proc: 0]p: update_non_local_matrix_data: 0.023 [ms]
[OGL LOG][Proc: 0]p_matrix: call_update: 12.902 [ms]
[OGL LOG][Proc: 0]p_rhs: call_update: 0.051 [ms]
[OGL LOG][Proc: 0]p: init_precond: 0.048 [ms]
[OGL LOG][StoppingCriterion.H:372] Creating stopping criterion with minIter 468 frequency 17
[OGL LOG][Proc: 0]p: generate_solver: 0.002 [ms]
[OGL LOG][Proc: 0]p: solve: 3599.28 [ms]
[OGL LOG][Proc: 0]p: copy_x_back: 0.083 [ms]
[OGL LOG][lduLduBase.H:339] 
Statistics:
	Time per iteration: 4596 [mu s]
	Time per residual norm calculation: 2498.000000 [mu s]
	Time per iteration and DOF: 4.596000 [ns]
	Retrieve results bandwidth 3.012000 [GByte/s]
[OGL LOG][Proc: 0]p: solve_multi_gpu: 3616.86 [ms]
nonecudaGKOCG:  Solving for p, Initial residual = 0.63333, Final residual = 4.08101e-05, No Iterations 783
[INFO] SolveP: 3621.31 [ms]
time step continuity errors : sum local = 9.37231e-09, global = 1.82387e-22, cumulative = 2.88318e-21
[INFO] ContinuityError: 4.432 [ms]
[INFO] CorrectBoundary: 0.067 [ms]
[INFO] PISOStep: 3652.75 [ms]
[INFO] MatrixAssemblyPI: 13.782 [ms]
[INFO] AdjustPhi: 1.258 [ms]
[INFO] ConstrainPressure: 0.001 [ms]
[INFO] MatrixAssemblyPII: 4.811 [ms]
[OGL LOG][Proc: 0]: global_index_init: 0.014 [ms]
[OGL LOG][Proc: 0]p_local_coeffs: call_update: 0 [ms]
[OGL LOG][Proc: 0]p_non_local_coeffs: call_update: 0 [ms]
[OGL LOG][Proc: 0]p: update_local_matrix_data: 2.605 [ms]
[OGL LOG][Proc: 0]p: update_non_local_matrix_data: 0.13 [ms]
[OGL LOG][Proc: 0]p_matrix: call_update: 10.901 [ms]
[OGL LOG][Proc: 0]p_rhs: call_update: 2.398 [ms]
[OGL LOG][Proc: 0]p: init_precond: 0.046 [ms]
[OGL LOG][StoppingCriterion.H:372] Creating stopping criterion with minIter 469 frequency 17
[OGL LOG][Proc: 0]p: generate_solver: 0.002 [ms]
[OGL LOG][Proc: 0]p: solve: 3592.63 [ms]
[OGL LOG][Proc: 0]p: copy_x_back: 0.17 [ms]
[OGL LOG][lduLduBase.H:339] 
Statistics:
	Time per iteration: 4588 [mu s]
	Time per residual norm calculation: 2054.000000 [mu s]
	Time per iteration and DOF: 4.588000 [ns]
	Retrieve results bandwidth 1.470000 [GByte/s]
[OGL LOG][Proc: 0]p: solve_multi_gpu: 3611.02 [ms]
nonecudaGKOCG:  Solving for p, Initial residual = 0.580694, Final residual = 3.79451e-05, No Iterations 783
[INFO] SolveP: 3615 [ms]
time step continuity errors : sum local = 8.48133e-09, global = -4.34331e-21, cumulative = -1.46012e-21
[INFO] ContinuityError: 2.924 [ms]
[INFO] CorrectBoundary: 0.062 [ms]
[INFO] PISOStep: 3645.04 [ms]
[INFO] TimeStep: 7394.75 [ms]
ExecutionTime = 30.3 s  ClockTime = 38 s

Time = 0.002

Courant Number mean: 0.0388747 max: 0.452907
[INFO] MatrixAssemblyU: 16.749 [ms]
DILUPBiCGStab:  Solving for Ux, Initial residual = 0.0319172, Final residual = 0.000228996, No Iterations 5
DILUPBiCGStab:  Solving for Uy, Initial residual = 0.0814091, Final residual = 0.000474772, No Iterations 5
DILUPBiCGStab:  Solving for Uz, Initial residual = 0.279662, Final residual = 0.00157535, No Iterations 5
[INFO] MomentumPredictor: 79.015 [ms]
[INFO] MatrixAssemblyPI: 15.68 [ms]
[INFO] AdjustPhi: 0.415 [ms]
[INFO] ConstrainPressure: 0.001 [ms]
[INFO] MatrixAssemblyPII: 4.703 [ms]
[OGL LOG][Proc: 0]: global_index_init: 0.013 [ms]
[OGL LOG][Proc: 0]p_local_coeffs: call_update: 0 [ms]
[OGL LOG][Proc: 0]p_non_local_coeffs: call_update: 0 [ms]
[OGL LOG][Proc: 0]p: update_local_matrix_data: 3.001 [ms]
[OGL LOG][Proc: 0]p: update_non_local_matrix_data: 0.099 [ms]
[OGL LOG][Proc: 0]p_matrix: call_update: 13.202 [ms]
[OGL LOG][Proc: 0]p_rhs: call_update: 0.088 [ms]
[OGL LOG][Proc: 0]p: init_precond: 0.051 [ms]
[OGL LOG][StoppingCriterion.H:372] Creating stopping criterion with minIter 469 frequency 12
[OGL LOG][Proc: 0]p: generate_solver: 0.001 [ms]
[OGL LOG][Proc: 0]p: solve: 3529.43 [ms]
[OGL LOG][Proc: 0]p: copy_x_back: 0.104 [ms]
[OGL LOG][lduLduBase.H:339] 
Statistics:
	Time per iteration: 4589 [mu s]
	Time per residual norm calculation: 2346.000000 [mu s]
	Time per iteration and DOF: 4.589000 [ns]
	Retrieve results bandwidth 2.403000 [GByte/s]
[OGL LOG][Proc: 0]p: solve_multi_gpu: 3547.36 [ms]
nonecudaGKOCG:  Solving for p, Initial residual = 0.414396, Final residual = 5.52823e-05, No Iterations 769
[INFO] SolveP: 3552.84 [ms]
time step continuity errors : sum local = 1.08477e-08, global = -4.35562e-21, cumulative = -5.81575e-21
[INFO] ContinuityError: 1.482 [ms]
[INFO] CorrectBoundary: 0.103 [ms]
[INFO] PISOStep: 3582.89 [ms]
[INFO] MatrixAssemblyPI: 14.161 [ms]
[INFO] AdjustPhi: 0.574 [ms]
[INFO] ConstrainPressure: 0.001 [ms]
[INFO] MatrixAssemblyPII: 4.787 [ms]
[OGL LOG][Proc: 0]: global_index_init: 0.017 [ms]
[OGL LOG][Proc: 0]p_local_coeffs: call_update: 0 [ms]
[OGL LOG][Proc: 0]p_non_local_coeffs: call_update: 0 [ms]
[OGL LOG][Proc: 0]p: update_local_matrix_data: 2.924 [ms]
[OGL LOG][Proc: 0]p: update_non_local_matrix_data: 0.091 [ms]
[OGL LOG][Proc: 0]p_matrix: call_update: 13.189 [ms]
[OGL LOG][Proc: 0]p_rhs: call_update: 1.45 [ms]
[OGL LOG][Proc: 0]p: init_precond: 0.049 [ms]
[OGL LOG][StoppingCriterion.H:372] Creating stopping criterion with minIter 461 frequency 17
[OGL LOG][Proc: 0]p: generate_solver: 0.001 [ms]
[OGL LOG][Proc: 0]p: solve: 3509.86 [ms]
[OGL LOG][Proc: 0]p: copy_x_back: 0.101 [ms]
[OGL LOG][lduLduBase.H:339] 
Statistics:
	Time per iteration: 4582 [mu s]
	Time per residual norm calculation: 2347.000000 [mu s]
	Time per iteration and DOF: 4.582000 [ns]
	Retrieve results bandwidth 2.475000 [GByte/s]
[OGL LOG][Proc: 0]p: solve_multi_gpu: 3529.07 [ms]
nonecudaGKOCG:  Solving for p, Initial residual = 0.352464, Final residual = 6.21524e-05, No Iterations 766
[INFO] SolveP: 3533.06 [ms]
time step continuity errors : sum local = 1.2317e-08, global = -6.29115e-21, cumulative = -1.21069e-20
[INFO] ContinuityError: 4.491 [ms]
[INFO] CorrectBoundary: 0.1 [ms]
[INFO] PISOStep: 3563.22 [ms]
[INFO] TimeStep: 7243.66 [ms]
ExecutionTime = 37.52 s  ClockTime = 45 s

Time = 0.0025

Courant Number mean: 0.0439274 max: 0.459589
[INFO] MatrixAssemblyU: 16.269 [ms]
DILUPBiCGStab:  Solving for Ux, Initial residual = 0.0235243, Final residual = 0.00014623, No Iterations 5
DILUPBiCGStab:  Solving for Uy, Initial residual = 0.0515451, Final residual = 0.000276605, No Iterations 5
DILUPBiCGStab:  Solving for Uz, Initial residual = 0.100894, Final residual = 0.000574845, No Iterations 5
[INFO] MomentumPredictor: 79.024 [ms]
[INFO] MatrixAssemblyPI: 15.87 [ms]
[INFO] AdjustPhi: 0.325 [ms]
[INFO] ConstrainPressure: 0.001 [ms]
[INFO] MatrixAssemblyPII: 4.668 [ms]
[OGL LOG][Proc: 0]: global_index_init: 0.018 [ms]
[OGL LOG][Proc: 0]p_local_coeffs: call_update: 0 [ms]
[OGL LOG][Proc: 0]p_non_local_coeffs: call_update: 0 [ms]
[OGL LOG][Proc: 0]p: update_local_matrix_data: 3.165 [ms]
[OGL LOG][Proc: 0]p: update_non_local_matrix_data: 0.037 [ms]
[OGL LOG][Proc: 0]p_matrix: call_update: 12.774 [ms]
[OGL LOG][Proc: 0]p_rhs: call_update: 0.331 [ms]
[OGL LOG][Proc: 0]p: init_precond: 0.05 [ms]
[OGL LOG][StoppingCriterion.H:372] Creating stopping criterion with minIter 459 frequency 17
[OGL LOG][Proc: 0]p: generate_solver: 0.001 [ms]
[OGL LOG][Proc: 0]p: solve: 3353.51 [ms]
[OGL LOG][Proc: 0]p: copy_x_back: 0.087 [ms]
[OGL LOG][lduLduBase.H:339] 
Statistics:
	Time per iteration: 4581 [mu s]
	Time per residual norm calculation: 2497.000000 [mu s]
	Time per iteration and DOF: 4.581000 [ns]
	Retrieve results bandwidth 2.873000 [GByte/s]
[OGL LOG][Proc: 0]p: solve_multi_gpu: 3371.32 [ms]
nonecudaGKOCG:  Solving for p, Initial residual = 0.315787, Final residual = 8.28352e-05, No Iterations 732
[INFO] SolveP: 3375.09 [ms]
time step continuity errors : sum local = 1.33971e-08, global = -5.87649e-21, cumulative = -1.79834e-20
[INFO] ContinuityError: 4.29 [ms]
[INFO] CorrectBoundary: 0.213 [ms]
[INFO] PISOStep: 3406.46 [ms]
[INFO] MatrixAssemblyPI: 13.857 [ms]
[INFO] AdjustPhi: 0.651 [ms]
[INFO] ConstrainPressure: 0.002 [ms]
[INFO] MatrixAssemblyPII: 4.666 [ms]
[OGL LOG][Proc: 0]: global_index_init: 0.019 [ms]
[OGL LOG][Proc: 0]p_local_coeffs: call_update: 0 [ms]
[OGL LOG][Proc: 0]p_non_local_coeffs: call_update: 0 [ms]
[OGL LOG][Proc: 0]p: update_local_matrix_data: 2.467 [ms]
[OGL LOG][Proc: 0]p: update_non_local_matrix_data: 0.114 [ms]
[OGL LOG][Proc: 0]p_matrix: call_update: 10.769 [ms]
[OGL LOG][Proc: 0]p_rhs: call_update: 2.657 [ms]
[OGL LOG][Proc: 0]p: init_precond: 0.051 [ms]
[OGL LOG][StoppingCriterion.H:372] Creating stopping criterion with minIter 439 frequency 17
[OGL LOG][Proc: 0]p: generate_solver: 0.002 [ms]
[OGL LOG][Proc: 0]p: solve: 3354.95 [ms]
[OGL LOG][Proc: 0]p: copy_x_back: 0.196 [ms]
[OGL LOG][lduLduBase.H:339] 
Statistics:
	Time per iteration: 4583 [mu s]
	Time per residual norm calculation: 2340.000000 [mu s]
	Time per iteration and DOF: 4.583000 [ns]
	Retrieve results bandwidth 1.275000 [GByte/s]
[OGL LOG][Proc: 0]p: solve_multi_gpu: 3373.53 [ms]
nonecudaGKOCG:  Solving for p, Initial residual = 0.270163, Final residual = 7.67126e-05, No Iterations 732
[INFO] SolveP: 3377.58 [ms]
time step continuity errors : sum local = 1.23133e-08, global = 1.62544e-21, cumulative = -1.63579e-20
[INFO] ContinuityError: 2.775 [ms]
[INFO] CorrectBoundary: 0.066 [ms]
[INFO] PISOStep: 3406.31 [ms]
[INFO] TimeStep: 6909.84 [ms]
ExecutionTime = 44.39 s  ClockTime = 52 s

Time = 0.003

Courant Number mean: 0.0479685 max: 0.463832
[INFO] MatrixAssemblyU: 16.486 [ms]
DILUPBiCGStab:  Solving for Ux, Initial residual = 0.0179062, Final residual = 0.000103904, No Iterations 5
DILUPBiCGStab:  Solving for Uy, Initial residual = 0.0401372, Final residual = 0.000165322, No Iterations 5
DILUPBiCGStab:  Solving for Uz, Initial residual = 0.0870135, Final residual = 0.000512408, No Iterations 5
[INFO] MomentumPredictor: 78.943 [ms]
[INFO] MatrixAssemblyPI: 15.763 [ms]
[INFO] AdjustPhi: 0.454 [ms]
[INFO] ConstrainPressure: 0.002 [ms]
[INFO] MatrixAssemblyPII: 4.597 [ms]
[OGL LOG][Proc: 0]: global_index_init: 0.018 [ms]
[OGL LOG][Proc: 0]p_local_coeffs: call_update: 0 [ms]
[OGL LOG][Proc: 0]p_non_local_coeffs: call_update: 0 [ms]
[OGL LOG][Proc: 0]p: update_local_matrix_data: 3.139 [ms]
[OGL LOG][Proc: 0]p: update_non_local_matrix_data: 0.038 [ms]
[OGL LOG][Proc: 0]p_matrix: call_update: 12.95 [ms]
[OGL LOG][Proc: 0]p_rhs: call_update: 0.383 [ms]
[OGL LOG][Proc: 0]p: init_precond: 0.05 [ms]
[OGL LOG][StoppingCriterion.H:372] Creating stopping criterion with minIter 439 frequency 17
[OGL LOG][Proc: 0]p: generate_solver: 0.002 [ms]
[OGL LOG][Proc: 0]p: solve: 3364.95 [ms]
[OGL LOG][Proc: 0]p: copy_x_back: 0.098 [ms]
[OGL LOG][lduLduBase.H:339] 
Statistics:
	Time per iteration: 4596 [mu s]
	Time per residual norm calculation: 2340.000000 [mu s]
	Time per iteration and DOF: 4.596000 [ns]
	Retrieve results bandwidth 2.551000 [GByte/s]
[OGL LOG][Proc: 0]p: solve_multi_gpu: 3383.24 [ms]
nonecudaGKOCG:  Solving for p, Initial residual = 0.197679, Final residual = 7.25165e-05, No Iterations 732
[INFO] SolveP: 3387.91 [ms]
time step continuity errors : sum local = 1.13196e-08, global = -5.54121e-21, cumulative = -2.18991e-20
[INFO] ContinuityError: 2.568 [ms]
[INFO] CorrectBoundary: 0.101 [ms]
[INFO] PISOStep: 3418.3 [ms]
[INFO] MatrixAssemblyPI: 14.271 [ms]
[INFO] AdjustPhi: 0.408 [ms]
[INFO] ConstrainPressure: 0.001 [ms]
[INFO] MatrixAssemblyPII: 4.675 [ms]
[OGL LOG][Proc: 0]: global_index_init: 0.019 [ms]
[OGL LOG][Proc: 0]p_local_coeffs: call_update: 0 [ms]
[OGL LOG][Proc: 0]p_non_local_coeffs: call_update: 0 [ms]
[OGL LOG][Proc: 0]p: update_local_matrix_data: 2.933 [ms]
[OGL LOG][Proc: 0]p: update_non_local_matrix_data: 0.099 [ms]
[OGL LOG][Proc: 0]p_matrix: call_update: 12.46 [ms]
[OGL LOG][Proc: 0]p_rhs: call_update: 0.911 [ms]
[OGL LOG][Proc: 0]p: init_precond: 0.051 [ms]
[OGL LOG][StoppingCriterion.H:372] Creating stopping criterion with minIter 439 frequency 17
[OGL LOG][Proc: 0]p: generate_solver: 0.002 [ms]
[OGL LOG][Proc: 0]p: solve: 3357.45 [ms]
[OGL LOG][Proc: 0]p: copy_x_back: 0.121 [ms]
[OGL LOG][lduLduBase.H:339] 
Statistics:
	Time per iteration: 4586 [mu s]
	Time per residual norm calculation: 2342.000000 [mu s]
	Time per iteration and DOF: 4.586000 [ns]
	Retrieve results bandwidth 2.066000 [GByte/s]
[OGL LOG][Proc: 0]p: solve_multi_gpu: 3374.88 [ms]
nonecudaGKOCG:  Solving for p, Initial residual = 0.164439, Final residual = 6.71527e-05, No Iterations 732
[INFO] SolveP: 3379.96 [ms]
time step continuity errors : sum local = 1.04922e-08, global = 2.13922e-21, cumulative = -1.97599e-20
[INFO] ContinuityError: 3.369 [ms]
[INFO] CorrectBoundary: 0.046 [ms]
[INFO] PISOStep: 3409.09 [ms]
[INFO] TimeStep: 6924.58 [ms]
ExecutionTime = 51.29 s  ClockTime = 59 s

Time = 0.0035

Courant Number mean: 0.0513786 max: 0.466711
[INFO] MatrixAssemblyU: 16.492 [ms]
DILUPBiCGStab:  Solving for Ux, Initial residual = 0.0146521, Final residual = 7.2208e-05, No Iterations 5
DILUPBiCGStab:  Solving for Uy, Initial residual = 0.0317674, Final residual = 0.000141615, No Iterations 5
DILUPBiCGStab:  Solving for Uz, Initial residual = 0.05789, Final residual = 0.000307945, No Iterations 5
[INFO] MomentumPredictor: 83.436 [ms]
[INFO] MatrixAssemblyPI: 15.209 [ms]
[INFO] AdjustPhi: 0.946 [ms]
[INFO] ConstrainPressure: 0.002 [ms]
[INFO] MatrixAssemblyPII: 4.482 [ms]
[OGL LOG][Proc: 0]: global_index_init: 0.02 [ms]
[OGL LOG][Proc: 0]p_local_coeffs: call_update: 0 [ms]
[OGL LOG][Proc: 0]p_non_local_coeffs: call_update: 0 [ms]
[OGL LOG][Proc: 0]p: update_local_matrix_data: 2.962 [ms]
[OGL LOG][Proc: 0]p: update_non_local_matrix_data: 0.067 [ms]
[OGL LOG][Proc: 0]p_matrix: call_update: 12.476 [ms]
[OGL LOG][Proc: 0]p_rhs: call_update: 0.558 [ms]
[OGL LOG][Proc: 0]p: init_precond: 0.06 [ms]
[OGL LOG][StoppingCriterion.H:372] Creating stopping criterion with minIter 439 frequency 17
[OGL LOG][Proc: 0]p: generate_solver: 0.001 [ms]
[OGL LOG][Proc: 0]p: solve: 2090.81 [ms]
[OGL LOG][Proc: 0]p: copy_x_back: 0.074 [ms]
[OGL LOG][lduLduBase.H:339] 
Statistics:
	Time per iteration: 4545 [mu s]
	Time per residual norm calculation: 2500.000000 [mu s]
	Time per iteration and DOF: 4.545000 [ns]
	Retrieve results bandwidth 3.378000 [GByte/s]
[OGL LOG][Proc: 0]p: solve_multi_gpu: 2108.28 [ms]
nonecudaGKOCG:  Solving for p, Initial residual = 0.139386, Final residual = 9.07398e-05, No Iterations 460
[INFO] SolveP: 2112.65 [ms]
time step continuity errors : sum local = 1.47023e-08, global = -7.65142e-23, cumulative = -1.98364e-20
[INFO] ContinuityError: 2.929 [ms]
[INFO] CorrectBoundary: 0.08 [ms]
[INFO] PISOStep: 2143.37 [ms]
[INFO] MatrixAssemblyPI: 13.988 [ms]
[INFO] AdjustPhi: 0.768 [ms]
[INFO] ConstrainPressure: 0.002 [ms]
[INFO] MatrixAssemblyPII: 4.771 [ms]
[OGL LOG][Proc: 0]: global_index_init: 0.02 [ms]
[OGL LOG][Proc: 0]p_local_coeffs: call_update: 0 [ms]
[OGL LOG][Proc: 0]p_non_local_coeffs: call_update: 0 [ms]
[OGL LOG][Proc: 0]p: update_local_matrix_data: 2.744 [ms]
[OGL LOG][Proc: 0]p: update_non_local_matrix_data: 0.14 [ms]
[OGL LOG][Proc: 0]p_matrix: call_update: 11.189 [ms]
[OGL LOG][Proc: 0]p_rhs: call_update: 2.222 [ms]
[OGL LOG][Proc: 0]p: init_precond: 0.049 [ms]
[OGL LOG][StoppingCriterion.H:372] Creating stopping criterion with minIter 276 frequency 13
[OGL LOG][Proc: 0]p: generate_solver: 0.002 [ms]
[OGL LOG][Proc: 0]p: solve: 1550.85 [ms]
[OGL LOG][Proc: 0]p: copy_x_back: 0.082 [ms]
[OGL LOG][lduLduBase.H:339] 
Statistics:
	Time per iteration: 4574 [mu s]
	Time per residual norm calculation: 2347.000000 [mu s]
	Time per iteration and DOF: 4.574000 [ns]
	Retrieve results bandwidth 3.048000 [GByte/s]
[OGL LOG][Proc: 0]p: solve_multi_gpu: 1568.23 [ms]
nonecudaGKOCG:  Solving for p, Initial residual = 0.11655, Final residual = 8.43561e-05, No Iterations 339
[INFO] SolveP: 1573.77 [ms]
time step continuity errors : sum local = 1.28642e-08, global = -8.33405e-21, cumulative = -2.81705e-20
[INFO] ContinuityError: 2.258 [ms]
[INFO] CorrectBoundary: 0.063 [ms]
[INFO] PISOStep: 1602.8 [ms]
[INFO] TimeStep: 3847.91 [ms]
ExecutionTime = 55.13 s  ClockTime = 63 s

Time = 0.004

Courant Number mean: 0.0543189 max: 0.468922
[INFO] MatrixAssemblyU: 16.323 [ms]
DILUPBiCGStab:  Solving for Ux, Initial residual = 0.0122929, Final residual = 5.46152e-05, No Iterations 5
DILUPBiCGStab:  Solving for Uy, Initial residual = 0.0265251, Final residual = 8.83128e-05, No Iterations 5
DILUPBiCGStab:  Solving for Uz, Initial residual = 0.0521504, Final residual = 0.000215881, No Iterations 5
[INFO] MomentumPredictor: 79.491 [ms]
[INFO] MatrixAssemblyPI: 15.793 [ms]
[INFO] AdjustPhi: 0.481 [ms]
[INFO] ConstrainPressure: 0.002 [ms]
[INFO] MatrixAssemblyPII: 4.687 [ms]
[OGL LOG][Proc: 0]: global_index_init: 0.013 [ms]
[OGL LOG][Proc: 0]p_local_coeffs: call_update: 0 [ms]
[OGL LOG][Proc: 0]p_non_local_coeffs: call_update: 0 [ms]
[OGL LOG][Proc: 0]p: update_local_matrix_data: 3.106 [ms]
[OGL LOG][Proc: 0]p: update_non_local_matrix_data: 0.102 [ms]
[OGL LOG][Proc: 0]p_matrix: call_update: 13.042 [ms]
[OGL LOG][Proc: 0]p_rhs: call_update: 0.091 [ms]
[OGL LOG][Proc: 0]p: init_precond: 0.051 [ms]
[OGL LOG][StoppingCriterion.H:372] Creating stopping criterion with minIter 203 frequency 11
[OGL LOG][Proc: 0]p: generate_solver: 0.001 [ms]
[OGL LOG][Proc: 0]p: solve: 1541.49 [ms]
[OGL LOG][Proc: 0]p: copy_x_back: 0.128 [ms]
[OGL LOG][lduLduBase.H:339] 
Statistics:
	Time per iteration: 4657 [mu s]
	Time per residual norm calculation: 2486.000000 [mu s]
	Time per iteration and DOF: 4.657000 [ns]
	Retrieve results bandwidth 1.953000 [GByte/s]
[OGL LOG][Proc: 0]p: solve_multi_gpu: 1559.13 [ms]
nonecudaGKOCG:  Solving for p, Initial residual = 0.0908932, Final residual = 8.35915e-05, No Iterations 331
[INFO] SolveP: 1563.5 [ms]
time step continuity errors : sum local = 1.2162e-08, global = -5.05087e-21, cumulative = -3.32214e-20
[INFO] ContinuityError: 4.179 [ms]
[INFO] CorrectBoundary: 0.159 [ms]
[INFO] PISOStep: 1594.73 [ms]
[INFO] MatrixAssemblyPI: 13.657 [ms]
[INFO] AdjustPhi: 0.905 [ms]
[INFO] ConstrainPressure: 0.002 [ms]
[INFO] MatrixAssemblyPII: 4.7 [ms]
[OGL LOG][Proc: 0]: global_index_init: 0.016 [ms]
[OGL LOG][Proc: 0]p_local_coeffs: call_update: 0 [ms]
[OGL LOG][Proc: 0]p_non_local_coeffs: call_update: 0 [ms]
[OGL LOG][Proc: 0]p: update_local_matrix_data: 2.459 [ms]
[OGL LOG][Proc: 0]p: update_non_local_matrix_data: 0.097 [ms]
[OGL LOG][Proc: 0]p_matrix: call_update: 9.404 [ms]
[OGL LOG][Proc: 0]p_rhs: call_update: 4.149 [ms]
[OGL LOG][Proc: 0]p: init_precond: 0.054 [ms]
[OGL LOG][StoppingCriterion.H:372] Creating stopping criterion with minIter 198 frequency 11
[OGL LOG][Proc: 0]p: generate_solver: 0.002 [ms]
[OGL LOG][Proc: 0]p: solve: 1541.77 [ms]
[OGL LOG][Proc: 0]p: copy_x_back: 0.093 [ms]
[OGL LOG][lduLduBase.H:339] 
Statistics:
	Time per iteration: 4657 [mu s]
	Time per residual norm calculation: 2503.000000 [mu s]
	Time per iteration and DOF: 4.657000 [ns]
	Retrieve results bandwidth 2.688000 [GByte/s]
[OGL LOG][Proc: 0]p: solve_multi_gpu: 1560.12 [ms]
nonecudaGKOCG:  Solving for p, Initial residual = 0.0752523, Final residual = 7.68083e-05, No Iterations 331
[INFO] SolveP: 1564.34 [ms]
time step continuity errors : sum local = 1.11871e-08, global = -2.46107e-21, cumulative = -3.56824e-20
[INFO] ContinuityError: 2.185 [ms]
[INFO] CorrectBoundary: 0.091 [ms]
[INFO] PISOStep: 1593.21 [ms]
[INFO] TimeStep: 3285.57 [ms]
ExecutionTime = 58.39 s  ClockTime = 66 s

Time = 0.0045

Courant Number mean: 0.0568973 max: 0.470627
[INFO] MatrixAssemblyU: 16.427 [ms]
DILUPBiCGStab:  Solving for Ux, Initial residual = 0.0105442, Final residual = 4.26208e-05, No Iterations 5
DILUPBiCGStab:  Solving for Uy, Initial residual = 0.0226755, Final residual = 7.58685e-05, No Iterations 5
DILUPBiCGStab:  Solving for Uz, Initial residual = 0.0436556, Final residual = 0.000164833, No Iterations 5
[INFO] MomentumPredictor: 79.143 [ms]
[INFO] MatrixAssemblyPI: 16.002 [ms]
[INFO] AdjustPhi: 0.261 [ms]
[INFO] ConstrainPressure: 0.002 [ms]
[INFO] MatrixAssemblyPII: 4.696 [ms]
[OGL LOG][Proc: 0]: global_index_init: 0.012 [ms]
[OGL LOG][Proc: 0]p_local_coeffs: call_update: 0 [ms]
[OGL LOG][Proc: 0]p_non_local_coeffs: call_update: 0 [ms]
[OGL LOG][Proc: 0]p: update_local_matrix_data: 3.171 [ms]
[OGL LOG][Proc: 0]p: update_non_local_matrix_data: 0.047 [ms]
[OGL LOG][Proc: 0]p_matrix: call_update: 13.111 [ms]
[OGL LOG][Proc: 0]p_rhs: call_update: 0.144 [ms]
[OGL LOG][Proc: 0]p: init_precond: 0.05 [ms]
[OGL LOG][StoppingCriterion.H:372] Creating stopping criterion with minIter 198 frequency 11
[OGL LOG][Proc: 0]p: generate_solver: 0.001 [ms]
[OGL LOG][Proc: 0]p: solve: 1536.79 [ms]
[OGL LOG][Proc: 0]p: copy_x_back: 0.107 [ms]
[OGL LOG][lduLduBase.H:339] 
Statistics:
	Time per iteration: 4642 [mu s]
	Time per residual norm calculation: 2204.000000 [mu s]
	Time per iteration and DOF: 4.642000 [ns]
	Retrieve results bandwidth 2.336000 [GByte/s]
[OGL LOG][Proc: 0]p: solve_multi_gpu: 1553.97 [ms]
nonecudaGKOCG:  Solving for p, Initial residual = 0.0666401, Final residual = 9.57305e-05, No Iterations 331
[INFO] SolveP: 1558.99 [ms]
time step continuity errors : sum local = 1.53231e-08, global = -4.98862e-21, cumulative = -4.06711e-20
[INFO] ContinuityError: 3.686 [ms]
[INFO] CorrectBoundary: 0.164 [ms]
[INFO] PISOStep: 1590.16 [ms]
[INFO] MatrixAssemblyPI: 13.701 [ms]
[INFO] AdjustPhi: 1.051 [ms]
[INFO] ConstrainPressure: 0.002 [ms]
[INFO] MatrixAssemblyPII: 4.737 [ms]
[OGL LOG][Proc: 0]: global_index_init: 0.019 [ms]
[OGL LOG][Proc: 0]p_local_coeffs: call_update: 0 [ms]
[OGL LOG][Proc: 0]p_non_local_coeffs: call_update: 0 [ms]
[OGL LOG][Proc: 0]p: update_local_matrix_data: 2.859 [ms]
[OGL LOG][Proc: 0]p: update_non_local_matrix_data: 0.12 [ms]
[OGL LOG][Proc: 0]p_matrix: call_update: 12.704 [ms]
[OGL LOG][Proc: 0]p_rhs: call_update: 0.516 [ms]
[OGL LOG][Proc: 0]p: init_precond: 0.051 [ms]
[OGL LOG][StoppingCriterion.H:372] Creating stopping criterion with minIter 198 frequency 8
[OGL LOG][Proc: 0]p: generate_solver: 0.001 [ms]
[OGL LOG][Proc: 0]p: solve: 1503.14 [ms]
[OGL LOG][Proc: 0]p: copy_x_back: 0.085 [ms]
[OGL LOG][lduLduBase.H:339] 
Statistics:
	Time per iteration: 4682 [mu s]
	Time per residual norm calculation: 2197.000000 [mu s]
	Time per iteration and DOF: 4.682000 [ns]
	Retrieve results bandwidth 2.941000 [GByte/s]
[OGL LOG][Proc: 0]p: solve_multi_gpu: 1519.15 [ms]
nonecudaGKOCG:  Solving for p, Initial residual = 0.0555953, Final residual = 9.07215e-05, No Iterations 321
[INFO] SolveP: 1525.32 [ms]
time step continuity errors : sum local = 1.35448e-08, global = 4.86661e-21, cumulative = -3.58044e-20
[INFO] ContinuityError: 3.962 [ms]
[INFO] CorrectBoundary: 0.076 [ms]
[INFO] PISOStep: 1555.1 [ms]
[INFO] TimeStep: 3242.62 [ms]
ExecutionTime = 61.63 s  ClockTime = 70 s

Time = 0.005

Courant Number mean: 0.0591939 max: 0.472024
[INFO] MatrixAssemblyU: 15.649 [ms]
DILUPBiCGStab:  Solving for Ux, Initial residual = 0.00922477, Final residual = 3.56508e-05, No Iterations 5
DILUPBiCGStab:  Solving for Uy, Initial residual = 0.0197417, Final residual = 5.87871e-05, No Iterations 5
DILUPBiCGStab:  Solving for Uz, Initial residual = 0.0388023, Final residual = 0.000136262, No Iterations 5
[INFO] MomentumPredictor: 79.619 [ms]
[INFO] MatrixAssemblyPI: 15.709 [ms]
[INFO] AdjustPhi: 0.533 [ms]
[INFO] ConstrainPressure: 0.001 [ms]
[INFO] MatrixAssemblyPII: 4.605 [ms]
[OGL LOG][Proc: 0]: global_index_init: 0.021 [ms]
[OGL LOG][Proc: 0]p_local_coeffs: call_update: 0 [ms]
[OGL LOG][Proc: 0]p_non_local_coeffs: call_update: 0 [ms]
[OGL LOG][Proc: 0]p: update_local_matrix_data: 3.208 [ms]
[OGL LOG][Proc: 0]p: update_non_local_matrix_data: 0.027 [ms]
[OGL LOG][Proc: 0]p_matrix: call_update: 12.981 [ms]
[OGL LOG][Proc: 0]p_rhs: call_update: 0.153 [ms]
[OGL LOG][Proc: 0]p: init_precond: 0.051 [ms]
[OGL LOG][StoppingCriterion.H:372] Creating stopping criterion with minIter 192 frequency 8
[OGL LOG][Proc: 0]p: generate_solver: 0.001 [ms]
[OGL LOG][Proc: 0]p: solve: 1510.29 [ms]
[OGL LOG][Proc: 0]p: copy_x_back: 0.078 [ms]
[OGL LOG][lduLduBase.H:339] 
Statistics:
	Time per iteration: 4704 [mu s]
	Time per residual norm calculation: 1890.000000 [mu s]
	Time per iteration and DOF: 4.704000 [ns]
	Retrieve results bandwidth 3.205000 [GByte/s]
[OGL LOG][Proc: 0]p: solve_multi_gpu: 1525.61 [ms]
nonecudaGKOCG:  Solving for p, Initial residual = 0.0447534, Final residual = 9.49192e-05, No Iterations 321
[INFO] SolveP: 1533.99 [ms]
time step continuity errors : sum local = 1.40937e-08, global = -8.95082e-21, cumulative = -4.47553e-20
[INFO] ContinuityError: 1.183 [ms]
[INFO] CorrectBoundary: 0.516 [ms]
[INFO] PISOStep: 1563.34 [ms]
[INFO] MatrixAssemblyPI: 13.626 [ms]
[INFO] AdjustPhi: 1.12 [ms]
[INFO] ConstrainPressure: 0.002 [ms]
[INFO] MatrixAssemblyPII: 4.834 [ms]
[OGL LOG][Proc: 0]: global_index_init: 0.021 [ms]
[OGL LOG][Proc: 0]p_local_coeffs: call_update: 0 [ms]
[OGL LOG][Proc: 0]p_non_local_coeffs: call_update: 0 [ms]
[OGL LOG][Proc: 0]p: update_local_matrix_data: 2.678 [ms]
[OGL LOG][Proc: 0]p: update_non_local_matrix_data: 0.146 [ms]
[OGL LOG][Proc: 0]p_matrix: call_update: 12.032 [ms]
[OGL LOG][Proc: 0]p_rhs: call_update: 2.093 [ms]
[OGL LOG][Proc: 0]p: init_precond: 0.054 [ms]
[OGL LOG][StoppingCriterion.H:372] Creating stopping criterion with minIter 192 frequency 8
[OGL LOG][Proc: 0]p: generate_solver: 0.001 [ms]
[OGL LOG][Proc: 0]p: solve: 1503.91 [ms]
[OGL LOG][Proc: 0]p: copy_x_back: 0.093 [ms]
[OGL LOG][lduLduBase.H:339] 
Statistics:
	Time per iteration: 4685 [mu s]
	Time per residual norm calculation: 2347.000000 [mu s]
	Time per iteration and DOF: 4.685000 [ns]
	Retrieve results bandwidth 2.688000 [GByte/s]
[OGL LOG][Proc: 0]p: solve_multi_gpu: 1522.64 [ms]
nonecudaGKOCG:  Solving for p, Initial residual = 0.0378101, Final residual = 8.31873e-05, No Iterations 321
[INFO] SolveP: 1526.4 [ms]
time step continuity errors : sum local = 1.18396e-08, global = -2.04608e-21, cumulative = -4.68013e-20
[INFO] ContinuityError: 3.919 [ms]
[INFO] CorrectBoundary: 0.146 [ms]
[INFO] PISOStep: 1555.99 [ms]
[INFO] TimeStep: 3216.34 [ms]
ExecutionTime = 64.83 s  ClockTime = 73 s

Time = 0.0055

Courant Number mean: 0.0612547 max: 0.473173
[INFO] MatrixAssemblyU: 15.932 [ms]
DILUPBiCGStab:  Solving for Ux, Initial residual = 0.00815155, Final residual = 2.98404e-05, No Iterations 5
DILUPBiCGStab:  Solving for Uy, Initial residual = 0.0174475, Final residual = 5.25131e-05, No Iterations 5
DILUPBiCGStab:  Solving for Uz, Initial residual = 0.0348751, Final residual = 0.000120858, No Iterations 5
[INFO] MomentumPredictor: 79.822 [ms]
[INFO] MatrixAssemblyPI: 15.75 [ms]
[INFO] AdjustPhi: 0.379 [ms]
[INFO] ConstrainPressure: 0.001 [ms]
[INFO] MatrixAssemblyPII: 4.765 [ms]
[OGL LOG][Proc: 0]: global_index_init: 0.02 [ms]
[OGL LOG][Proc: 0]p_local_coeffs: call_update: 0 [ms]
[OGL LOG][Proc: 0]p_non_local_coeffs: call_update: 0 [ms]
[OGL LOG][Proc: 0]p: update_local_matrix_data: 3.047 [ms]
[OGL LOG][Proc: 0]p: update_non_local_matrix_data: 0.095 [ms]
[OGL LOG][Proc: 0]p_matrix: call_update: 12.822 [ms]
[OGL LOG][Proc: 0]p_rhs: call_update: 0.38 [ms]
[OGL LOG][Proc: 0]p: init_precond: 0.051 [ms]
[OGL LOG][StoppingCriterion.H:372] Creating stopping criterion with minIter 192 frequency 11
[OGL LOG][Proc: 0]p: generate_solver: 0.001 [ms]
[OGL LOG][Proc: 0]p: solve: 1588.16 [ms]
[OGL LOG][Proc: 0]p: copy_x_back: 0.083 [ms]
[OGL LOG][lduLduBase.H:339] 
Statistics:
	Time per iteration: 4643 [mu s]
	Time per residual norm calculation: 2500.000000 [mu s]
	Time per iteration and DOF: 4.643000 [ns]
	Retrieve results bandwidth 3.012000 [GByte/s]
[OGL LOG][Proc: 0]p: solve_multi_gpu: 1605.84 [ms]
nonecudaGKOCG:  Solving for p, Initial residual = 0.0350482, Final residual = 9.63054e-05, No Iterations 342
[INFO] SolveP: 1611.86 [ms]
time step continuity errors : sum local = 1.58896e-08, global = -2.21478e-21, cumulative = -4.90161e-20
[INFO] ContinuityError: 0.804 [ms]
[INFO] CorrectBoundary: 0.221 [ms]
[INFO] PISOStep: 1641.35 [ms]
[INFO] MatrixAssemblyPI: 13.789 [ms]
[INFO] AdjustPhi: 0.967 [ms]
[INFO] ConstrainPressure: 0.002 [ms]
[INFO] MatrixAssemblyPII: 4.775 [ms]
[OGL LOG][Proc: 0]: global_index_init: 0.017 [ms]
[OGL LOG][Proc: 0]p_local_coeffs: call_update: 0 [ms]
[OGL LOG][Proc: 0]p_non_local_coeffs: call_update: 0 [ms]
[OGL LOG][Proc: 0]p: update_local_matrix_data: 2.38 [ms]
[OGL LOG][Proc: 0]p: update_non_local_matrix_data: 0.126 [ms]
[OGL LOG][Proc: 0]p_matrix: call_update: 10.102 [ms]
[OGL LOG][Proc: 0]p_rhs: call_update: 3.611 [ms]
[OGL LOG][Proc: 0]p: init_precond: 0.053 [ms]
[OGL LOG][StoppingCriterion.H:372] Creating stopping criterion with minIter 205 frequency 11
[OGL LOG][Proc: 0]p: generate_solver: 0.001 [ms]
[OGL LOG][Proc: 0]p: solve: 1494.24 [ms]
[OGL LOG][Proc: 0]p: copy_x_back: 0.1 [ms]
[OGL LOG][lduLduBase.H:339] 
Statistics:
	Time per iteration: 4669 [mu s]
	Time per residual norm calculation: 2497.000000 [mu s]
	Time per iteration and DOF: 4.669000 [ns]
	Retrieve results bandwidth 2.500000 [GByte/s]
[OGL LOG][Proc: 0]p: solve_multi_gpu: 1512.48 [ms]
nonecudaGKOCG:  Solving for p, Initial residual = 0.0298069, Final residual = 8.69046e-05, No Iterations 320
[INFO] SolveP: 1515.91 [ms]
time step continuity errors : sum local = 1.30854e-08, global = -1.67339e-21, cumulative = -5.06895e-20
[INFO] ContinuityError: 3.965 [ms]
[INFO] CorrectBoundary: 0.087 [ms]
[INFO] PISOStep: 1545.73 [ms]
[INFO] TimeStep: 3284.7 [ms]
ExecutionTime = 68.11 s  ClockTime = 76 s

Time = 0.006

Courant Number mean: 0.0631274 max: 0.474153
[INFO] MatrixAssemblyU: 15.874 [ms]
DILUPBiCGStab:  Solving for Ux, Initial residual = 0.00729079, Final residual = 2.61116e-05, No Iterations 5
DILUPBiCGStab:  Solving for Uy, Initial residual = 0.0155938, Final residual = 4.56997e-05, No Iterations 5
DILUPBiCGStab:  Solving for Uz, Initial residual = 0.0314708, Final residual = 0.000113703, No Iterations 5
[INFO] MomentumPredictor: 79.171 [ms]
[INFO] MatrixAssemblyPI: 15.851 [ms]
[INFO] AdjustPhi: 0.328 [ms]
[INFO] ConstrainPressure: 0.001 [ms]
[INFO] MatrixAssemblyPII: 4.671 [ms]
[OGL LOG][Proc: 0]: global_index_init: 0.019 [ms]
[OGL LOG][Proc: 0]p_local_coeffs: call_update: 0 [ms]
[OGL LOG][Proc: 0]p_non_local_coeffs: call_update: 0 [ms]
[OGL LOG][Proc: 0]p: update_local_matrix_data: 3.114 [ms]
[OGL LOG][Proc: 0]p: update_non_local_matrix_data: 0.07 [ms]
[OGL LOG][Proc: 0]p_matrix: call_update: 13.149 [ms]
[OGL LOG][Proc: 0]p_rhs: call_update: 0.153 [ms]
[OGL LOG][Proc: 0]p: init_precond: 0.05 [ms]
[OGL LOG][StoppingCriterion.H:372] Creating stopping criterion with minIter 192 frequency 11
[OGL LOG][Proc: 0]p: generate_solver: 0.001 [ms]
[OGL LOG][Proc: 0]p: solve: 1539.05 [ms]
[OGL LOG][Proc: 0]p: copy_x_back: 0.098 [ms]
[OGL LOG][lduLduBase.H:339] 
Statistics:
	Time per iteration: 4649 [mu s]
	Time per residual norm calculation: 2194.000000 [mu s]
	Time per iteration and DOF: 4.649000 [ns]
	Retrieve results bandwidth 2.551000 [GByte/s]
[OGL LOG][Proc: 0]p: solve_multi_gpu: 1557.21 [ms]
nonecudaGKOCG:  Solving for p, Initial residual = 0.0252965, Final residual = 9.2884e-05, No Iterations 331
[INFO] SolveP: 1562.18 [ms]
time step continuity errors : sum local = 1.47e-08, global = -6.86353e-22, cumulative = -5.13759e-20
[INFO] ContinuityError: 1.657 [ms]
[INFO] CorrectBoundary: 0.082 [ms]
[INFO] PISOStep: 1592.78 [ms]
[INFO] MatrixAssemblyPI: 14.115 [ms]
[INFO] AdjustPhi: 0.888 [ms]
[INFO] ConstrainPressure: 0.002 [ms]
[INFO] MatrixAssemblyPII: 4.626 [ms]
[OGL LOG][Proc: 0]: global_index_init: 0.015 [ms]
[OGL LOG][Proc: 0]p_local_coeffs: call_update: 0 [ms]
[OGL LOG][Proc: 0]p_non_local_coeffs: call_update: 0 [ms]
[OGL LOG][Proc: 0]p: update_local_matrix_data: 2.586 [ms]
[OGL LOG][Proc: 0]p: update_non_local_matrix_data: 0.154 [ms]
[OGL LOG][Proc: 0]p_matrix: call_update: 11.83 [ms]
[OGL LOG][Proc: 0]p_rhs: call_update: 2.014 [ms]
[OGL LOG][Proc: 0]p: init_precond: 0.053 [ms]
[OGL LOG][StoppingCriterion.H:372] Creating stopping criterion with minIter 198 frequency 8
[OGL LOG][Proc: 0]p: generate_solver: 0.001 [ms]
[OGL LOG][Proc: 0]p: solve: 1497.19 [ms]
[OGL LOG][Proc: 0]p: copy_x_back: 0.076 [ms]
[OGL LOG][lduLduBase.H:339] 
Statistics:
	Time per iteration: 4664 [mu s]
	Time per residual norm calculation: 2499.000000 [mu s]
	Time per iteration and DOF: 4.664000 [ns]
	Retrieve results bandwidth 3.289000 [GByte/s]
[OGL LOG][Proc: 0]p: solve_multi_gpu: 1514.88 [ms]
nonecudaGKOCG:  Solving for p, Initial residual = 0.0221101, Final residual = 8.01132e-05, No Iterations 321
[INFO] SolveP: 1519.73 [ms]
time step continuity errors : sum local = 1.155e-08, global = 2.37245e-21, cumulative = -4.90034e-20
[INFO] ContinuityError: 3.486 [ms]
[INFO] CorrectBoundary: 0.038 [ms]
[INFO] PISOStep: 1549.39 [ms]
[INFO] TimeStep: 3239.03 [ms]
ExecutionTime = 71.33 s  ClockTime = 79 s

Time = 0.0065

Courant Number mean: 0.0648322 max: 0.47499
[INFO] MatrixAssemblyU: 15.712 [ms]
DILUPBiCGStab:  Solving for Ux, Initial residual = 0.00657306, Final residual = 2.28754e-05, No Iterations 5
DILUPBiCGStab:  Solving for Uy, Initial residual = 0.0140486, Final residual = 4.12115e-05, No Iterations 5
DILUPBiCGStab:  Solving for Uz, Initial residual = 0.0291226, Final residual = 0.000108273, No Iterations 5
[INFO] MomentumPredictor: 79.259 [ms]
[INFO] MatrixAssemblyPI: 15.979 [ms]
[INFO] AdjustPhi: 0.302 [ms]
[INFO] ConstrainPressure: 0.001 [ms]
[INFO] MatrixAssemblyPII: 4.758 [ms]
[OGL LOG][Proc: 0]: global_index_init: 0.018 [ms]
[OGL LOG][Proc: 0]p_local_coeffs: call_update: 0 [ms]
[OGL LOG][Proc: 0]p_non_local_coeffs: call_update: 0 [ms]
[OGL LOG][Proc: 0]p: update_local_matrix_data: 2.856 [ms]
[OGL LOG][Proc: 0]p: update_non_local_matrix_data: 0.092 [ms]
[OGL LOG][Proc: 0]p_matrix: call_update: 11.003 [ms]
[OGL LOG][Proc: 0]p_rhs: call_update: 2.198 [ms]
[OGL LOG][Proc: 0]p: init_precond: 0.056 [ms]
[OGL LOG][StoppingCriterion.H:372] Creating stopping criterion with minIter 192 frequency 11
[OGL LOG][Proc: 0]p: generate_solver: 0.001 [ms]
[OGL LOG][Proc: 0]p: solve: 3256.67 [ms]
[OGL LOG][Proc: 0]p: copy_x_back: 0.085 [ms]
[OGL LOG][lduLduBase.H:339] 
Statistics:
	Time per iteration: 4692 [mu s]
	Time per residual norm calculation: 2197.000000 [mu s]
	Time per iteration and DOF: 4.692000 [ns]
	Retrieve results bandwidth 2.941000 [GByte/s]
[OGL LOG][Proc: 0]p: solve_multi_gpu: 3274.74 [ms]
nonecudaGKOCG:  Solving for p, Initial residual = 0.0209439, Final residual = 9.96538e-05, No Iterations 694
[INFO] SolveP: 3279.19 [ms]
time step continuity errors : sum local = 1.39525e-08, global = -1.161e-20, cumulative = -6.06134e-20
[INFO] ContinuityError: 3.014 [ms]
[INFO] CorrectBoundary: 0.156 [ms]
[INFO] PISOStep: 3310.09 [ms]
[INFO] MatrixAssemblyPI: 13.633 [ms]
[INFO] AdjustPhi: 1.21 [ms]
[INFO] ConstrainPressure: 0.001 [ms]
[INFO] MatrixAssemblyPII: 4.748 [ms]
[OGL LOG][Proc: 0]: global_index_init: 0.02 [ms]
[OGL LOG][Proc: 0]p_local_coeffs: call_update: 0 [ms]
[OGL LOG][Proc: 0]p_non_local_coeffs: call_update: 0 [ms]
[OGL LOG][Proc: 0]p: update_local_matrix_data: 2.765 [ms]
[OGL LOG][Proc: 0]p: update_non_local_matrix_data: 0.121 [ms]
[OGL LOG][Proc: 0]p_matrix: call_update: 11.539 [ms]
[OGL LOG][Proc: 0]p_rhs: call_update: 1.85 [ms]
[OGL LOG][Proc: 0]p: init_precond: 0.051 [ms]
[OGL LOG][StoppingCriterion.H:372] Creating stopping criterion with minIter 416 frequency 11
[OGL LOG][Proc: 0]p: generate_solver: 0.001 [ms]
[OGL LOG][Proc: 0]p: solve: 3208.99 [ms]
[OGL LOG][Proc: 0]p: copy_x_back: 0.087 [ms]
[OGL LOG][lduLduBase.H:339] 
Statistics:
	Time per iteration: 4623 [mu s]
	Time per residual norm calculation: 2348.000000 [mu s]
	Time per iteration and DOF: 4.623000 [ns]
	Retrieve results bandwidth 2.873000 [GByte/s]
[OGL LOG][Proc: 0]p: solve_multi_gpu: 3226.79 [ms]
nonecudaGKOCG:  Solving for p, Initial residual = 0.0184803, Final residual = 8.78206e-05, No Iterations 694
[INFO] SolveP: 3231.62 [ms]
time step continuity errors : sum local = 1.23008e-08, global = -4.95092e-21, cumulative = -6.55643e-20
[INFO] ContinuityError: 2.233 [ms]
[INFO] CorrectBoundary: 0.089 [ms]
[INFO] PISOStep: 3261.2 [ms]
[INFO] TimeStep: 6668.03 [ms]
ExecutionTime = 77.97 s  ClockTime = 86 s

Time = 0.007

Courant Number mean: 0.0664007 max: 0.475723
[INFO] MatrixAssemblyU: 15.827 [ms]
DILUPBiCGStab:  Solving for Ux, Initial residual = 0.00596717, Final residual = 2.05697e-05, No Iterations 5
DILUPBiCGStab:  Solving for Uy, Initial residual = 0.0127561, Final residual = 3.69757e-05, No Iterations 5
DILUPBiCGStab:  Solving for Uz, Initial residual = 0.0260181, Final residual = 8.59108e-05, No Iterations 5
[INFO] MomentumPredictor: 79.566 [ms]
[INFO] MatrixAssemblyPI: 15.848 [ms]
[INFO] AdjustPhi: 0.381 [ms]
[INFO] ConstrainPressure: 0.002 [ms]
[INFO] MatrixAssemblyPII: 4.666 [ms]
[OGL LOG][Proc: 0]: global_index_init: 0.021 [ms]
[OGL LOG][Proc: 0]p_local_coeffs: call_update: 0 [ms]
[OGL LOG][Proc: 0]p_non_local_coeffs: call_update: 0 [ms]
[OGL LOG][Proc: 0]p: update_local_matrix_data: 2.923 [ms]
[OGL LOG][Proc: 0]p: update_non_local_matrix_data: 0.085 [ms]
[OGL LOG][Proc: 0]p_matrix: call_update: 13.385 [ms]
[OGL LOG][Proc: 0]p_rhs: call_update: 0.151 [ms]
[OGL LOG][Proc: 0]p: init_precond: 0.057 [ms]
[OGL LOG][StoppingCriterion.H:372] Creating stopping criterion with minIter 416 frequency 16
[OGL LOG][Proc: 0]p: generate_solver: 0.002 [ms]
[OGL LOG][Proc: 0]p: solve: 3234.33 [ms]
[OGL LOG][Proc: 0]p: copy_x_back: 0.133 [ms]
[OGL LOG][lduLduBase.H:339] 
Statistics:
	Time per iteration: 4587 [mu s]
	Time per residual norm calculation: 2033.000000 [mu s]
	Time per iteration and DOF: 4.587000 [ns]
	Retrieve results bandwidth 1.879000 [GByte/s]
[OGL LOG][Proc: 0]p: solve_multi_gpu: 3250.86 [ms]
nonecudaGKOCG:  Solving for p, Initial residual = 0.0165033, Final residual = 5.09246e-05, No Iterations 705
[INFO] SolveP: 3256.47 [ms]
time step continuity errors : sum local = 7.12576e-09, global = 8.23075e-21, cumulative = -5.73336e-20
[INFO] ContinuityError: 4.571 [ms]
[INFO] CorrectBoundary: 0.065 [ms]
[INFO] PISOStep: 3288.04 [ms]
[INFO] MatrixAssemblyPI: 13.834 [ms]
[INFO] AdjustPhi: 0.94 [ms]
[INFO] ConstrainPressure: 0.002 [ms]
[INFO] MatrixAssemblyPII: 4.663 [ms]
[OGL LOG][Proc: 0]: global_index_init: 0.02 [ms]
[OGL LOG][Proc: 0]p_local_coeffs: call_update: 0 [ms]
[OGL LOG][Proc: 0]p_non_local_coeffs: call_update: 0 [ms]
[OGL LOG][Proc: 0]p: update_local_matrix_data: 3.035 [ms]
[OGL LOG][Proc: 0]p: update_non_local_matrix_data: 0.075 [ms]
[OGL LOG][Proc: 0]p_matrix: call_update: 12.035 [ms]
[OGL LOG][Proc: 0]p_rhs: call_update: 1.095 [ms]
[OGL LOG][Proc: 0]p: init_precond: 0.052 [ms]
[OGL LOG][StoppingCriterion.H:372] Creating stopping criterion with minIter 423 frequency 11
[OGL LOG][Proc: 0]p: generate_solver: 0.001 [ms]
[OGL LOG][Proc: 0]p: solve: 3205.3 [ms]
[OGL LOG][Proc: 0]p: copy_x_back: 0.132 [ms]
[OGL LOG][lduLduBase.H:339] 
Statistics:
	Time per iteration: 4618 [mu s]
	Time per residual norm calculation: 2346.000000 [mu s]
	Time per iteration and DOF: 4.618000 [ns]
	Retrieve results bandwidth 1.893000 [GByte/s]
[OGL LOG][Proc: 0]p: solve_multi_gpu: 3223.08 [ms]
nonecudaGKOCG:  Solving for p, Initial residual = 0.0149698, Final residual = 7.9142e-05, No Iterations 694
[INFO] SolveP: 3228.7 [ms]
time step continuity errors : sum local = 1.10796e-08, global = 5.78411e-21, cumulative = -5.15494e-20
[INFO] ContinuityError: 1.34 [ms]
[INFO] CorrectBoundary: 0.147 [ms]
[INFO] PISOStep: 3257.31 [ms]
[INFO] TimeStep: 6642.55 [ms]
ExecutionTime = 84.58 s  ClockTime = 93 s

Time = 0.0075

Courant Number mean: 0.0678482 max: 0.476363
[INFO] MatrixAssemblyU: 16.401 [ms]
DILUPBiCGStab:  Solving for Ux, Initial residual = 0.00543966, Final residual = 1.84995e-05, No Iterations 5
DILUPBiCGStab:  Solving for Uy, Initial residual = 0.0116606, Final residual = 3.35669e-05, No Iterations 5
DILUPBiCGStab:  Solving for Uz, Initial residual = 0.0237725, Final residual = 7.82528e-05, No Iterations 5
[INFO] MomentumPredictor: 79.38 [ms]
[INFO] MatrixAssemblyPI: 15.704 [ms]
[INFO] AdjustPhi: 0.426 [ms]
[INFO] ConstrainPressure: 0.002 [ms]
[INFO] MatrixAssemblyPII: 4.786 [ms]
[OGL LOG][Proc: 0]: global_index_init: 0.019 [ms]
[OGL LOG][Proc: 0]p_local_coeffs: call_update: 0 [ms]
[OGL LOG][Proc: 0]p_non_local_coeffs: call_update: 0 [ms]
[OGL LOG][Proc: 0]p: update_local_matrix_data: 3.126 [ms]
[OGL LOG][Proc: 0]p: update_non_local_matrix_data: 0.039 [ms]
[OGL LOG][Proc: 0]p_matrix: call_update: 12.989 [ms]
[OGL LOG][Proc: 0]p_rhs: call_update: 0.051 [ms]
[OGL LOG][Proc: 0]p: init_precond: 0.051 [ms]
[OGL LOG][StoppingCriterion.H:372] Creating stopping criterion with minIter 416 frequency 16
[OGL LOG][Proc: 0]p: generate_solver: 0.002 [ms]
[OGL LOG][Proc: 0]p: solve: 3159.38 [ms]
[OGL LOG][Proc: 0]p: copy_x_back: 0.087 [ms]
[OGL LOG][lduLduBase.H:339] 
Statistics:
	Time per iteration: 4585 [mu s]
	Time per residual norm calculation: 2035.000000 [mu s]
	Time per iteration and DOF: 4.585000 [ns]
	Retrieve results bandwidth 2.873000 [GByte/s]
[OGL LOG][Proc: 0]p: solve_multi_gpu: 3174.64 [ms]
nonecudaGKOCG:  Solving for p, Initial residual = 0.014035, Final residual = 8.35192e-05, No Iterations 689
[INFO] SolveP: 3180.44 [ms]
time step continuity errors : sum local = 1.16714e-08, global = -6.62143e-21, cumulative = -5.81709e-20
[INFO] ContinuityError: 5.384 [ms]
[INFO] CorrectBoundary: 0.086 [ms]
[INFO] PISOStep: 3212.33 [ms]
[INFO] MatrixAssemblyPI: 13.994 [ms]
[INFO] AdjustPhi: 0.985 [ms]
[INFO] ConstrainPressure: 0.002 [ms]
[INFO] MatrixAssemblyPII: 4.76 [ms]
[OGL LOG][Proc: 0]: global_index_init: 0.019 [ms]
[OGL LOG][Proc: 0]p_local_coeffs: call_update: 0 [ms]
[OGL LOG][Proc: 0]p_non_local_coeffs: call_update: 0 [ms]
[OGL LOG][Proc: 0]p: update_local_matrix_data: 2.476 [ms]
[OGL LOG][Proc: 0]p: update_non_local_matrix_data: 0.09 [ms]
[OGL LOG][Proc: 0]p_matrix: call_update: 9.31 [ms]
[OGL LOG][Proc: 0]p_rhs: call_update: 4.325 [ms]
[OGL LOG][Proc: 0]p: init_precond: 0.042 [ms]
[OGL LOG][StoppingCriterion.H:372] Creating stopping criterion with minIter 413 frequency 11
[OGL LOG][Proc: 0]p: generate_solver: 0.001 [ms]
[OGL LOG][Proc: 0]p: solve: 3210.42 [ms]
[OGL LOG][Proc: 0]p: copy_x_back: 0.123 [ms]
[OGL LOG][lduLduBase.H:339] 
Statistics:
	Time per iteration: 4625 [mu s]
	Time per residual norm calculation: 2351.000000 [mu s]
	Time per iteration and DOF: 4.625000 [ns]
	Retrieve results bandwidth 2.032000 [GByte/s]
[OGL LOG][Proc: 0]p: solve_multi_gpu: 3227.73 [ms]
nonecudaGKOCG:  Solving for p, Initial residual = 0.0128135, Final residual = 5.71424e-05, No Iterations 694
[INFO] SolveP: 3234.15 [ms]
time step continuity errors : sum local = 7.98793e-09, global = -1.48717e-20, cumulative = -7.30426e-20
[INFO] ContinuityError: 1.401 [ms]
[INFO] CorrectBoundary: 0.06 [ms]
[INFO] PISOStep: 3262.33 [ms]
[INFO] TimeStep: 6572.26 [ms]
ExecutionTime = 91.13 s  ClockTime = 99 s

Time = 0.008

Courant Number mean: 0.0691859 max: 0.476933
[INFO] MatrixAssemblyU: 16.429 [ms]
DILUPBiCGStab:  Solving for Ux, Initial residual = 0.00499446, Final residual = 1.69183e-05, No Iterations 5
DILUPBiCGStab:  Solving for Uy, Initial residual = 0.0107056, Final residual = 3.06794e-05, No Iterations 5
DILUPBiCGStab:  Solving for Uz, Initial residual = 0.0218165, Final residual = 7.1999e-05, No Iterations 5
[INFO] MomentumPredictor: 79.069 [ms]
[INFO] MatrixAssemblyPI: 15.639 [ms]
[INFO] AdjustPhi: 0.389 [ms]
[INFO] ConstrainPressure: 0.002 [ms]
[INFO] MatrixAssemblyPII: 4.71 [ms]
[OGL LOG][Proc: 0]: global_index_init: 0.022 [ms]
[OGL LOG][Proc: 0]p_local_coeffs: call_update: 0 [ms]
[OGL LOG][Proc: 0]p_non_local_coeffs: call_update: 0 [ms]
[OGL LOG][Proc: 0]p: update_local_matrix_data: 3.123 [ms]
[OGL LOG][Proc: 0]p: update_non_local_matrix_data: 0.062 [ms]
[OGL LOG][Proc: 0]p_matrix: call_update: 13.068 [ms]
[OGL LOG][Proc: 0]p_rhs: call_update: 0.05 [ms]
[OGL LOG][Proc: 0]p: init_precond: 0.048 [ms]
[OGL LOG][StoppingCriterion.H:372] Creating stopping criterion with minIter 416 frequency 16
[OGL LOG][Proc: 0]p: generate_solver: 0.002 [ms]
[OGL LOG][Proc: 0]p: solve: 1898.42 [ms]
[OGL LOG][Proc: 0]p: copy_x_back: 0.274 [ms]
[OGL LOG][lduLduBase.H:339] 
Statistics:
	Time per iteration: 4552 [mu s]
	Time per residual norm calculation: 2351.000000 [mu s]
	Time per iteration and DOF: 4.552000 [ns]
	Retrieve results bandwidth 0.912000 [GByte/s]
[OGL LOG][Proc: 0]p: solve_multi_gpu: 1916.61 [ms]
nonecudaGKOCG:  Solving for p, Initial residual = 0.0119832, Final residual = 1.06754e-05, No Iterations 417
[INFO] SolveP: 1921.76 [ms]
time step continuity errors : sum local = 1.62108e-09, global = -1.60432e-20, cumulative = -8.90858e-20
[INFO] ContinuityError: 1.874 [ms]
[INFO] CorrectBoundary: 0.079 [ms]
[INFO] PISOStep: 1951.8 [ms]
[INFO] MatrixAssemblyPI: 12.965 [ms]
[INFO] AdjustPhi: 1.789 [ms]
[INFO] ConstrainPressure: 0.002 [ms]
[INFO] MatrixAssemblyPII: 4.765 [ms]
[OGL LOG][Proc: 0]: global_index_init: 0.02 [ms]
[OGL LOG][Proc: 0]p_local_coeffs: call_update: 0 [ms]
[OGL LOG][Proc: 0]p_non_local_coeffs: call_update: 0 [ms]
[OGL LOG][Proc: 0]p: update_local_matrix_data: 2.486 [ms]
[OGL LOG][Proc: 0]p: update_non_local_matrix_data: 0.13 [ms]
[OGL LOG][Proc: 0]p_matrix: call_update: 11.747 [ms]
[OGL LOG][Proc: 0]p_rhs: call_update: 1.758 [ms]
[OGL LOG][Proc: 0]p: init_precond: 0.051 [ms]
[OGL LOG][StoppingCriterion.H:372] Creating stopping criterion with minIter 250 frequency 12
[OGL LOG][Proc: 0]p: generate_solver: 0.002 [ms]
[OGL LOG][Proc: 0]p: solve: 1386.84 [ms]
[OGL LOG][Proc: 0]p: copy_x_back: 0.221 [ms]
[OGL LOG][lduLduBase.H:339] 
Statistics:
	Time per iteration: 4607 [mu s]
	Time per residual norm calculation: 2037.000000 [mu s]
	Time per iteration and DOF: 4.607000 [ns]
	Retrieve results bandwidth 1.131000 [GByte/s]
[OGL LOG][Proc: 0]p: solve_multi_gpu: 1405.05 [ms]
nonecudaGKOCG:  Solving for p, Initial residual = 0.011147, Final residual = 7.96157e-05, No Iterations 301
[INFO] SolveP: 1408.5 [ms]
time step continuity errors : sum local = 1.11601e-08, global = -1.83955e-21, cumulative = -9.09254e-20
[INFO] ContinuityError: 4.822 [ms]
[INFO] CorrectBoundary: 0.079 [ms]
[INFO] PISOStep: 1438.77 [ms]
[INFO] TimeStep: 3487.86 [ms]
ExecutionTime = 94.6 s  ClockTime = 103 s

Time = 0.0085

Courant Number mean: 0.0704319 max: 0.477442
[INFO] MatrixAssemblyU: 16.344 [ms]
DILUPBiCGStab:  Solving for Ux, Initial residual = 0.0045993, Final residual = 1.54932e-05, No Iterations 5
DILUPBiCGStab:  Solving for Uy, Initial residual = 0.00988575, Final residual = 2.81912e-05, No Iterations 5
DILUPBiCGStab:  Solving for Uz, Initial residual = 0.0201392, Final residual = 6.62014e-05, No Iterations 5
[INFO] MomentumPredictor: 79.296 [ms]
[INFO] MatrixAssemblyPI: 15.212 [ms]
[INFO] AdjustPhi: 0.989 [ms]
[INFO] ConstrainPressure: 0.002 [ms]
[INFO] MatrixAssemblyPII: 4.681 [ms]
[OGL LOG][Proc: 0]: global_index_init: 0.021 [ms]
[OGL LOG][Proc: 0]p_local_coeffs: call_update: 0 [ms]
[OGL LOG][Proc: 0]p_non_local_coeffs: call_update: 0 [ms]
[OGL LOG][Proc: 0]p: update_local_matrix_data: 2.978 [ms]
[OGL LOG][Proc: 0]p: update_non_local_matrix_data: 0.097 [ms]
[OGL LOG][Proc: 0]p_matrix: call_update: 12.72 [ms]
[OGL LOG][Proc: 0]p_rhs: call_update: 0.509 [ms]
[OGL LOG][Proc: 0]p: init_precond: 0.049 [ms]
[OGL LOG][StoppingCriterion.H:372] Creating stopping criterion with minIter 180 frequency 7
[OGL LOG][Proc: 0]p: generate_solver: 0.002 [ms]
[OGL LOG][Proc: 0]p: solve: 1383.44 [ms]
[OGL LOG][Proc: 0]p: copy_x_back: 0.088 [ms]
[OGL LOG][lduLduBase.H:339] 
Statistics:
	Time per iteration: 4689 [mu s]
	Time per residual norm calculation: 2192.000000 [mu s]
	Time per iteration and DOF: 4.689000 [ns]
	Retrieve results bandwidth 2.840000 [GByte/s]
[OGL LOG][Proc: 0]p: solve_multi_gpu: 1400.48 [ms]
nonecudaGKOCG:  Solving for p, Initial residual = 0.0106091, Final residual = 9.03888e-05, No Iterations 295
[INFO] SolveP: 1405.95 [ms]
time step continuity errors : sum local = 1.28761e-08, global = -1.15486e-21, cumulative = -9.20802e-20
[INFO] ContinuityError: 2.8 [ms]
[INFO] CorrectBoundary: 0.054 [ms]
[INFO] PISOStep: 1436.88 [ms]
[INFO] MatrixAssemblyPI: 13.448 [ms]
[INFO] AdjustPhi: 1.135 [ms]
[INFO] ConstrainPressure: 0.002 [ms]
[INFO] MatrixAssemblyPII: 4.58 [ms]
[OGL LOG][Proc: 0]: global_index_init: 0.018 [ms]
[OGL LOG][Proc: 0]p_local_coeffs: call_update: 0 [ms]
[OGL LOG][Proc: 0]p_non_local_coeffs: call_update: 0 [ms]
[OGL LOG][Proc: 0]p: update_local_matrix_data: 2.609 [ms]
[OGL LOG][Proc: 0]p: update_non_local_matrix_data: 0.119 [ms]
[OGL LOG][Proc: 0]p_matrix: call_update: 10.998 [ms]
[OGL LOG][Proc: 0]p_rhs: call_update: 2.104 [ms]
[OGL LOG][Proc: 0]p: init_precond: 0.051 [ms]
[OGL LOG][StoppingCriterion.H:372] Creating stopping criterion with minIter 177 frequency 7
[OGL LOG][Proc: 0]p: generate_solver: 0.001 [ms]
[OGL LOG][Proc: 0]p: solve: 1388.54 [ms]
[OGL LOG][Proc: 0]p: copy_x_back: 0.077 [ms]
[OGL LOG][lduLduBase.H:339] 
Statistics:
	Time per iteration: 4706 [mu s]
	Time per residual norm calculation: 2351.000000 [mu s]
	Time per iteration and DOF: 4.706000 [ns]
	Retrieve results bandwidth 3.246000 [GByte/s]
[OGL LOG][Proc: 0]p: solve_multi_gpu: 1406.17 [ms]
nonecudaGKOCG:  Solving for p, Initial residual = 0.00993345, Final residual = 8.41081e-05, No Iterations 295
[INFO] SolveP: 1411.3 [ms]
time step continuity errors : sum local = 1.18288e-08, global = -1.00799e-20, cumulative = -1.0216e-19
[INFO] ContinuityError: 1.188 [ms]
[INFO] CorrectBoundary: 0.35 [ms]
[INFO] PISOStep: 1439.78 [ms]
[INFO] TimeStep: 2974.14 [ms]
ExecutionTime = 97.57 s  ClockTime = 106 s

Time = 0.009

Courant Number mean: 0.0715955 max: 0.477901
[INFO] MatrixAssemblyU: 16.789 [ms]
DILUPBiCGStab:  Solving for Ux, Initial residual = 0.00425602, Final residual = 1.43186e-05, No Iterations 5
DILUPBiCGStab:  Solving for Uy, Initial residual = 0.00915947, Final residual = 2.60525e-05, No Iterations 5
DILUPBiCGStab:  Solving for Uz, Initial residual = 0.0187169, Final residual = 6.14205e-05, No Iterations 5
[INFO] MomentumPredictor: 78.912 [ms]
[INFO] MatrixAssemblyPI: 15.854 [ms]
[INFO] AdjustPhi: 0.304 [ms]
[INFO] ConstrainPressure: 0.002 [ms]
[INFO] MatrixAssemblyPII: 4.697 [ms]
[OGL LOG][Proc: 0]: global_index_init: 0.021 [ms]
[OGL LOG][Proc: 0]p_local_coeffs: call_update: 0 [ms]
[OGL LOG][Proc: 0]p_non_local_coeffs: call_update: 0 [ms]
[OGL LOG][Proc: 0]p: update_local_matrix_data: 3.125 [ms]
[OGL LOG][Proc: 0]p: update_non_local_matrix_data: 0.026 [ms]
[OGL LOG][Proc: 0]p_matrix: call_update: 12.955 [ms]
[OGL LOG][Proc: 0]p_rhs: call_update: 0.057 [ms]
[OGL LOG][Proc: 0]p: init_precond: 0.043 [ms]
[OGL LOG][StoppingCriterion.H:372] Creating stopping criterion with minIter 177 frequency 7
[OGL LOG][Proc: 0]p: generate_solver: 0.001 [ms]
[OGL LOG][Proc: 0]p: solve: 1356.91 [ms]
[OGL LOG][Proc: 0]p: copy_x_back: 0.092 [ms]
[OGL LOG][lduLduBase.H:339] 
Statistics:
	Time per iteration: 4711 [mu s]
	Time per residual norm calculation: 2497.000000 [mu s]
	Time per iteration and DOF: 4.711000 [ns]
	Retrieve results bandwidth 2.717000 [GByte/s]
[OGL LOG][Proc: 0]p: solve_multi_gpu: 1374.07 [ms]
nonecudaGKOCG:  Solving for p, Initial residual = 0.0095752, Final residual = 9.25559e-05, No Iterations 288
[INFO] SolveP: 1379.71 [ms]
time step continuity errors : sum local = 1.30264e-08, global = -8.93572e-21, cumulative = -1.11096e-19
[INFO] ContinuityError: 1.459 [ms]
[INFO] CorrectBoundary: 0.437 [ms]
[INFO] PISOStep: 1409.81 [ms]
[INFO] MatrixAssemblyPI: 13.456 [ms]
[INFO] AdjustPhi: 1.357 [ms]
[INFO] ConstrainPressure: 0.002 [ms]
[INFO] MatrixAssemblyPII: 4.759 [ms]
[OGL LOG][Proc: 0]: global_index_init: 0.014 [ms]
[OGL LOG][Proc: 0]p_local_coeffs: call_update: 0 [ms]
[OGL LOG][Proc: 0]p_non_local_coeffs: call_update: 0 [ms]
[OGL LOG][Proc: 0]p: update_local_matrix_data: 2.586 [ms]
[OGL LOG][Proc: 0]p: update_non_local_matrix_data: 0.099 [ms]
[OGL LOG][Proc: 0]p_matrix: call_update: 11.085 [ms]
[OGL LOG][Proc: 0]p_rhs: call_update: 2.192 [ms]
[OGL LOG][Proc: 0]p: init_precond: 0.05 [ms]
[OGL LOG][StoppingCriterion.H:372] Creating stopping criterion with minIter 172 frequency 10
[OGL LOG][Proc: 0]p: generate_solver: 0.002 [ms]
[OGL LOG][Proc: 0]p: solve: 1358.86 [ms]
[OGL LOG][Proc: 0]p: copy_x_back: 0.159 [ms]
[OGL LOG][lduLduBase.H:339] 
Statistics:
	Time per iteration: 4669 [mu s]
	Time per residual norm calculation: 2343.000000 [mu s]
	Time per iteration and DOF: 4.669000 [ns]
	Retrieve results bandwidth 1.572000 [GByte/s]
[OGL LOG][Proc: 0]p: solve_multi_gpu: 1376.83 [ms]
nonecudaGKOCG:  Solving for p, Initial residual = 0.00903696, Final residual = 7.50461e-05, No Iterations 291
[INFO] SolveP: 1380.32 [ms]
time step continuity errors : sum local = 1.05343e-08, global = -5.82963e-21, cumulative = -1.16925e-19
[INFO] ContinuityError: 3.919 [ms]
[INFO] CorrectBoundary: 0.064 [ms]
[INFO] PISOStep: 1409.88 [ms]
[INFO] TimeStep: 2917.18 [ms]
ExecutionTime = 100.46 s  ClockTime = 109 s

Time = 0.0095

Courant Number mean: 0.0726827 max: 0.478315
[INFO] MatrixAssemblyU: 16.336 [ms]
DILUPBiCGStab:  Solving for Ux, Initial residual = 0.0039501, Final residual = 1.32611e-05, No Iterations 5
DILUPBiCGStab:  Solving for Uy, Initial residual = 0.00851536, Final residual = 2.41368e-05, No Iterations 5
DILUPBiCGStab:  Solving for Uz, Initial residual = 0.0174783, Final residual = 5.69298e-05, No Iterations 5
[INFO] MomentumPredictor: 78.981 [ms]
[INFO] MatrixAssemblyPI: 15.216 [ms]
[INFO] AdjustPhi: 0.852 [ms]
[INFO] ConstrainPressure: 0.001 [ms]
[INFO] MatrixAssemblyPII: 4.767 [ms]
[OGL LOG][Proc: 0]: global_index_init: 0.018 [ms]
[OGL LOG][Proc: 0]p_local_coeffs: call_update: 0 [ms]
[OGL LOG][Proc: 0]p_non_local_coeffs: call_update: 0 [ms]
[OGL LOG][Proc: 0]p: update_local_matrix_data: 3.118 [ms]
[OGL LOG][Proc: 0]p: update_non_local_matrix_data: 0.072 [ms]
[OGL LOG][Proc: 0]p_matrix: call_update: 13.235 [ms]
[OGL LOG][Proc: 0]p_rhs: call_update: 0.208 [ms]
[OGL LOG][Proc: 0]p: init_precond: 0.05 [ms]
[OGL LOG][StoppingCriterion.H:372] Creating stopping criterion with minIter 174 frequency 10
[OGL LOG][Proc: 0]p: generate_solver: 0.001 [ms]
[OGL LOG][Proc: 0]p: solve: 1354.26 [ms]
[OGL LOG][Proc: 0]p: copy_x_back: 0.149 [ms]
[OGL LOG][lduLduBase.H:339] 
Statistics:
	Time per iteration: 4653 [mu s]
	Time per residual norm calculation: 2347.000000 [mu s]
	Time per iteration and DOF: 4.653000 [ns]
	Retrieve results bandwidth 1.677000 [GByte/s]
[OGL LOG][Proc: 0]p: solve_multi_gpu: 1372.22 [ms]
nonecudaGKOCG:  Solving for p, Initial residual = 0.00861163, Final residual = 7.84874e-05, No Iterations 291
[INFO] SolveP: 1376.96 [ms]
time step continuity errors : sum local = 1.12749e-08, global = -1.54988e-21, cumulative = -1.18475e-19
[INFO] ContinuityError: 2.307 [ms]
[INFO] CorrectBoundary: 0.12 [ms]
[INFO] PISOStep: 1407.59 [ms]
[INFO] MatrixAssemblyPI: 13.244 [ms]
[INFO] AdjustPhi: 1.471 [ms]
[INFO] ConstrainPressure: 0.002 [ms]
[INFO] MatrixAssemblyPII: 4.607 [ms]
[OGL LOG][Proc: 0]: global_index_init: 0.017 [ms]
[OGL LOG][Proc: 0]p_local_coeffs: call_update: 0 [ms]
[OGL LOG][Proc: 0]p_non_local_coeffs: call_update: 0 [ms]
[OGL LOG][Proc: 0]p: update_local_matrix_data: 2.775 [ms]
[OGL LOG][Proc: 0]p: update_non_local_matrix_data: 0.096 [ms]
[OGL LOG][Proc: 0]p_matrix: call_update: 11.432 [ms]
[OGL LOG][Proc: 0]p_rhs: call_update: 1.606 [ms]
[OGL LOG][Proc: 0]p: init_precond: 0.051 [ms]
[OGL LOG][StoppingCriterion.H:372] Creating stopping criterion with minIter 174 frequency 10
[OGL LOG][Proc: 0]p: generate_solver: 0.002 [ms]
[OGL LOG][Proc: 0]p: solve: 1352.19 [ms]
[OGL LOG][Proc: 0]p: copy_x_back: 0.083 [ms]
[OGL LOG][lduLduBase.H:339] 
Statistics:
	Time per iteration: 4646 [mu s]
	Time per residual norm calculation: 2349.000000 [mu s]
	Time per iteration and DOF: 4.646000 [ns]
	Retrieve results bandwidth 3.012000 [GByte/s]
[OGL LOG][Proc: 0]p: solve_multi_gpu: 1370.23 [ms]
nonecudaGKOCG:  Solving for p, Initial residual = 0.00817194, Final residual = 7.23965e-05, No Iterations 291
[INFO] SolveP: 1373.63 [ms]
time step continuity errors : sum local = 1.02374e-08, global = 7.13521e-22, cumulative = -1.17762e-19
[INFO] ContinuityError: 4.059 [ms]
[INFO] CorrectBoundary: 0.046 [ms]
[INFO] PISOStep: 1403.36 [ms]
[INFO] TimeStep: 2908.06 [ms]
ExecutionTime = 103.37 s  ClockTime = 112 s

Time = 0.01

Courant Number mean: 0.0737004 max: 0.478693
[INFO] MatrixAssemblyU: 15.961 [ms]
DILUPBiCGStab:  Solving for Ux, Initial residual = 0.003678, Final residual = 1.23378e-05, No Iterations 5
DILUPBiCGStab:  Solving for Uy, Initial residual = 0.00794189, Final residual = 2.24639e-05, No Iterations 5
DILUPBiCGStab:  Solving for Uz, Initial residual = 0.0163301, Final residual = 5.30578e-05, No Iterations 5
[INFO] MomentumPredictor: 79.13 [ms]
[INFO] MatrixAssemblyPI: 15.768 [ms]
[INFO] AdjustPhi: 0.336 [ms]
[INFO] ConstrainPressure: 0.002 [ms]
[INFO] MatrixAssemblyPII: 4.729 [ms]
[OGL LOG][Proc: 0]: global_index_init: 0.021 [ms]
[OGL LOG][Proc: 0]p_local_coeffs: call_update: 0 [ms]
[OGL LOG][Proc: 0]p_non_local_coeffs: call_update: 0 [ms]
[OGL LOG][Proc: 0]p: update_local_matrix_data: 3.071 [ms]
[OGL LOG][Proc: 0]p: update_non_local_matrix_data: 0.05 [ms]
[OGL LOG][Proc: 0]p_matrix: call_update: 13.163 [ms]
[OGL LOG][Proc: 0]p_rhs: call_update: 0.148 [ms]
[OGL LOG][Proc: 0]p: init_precond: 0.052 [ms]
[OGL LOG][StoppingCriterion.H:372] Creating stopping criterion with minIter 174 frequency 10
[OGL LOG][Proc: 0]p: generate_solver: 0.001 [ms]
[OGL LOG][Proc: 0]p: solve: 1354.33 [ms]
[OGL LOG][Proc: 0]p: copy_x_back: 0.08 [ms]
[OGL LOG][lduLduBase.H:339] 
Statistics:
	Time per iteration: 4654 [mu s]
	Time per residual norm calculation: 2349.000000 [mu s]
	Time per iteration and DOF: 4.654000 [ns]
	Retrieve results bandwidth 3.125000 [GByte/s]
[OGL LOG][Proc: 0]p: solve_multi_gpu: 1372.17 [ms]
nonecudaGKOCG:  Solving for p, Initial residual = 0.00797349, Final residual = 7.63955e-05, No Iterations 291
[INFO] SolveP: 1378.06 [ms]
time step continuity errors : sum local = 1.07097e-08, global = -1.28668e-21, cumulative = -1.19048e-19
[INFO] ContinuityError: 1.623 [ms]
[INFO] CorrectBoundary: 0.07 [ms]
[INFO] PISOStep: 1407.49 [ms]
[INFO] MatrixAssemblyPI: 14.358 [ms]
[INFO] AdjustPhi: 0.358 [ms]
[INFO] ConstrainPressure: 0.001 [ms]
[INFO] MatrixAssemblyPII: 4.675 [ms]
[OGL LOG][Proc: 0]: global_index_init: 0.017 [ms]
[OGL LOG][Proc: 0]p_local_coeffs: call_update: 0 [ms]
[OGL LOG][Proc: 0]p_non_local_coeffs: call_update: 0 [ms]
[OGL LOG][Proc: 0]p: update_local_matrix_data: 2.605 [ms]
[OGL LOG][Proc: 0]p: update_non_local_matrix_data: 0.148 [ms]
[OGL LOG][Proc: 0]p_matrix: call_update: 10.888 [ms]
[OGL LOG][Proc: 0]p_rhs: call_update: 2.697 [ms]
[OGL LOG][Proc: 0]p: init_precond: 0.052 [ms]
[OGL LOG][StoppingCriterion.H:372] Creating stopping criterion with minIter 174 frequency 10
[OGL LOG][Proc: 0]p: generate_solver: 0.001 [ms]
[OGL LOG][Proc: 0]p: solve: 1306.26 [ms]
[OGL LOG][Proc: 0]p: copy_x_back: 0.162 [ms]
[OGL LOG][lduLduBase.H:339] 
Statistics:
	Time per iteration: 4648 [mu s]
	Time per residual norm calculation: 2195.000000 [mu s]
	Time per iteration and DOF: 4.648000 [ns]
	Retrieve results bandwidth 1.543000 [GByte/s]
[OGL LOG][Proc: 0]p: solve_multi_gpu: 1323.9 [ms]
nonecudaGKOCG:  Solving for p, Initial residual = 0.00758512, Final residual = 9.32553e-05, No Iterations 281
[INFO] SolveP: 1329.15 [ms]
time step continuity errors : sum local = 1.30883e-08, global = -1.48212e-20, cumulative = -1.3387e-19
[INFO] ContinuityError: 2.219 [ms]
[INFO] CorrectBoundary: 0.062 [ms]
[INFO] PISOStep: 1358.19 [ms]
[INFO] TimeStep: 2862.54 [ms]
ExecutionTime = 106.22 s  ClockTime = 114 s

End

Finalising parallel run
