/*---------------------------------------------------------------------------*\
| =========                 |                                                 |
| \\      /  F ield         | OpenFOAM: The Open Source CFD Toolbox           |
|  \\    /   O peration     | Version:  2306                                  |
|   \\  /    A nd           | Website:  www.openfoam.com                      |
|    \\/     M anipulation  |                                                 |
\*---------------------------------------------------------------------------*/
Build  : a6e826bd55-20230630 OPENFOAM=2306 version=v2306
Arch   : "LSB;label=32;scalar=64"
Exec   : simpleFoam -parallel -case /home/greole/data/code/exasim_project/micro_benchmarks/WindsorBody/workspace/7d3f6210de0672d6921b708140f270ec/case
Date   : Aug 27 2023
Time   : 08:48:22
Host   : nla-gpu2.ianm.kit.edu
PID    : 3051197
I/O    : uncollated
Case   : /home/greole/data/code/exasim_project/micro_benchmarks/WindsorBody/workspace/7d3f6210de0672d6921b708140f270ec/case
nProcs : 16
Hosts  :
(
    (nla-gpu2.ianm.kit.edu 16)
)
Pstream initialized with:
    floatTransfer      : false
    nProcsSimpleSum    : 0
    nonBlockingExchange: 0 (tuning: 0)
    exchange algorithm : -1
    commsType          : nonBlocking
    polling iterations : 0
trapFpe: Floating point exception trapping enabled (FOAM_SIGFPE).
fileModificationChecking : Monitoring run-time modified files using timeStampMaster (fileModificationSkew 5, maxFileModificationPolls 20)
allowSystemOperations : Allowing user-supplied system call operations

// * * * * * * * * * * * * * * * * * * * * * * * * * * * * * * * * * * * * * //
Create time

--> FOAM Warning : 
    From void* Foam::dlLibraryTable::openLibrary(const Foam::fileName&, bool)
    in file db/dynamicLibrary/dlLibraryTable/dlLibraryTable.C at line 188
    Could not load "libpetscFoam.so"
libpetscFoam.so: cannot open shared object file: No such file or directory
Create mesh for time = 0


SIMPLE: convergence criteria
    field p	 tolerance 1e-08
    field U	 tolerance 1e-08
    field k	 tolerance 1e-08
    field omega	 tolerance 1e-08
    field nuTilda	 tolerance 1e-08

Reading field p

Reading field U

Reading/calculating face flux field phi

Selecting incompressible transport model Newtonian
Selecting turbulence model type RAS
Selecting RAS turbulence model SpalartAllmaras
Selecting patchDistMethod meshWave
ft2 term: inactive
RAS
{
    RASModel        SpalartAllmaras;
    turbulence      on;
    printCoeffs     on;
    sigmaNut        0.66666;
    kappa           0.41;
    Cb1             0.1355;
    Cb2             0.622;
    Cw2             0.3;
    Cw3             2;
    Cv1             7.1;
    Cs              0.3;
    ck              0.07000000000000001;
    ft2             false;
    Ct3             1.2;
    Ct4             0.5;
}

No MRF models present

Creating finite volume options from "system/fvOptions"

Selecting finite volume options type velocityDampingConstraint
    Source: velocityDamping
    - selecting all cells
    - selected 50457088 cell(s) with volume 222.6066441268596

Starting time loop

--> FOAM Warning : 
    From bool Foam::functionObjectList::read()
    in file db/functionObjects/functionObjectList/functionObjectList.C at line 1035
    Reading "system/controlDict" at line 2 to 41
    Entry 'lref' is not a dictionary
--> FOAM Warning : 
    From bool Foam::functionObjectList::read()
    in file db/functionObjects/functionObjectList/functionObjectList.C at line 1035
    Reading "system/controlDict" at line 2 to 41
    Entry 'Aref' is not a dictionary
--> FOAM Warning : 
    From bool Foam::functionObjectList::read()
    in file db/functionObjects/functionObjectList/functionObjectList.C at line 1035
    Reading "system/controlDict" at line 2 to 41
    Entry 'yawAngle' is not a dictionary
--> FOAM Warning : 
    From bool Foam::functionObjectList::read()
    in file db/functionObjects/functionObjectList/functionObjectList.C at line 1035
    Reading "system/controlDict" at line 2 to 41
    Entry 'lDomain' is not a dictionary
--> FOAM Warning : 
    From bool Foam::functionObjectList::read()
    in file db/functionObjects/functionObjectList/functionObjectList.C at line 1035
    Reading "system/controlDict" at line 2 to 41
    Entry 'bDomain' is not a dictionary
--> FOAM Warning : 
    From bool Foam::functionObjectList::read()
    in file db/functionObjects/functionObjectList/functionObjectList.C at line 1035
    Reading "system/controlDict" at line 2 to 41
    Entry 'hDomain' is not a dictionary
--> FOAM Warning : 
    From bool Foam::functionObjectList::read()
    in file db/functionObjects/functionObjectList/functionObjectList.C at line 1035
    Reading "system/controlDict" at line 2 to 41
    Entry 'xCenter' is not a dictionary
--> FOAM Warning : 
    From bool Foam::functionObjectList::read()
    in file db/functionObjects/functionObjectList/functionObjectList.C at line 1035
    Reading "system/controlDict" at line 2 to 41
    Entry 'yCenter' is not a dictionary
--> FOAM Warning : 
    From bool Foam::functionObjectList::read()
    in file db/functionObjects/functionObjectList/functionObjectList.C at line 1035
    Reading "system/controlDict" at line 2 to 41
    Entry 'zCenter' is not a dictionary
--> FOAM Warning : 
    From bool Foam::functionObjectList::read()
    in file db/functionObjects/functionObjectList/functionObjectList.C at line 1035
    Reading "system/controlDict" at line 2 to 41
    Entry 'inletPatch' is not a dictionary
--> FOAM Warning : 
    From bool Foam::functionObjectList::read()
    in file db/functionObjects/functionObjectList/functionObjectList.C at line 1035
    Reading "system/controlDict" at line 2 to 41
    Entry 'outletPatch' is not a dictionary
--> FOAM Warning : 
    From bool Foam::functionObjectList::read()
    in file db/functionObjects/functionObjectList/functionObjectList.C at line 1035
    Reading "system/controlDict" at line 2 to 41
    Entry 'wallPatches' is not a dictionary
--> FOAM Warning : 
    From bool Foam::functionObjectList::read()
    in file db/functionObjects/functionObjectList/functionObjectList.C at line 1035
    Reading "system/controlDict" at line 2 to 41
    Entry 'forcesWallPatches' is not a dictionary
--> FOAM Warning : 
    From bool Foam::functionObjectList::read()
    in file db/functionObjects/functionObjectList/functionObjectList.C at line 1035
    Reading "system/controlDict" at line 2 to 41
    Entry 'symmPatches' is not a dictionary
--> FOAM Warning : 
    From bool Foam::functionObjectList::read()
    in file db/functionObjects/functionObjectList/functionObjectList.C at line 1035
    Reading "system/controlDict" at line 2 to 41
    Entry 'Uinf' is not a dictionary
--> FOAM Warning : 
    From bool Foam::functionObjectList::read()
    in file db/functionObjects/functionObjectList/functionObjectList.C at line 1035
    Reading "system/controlDict" at line 2 to 41
    Entry 'UinfMag' is not a dictionary
--> FOAM Warning : 
    From bool Foam::functionObjectList::read()
    in file db/functionObjects/functionObjectList/functionObjectList.C at line 1035
    Reading "system/controlDict" at line 2 to 41
    Entry 'nu' is not a dictionary
--> FOAM Warning : 
    From bool Foam::functionObjectList::read()
    in file db/functionObjects/functionObjectList/functionObjectList.C at line 1035
    Reading "system/controlDict" at line 2 to 41
    Entry 'pref' is not a dictionary
--> FOAM Warning : 
    From bool Foam::functionObjectList::read()
    in file db/functionObjects/functionObjectList/functionObjectList.C at line 1035
    Reading "system/controlDict" at line 2 to 41
    Entry 'viscRatio' is not a dictionary
--> FOAM Warning : 
    From bool Foam::functionObjectList::read()
    in file db/functionObjects/functionObjectList/functionObjectList.C at line 1035
    Reading "system/controlDict" at line 2 to 41
    Entry 'Tu' is not a dictionary
--> FOAM Warning : 
    From bool Foam::functionObjectList::read()
    in file db/functionObjects/functionObjectList/functionObjectList.C at line 1035
    Reading "system/controlDict" at line 2 to 41
    Entry 'LESturbModel' is not a dictionary
--> FOAM Warning : 
    From bool Foam::functionObjectList::read()
    in file db/functionObjects/functionObjectList/functionObjectList.C at line 1035
    Reading "system/controlDict" at line 2 to 41
    Entry 'RASturbModel' is not a dictionary
--> FOAM Warning : 
    From bool Foam::functionObjectList::read()
    in file db/functionObjects/functionObjectList/functionObjectList.C at line 1035
    Reading "system/controlDict" at line 2 to 41
    Entry 'deltaTurb' is not a dictionary
--> FOAM Warning : 
    From bool Foam::functionObjectList::read()
    in file db/functionObjects/functionObjectList/functionObjectList.C at line 1035
    Reading "system/controlDict" at line 2 to 41
    Entry 'dt' is not a dictionary
--> FOAM Warning : 
    From bool Foam::functionObjectList::read()
    in file db/functionObjects/functionObjectList/functionObjectList.C at line 1035
    Reading "system/controlDict" at line 2 to 41
    Entry 'tAvg' is not a dictionary
--> FOAM Warning : 
    From bool Foam::functionObjectList::read()
    in file db/functionObjects/functionObjectList/functionObjectList.C at line 1035
    Reading "system/controlDict" at line 2 to 41
    Entry 'tEnd' is not a dictionary
--> FOAM Warning : 
    From bool Foam::functionObjectList::read()
    in file db/functionObjects/functionObjectList/functionObjectList.C at line 1035
    Reading "system/controlDict" at line 2 to 41
    Entry 'writeInterval_' is not a dictionary
--> FOAM Warning : 
    From bool Foam::functionObjectList::read()
    in file db/functionObjects/functionObjectList/functionObjectList.C at line 1035
    Reading "system/controlDict" at line 2 to 41
    Entry 'nCores' is not a dictionary
--> FOAM Warning : 
    From bool Foam::functionObjectList::read()
    in file db/functionObjects/functionObjectList/functionObjectList.C at line 1035
    Reading "system/controlDict" at line 2 to 41
    Entry 'interpScheme' is not a dictionary
--> FOAM Warning : 
    From bool Foam::functionObjectList::read()
    in file db/functionObjects/functionObjectList/functionObjectList.C at line 1035
    Reading "system/controlDict" at line 2 to 41
    Entry 'probeField' is not a dictionary
wallShearStress wallShearStress:
    processing wall patches: 
        Windsor_Body
        CFDWT_Floor
        Windsor_Pins
        Windsor_Base
        Windsor_Body_2
        CFDWT_Floor_2
        Windsor_Pins_2
        Windsor_Base_2
        Windsor_Body_3
        CFDWT_Floor_3
        Windsor_Pins_3
        Windsor_Base_3
        Windsor_Body_4
        CFDWT_Floor_4
        Windsor_Pins_4
        Windsor_Base_4
        Windsor_Body_5
        CFDWT_Floor_5
        Windsor_Pins_5
        Windsor_Base_5
        Windsor_Body_6
        CFDWT_Floor_6
        Windsor_Pins_6
        Windsor_Base_6
        Windsor_Body_7
        CFDWT_Floor_7
        Windsor_Pins_7
        Windsor_Base_7
        Windsor_Body_8
        CFDWT_Floor_8
        Windsor_Pins_8
        Windsor_Base_8

pressure calc_cp:
    Operating mode: staticCoeff
    Not including hydrostatic effects

forceCoeffs forceCoeffsAll:
    rho: rhoInf
    Freestream density (rhoInf) set to 1
    Not including porosity effects
    magUInf: 40
    lRef   : 0.6375
    Aref   : 0.1124
    rhoInf : 1
    Selecting all coefficients
    - Drag force: Cd
    - Drag force front: Cd(f)
    - Drag force rear: Cd(r)
    - Lift force: Cl
    - Lift force front: Cl(f)
    - Lift force rear: Cl(r)
    - Pitch moment: CmPitch
    - Roll moment: CmRoll
    - Yaw moment: CmYaw
    - Side force: Cs
    - Side force front: Cs(f)
    - Side force rear: Cs(r)


forceCoeffs dragCoeffBase:
    rho: rhoInf
    Freestream density (rhoInf) set to 1
    Not including porosity effects
    magUInf: 40
    lRef   : 0.6375
    Aref   : 0.1124
    rhoInf : 1
    Selecting coefficients:
    - Drag force: Cd


Time = 1

velocityDampingConstraint velocityDamping damped 0 (0%) of cells, with max limit 300
[INFO] MatrixAssemblyU: 4476.609 [ms]
[OGL LOG][lduLduBase.H:119] Initialising OGL
	OGL commit:  4647ee1+
	Branch: PersistentDeviceIdGuard 
	Build type: Release
	Ginkgo version: 1.5.0 ( develop)
	Ginkgo commit: 4292ffdee
	MPI is GPU aware: 1
	Forces host buffer based communication: 0
	CPU ranks per GPU: 1
	Matrix format: Coo
	End OGL_INFO
[OGL LOG][Proc: 0]: global_index_init: 11.477 [ms]
[OGL LOG][Proc: 0]Ux_local_cols: call_init: 0.04 [ms]
[OGL LOG][Proc: 0]Ux_local_rows: call_init: 0.003 [ms]
[OGL LOG][Proc: 0]Ux_local_ldu_map: call_init: 0.003 [ms]
[OGL LOG][Proc: 0]Ux_local_coeffs: call_init: 0.011 [ms]
[OGL LOG][Proc: 0]Ux_non_local_cols: call_init: 0.002 [ms]
[OGL LOG][Proc: 0]Ux_non_local_rows: call_init: 0.003 [ms]
[OGL LOG][Proc: 0]Ux_non_local_ldu_map: call_init: 0.002 [ms]
[OGL LOG][Proc: 0]Ux_non_local_coeffs: call_init: 0.002 [ms]
[OGL LOG][Proc: 0]Ux: init_local_sparsity_pattern: 659.343 [ms]
[OGL LOG][Proc: 0]Ux: init_non_local_sparsity_pattern: 54.311 [ms]
[OGL LOG][Proc: 0]Ux: update_local_matrix_data: 86.947 [ms]
[OGL LOG][Proc: 0]Ux: update_non_local_matrix_data: 0.339 [ms]
[OGL LOG][Proc: 0]device_partition: call_init: 53.551 [ms]
[OGL LOG][Proc: 0]Ux_matrix: call_init: 279 [ms]
[OGL LOG][Proc: 0]Ux_rhs: call_init: 18.439 [ms]
[OGL LOG][Proc: 0]Ux_solution: call_init: 3.112 [ms]
[OGL LOG][Preconditioner.H:121] Generate preconditioner BJ MaxBlockSize 1
[OGL LOG][Proc: 0]Ux: init_precond: 4.744 [ms]
[OGL LOG][StoppingCriterion.H:373] Creating stopping criterion with minIter 0 frequency 1
[OGL LOG][Proc: 0]Ux: generate_solver: 0.015 [ms]
[OGL LOG][Proc: 0]Ux: solve: 1576.363 [ms]
[OGL LOG][Proc: 0]Ux: copy_x_back: 9.808 [ms]
[OGL LOG][lduLduBase.H:336] 
Statistics:
	Time per iteration: 65681 [mu s]
	Time per residual norm calculation: 1756.000000 [mu s]
	Time per iteration and DOF: 1.301720 [ns]
	Retrieve results bandwidth 3.067000 [GByte/s]
[OGL LOG][Proc: 0]Ux: solve_multi_gpu: 1946.95 [ms]
BJhipGKOBiCGStab:  Solving for Ux, Initial residual = 1.000000000001732, Final residual = 0.05875171166103631, No Iterations 24
[OGL LOG][lduLduBase.H:119] Initialising OGL
	OGL commit:  4647ee1+
	Branch: PersistentDeviceIdGuard 
	Build type: Release
	Ginkgo version: 1.5.0 ( develop)
	Ginkgo commit: 4292ffdee
	MPI is GPU aware: 1
	Forces host buffer based communication: 0
	CPU ranks per GPU: 1
	Matrix format: Coo
	End OGL_INFO
[OGL LOG][Proc: 0]: global_index_init: 0.577 [ms]
[OGL LOG][Proc: 0]Uy_local_cols: call_init: 0.009000000000000001 [ms]
[OGL LOG][Proc: 0]Uy_local_rows: call_init: 0.003 [ms]
[OGL LOG][Proc: 0]Uy_local_ldu_map: call_init: 0.004 [ms]
[OGL LOG][Proc: 0]Uy_local_coeffs: call_init: 0.005 [ms]
[OGL LOG][Proc: 0]Uy_non_local_cols: call_init: 0.004 [ms]
[OGL LOG][Proc: 0]Uy_non_local_rows: call_init: 0.002 [ms]
[OGL LOG][Proc: 0]Uy_non_local_ldu_map: call_init: 0.003 [ms]
[OGL LOG][Proc: 0]Uy_non_local_coeffs: call_init: 0.004 [ms]
[OGL LOG][Proc: 0]Uy: init_local_sparsity_pattern: 695.395 [ms]
[OGL LOG][Proc: 0]Uy: init_non_local_sparsity_pattern: 101.805 [ms]
[OGL LOG][Proc: 0]Uy: update_local_matrix_data: 85.66200000000001 [ms]
[OGL LOG][Proc: 0]Uy: update_non_local_matrix_data: 0.328 [ms]
[OGL LOG][Proc: 0]Uy_matrix: call_init: 263.293 [ms]
[OGL LOG][Proc: 0]Uy_rhs: call_init: 21.788 [ms]
[OGL LOG][Proc: 0]Uy_solution: call_init: 4.927 [ms]
[OGL LOG][Preconditioner.H:121] Generate preconditioner BJ MaxBlockSize 1
[OGL LOG][Proc: 0]Uy: init_precond: 1.535 [ms]
[OGL LOG][StoppingCriterion.H:373] Creating stopping criterion with minIter 0 frequency 1
[OGL LOG][Proc: 0]Uy: generate_solver: 0.002 [ms]
[OGL LOG][Proc: 0]Uy: solve: 482.383 [ms]
[OGL LOG][Proc: 0]Uy: copy_x_back: 9.82 [ms]
[OGL LOG][lduLduBase.H:336] 
Statistics:
	Time per iteration: 9276 [mu s]
	Time per residual norm calculation: 488.000000 [mu s]
	Time per iteration and DOF: 0.183839 [ns]
	Retrieve results bandwidth 3.063000 [GByte/s]
[OGL LOG][Proc: 0]Uy: solve_multi_gpu: 785.835 [ms]
BJhipGKOBiCGStab:  Solving for Uy, Initial residual = 1.000000000000006, Final residual = 0.060261106697925, No Iterations 52
[OGL LOG][lduLduBase.H:119] Initialising OGL
	OGL commit:  4647ee1+
	Branch: PersistentDeviceIdGuard 
	Build type: Release
	Ginkgo version: 1.5.0 ( develop)
	Ginkgo commit: 4292ffdee
	MPI is GPU aware: 1
	Forces host buffer based communication: 0
	CPU ranks per GPU: 1
	Matrix format: Coo
	End OGL_INFO
[OGL LOG][Proc: 0]: global_index_init: 0.5680000000000001 [ms]
[OGL LOG][Proc: 0]Uz_local_cols: call_init: 0.009000000000000001 [ms]
[OGL LOG][Proc: 0]Uz_local_rows: call_init: 0.003 [ms]
[OGL LOG][Proc: 0]Uz_local_ldu_map: call_init: 0.004 [ms]
[OGL LOG][Proc: 0]Uz_local_coeffs: call_init: 0.005 [ms]
[OGL LOG][Proc: 0]Uz_non_local_cols: call_init: 0.004 [ms]
[OGL LOG][Proc: 0]Uz_non_local_rows: call_init: 0.004 [ms]
[OGL LOG][Proc: 0]Uz_non_local_ldu_map: call_init: 0.002 [ms]
[OGL LOG][Proc: 0]Uz_non_local_coeffs: call_init: 0.003 [ms]
[OGL LOG][Proc: 0]Uz: init_local_sparsity_pattern: 700.095 [ms]
[OGL LOG][Proc: 0]Uz: init_non_local_sparsity_pattern: 79.402 [ms]
[OGL LOG][Proc: 0]Uz: update_local_matrix_data: 84.952 [ms]
[OGL LOG][Proc: 0]Uz: update_non_local_matrix_data: 0.288 [ms]
[OGL LOG][Proc: 0]Uz_matrix: call_init: 299.677 [ms]
[OGL LOG][Proc: 0]Uz_rhs: call_init: 17.054 [ms]
[OGL LOG][Proc: 0]Uz_solution: call_init: 2.929 [ms]
[OGL LOG][Preconditioner.H:121] Generate preconditioner BJ MaxBlockSize 1
[OGL LOG][Proc: 0]Uz: init_precond: 1.565 [ms]
[OGL LOG][StoppingCriterion.H:373] Creating stopping criterion with minIter 0 frequency 1
[OGL LOG][Proc: 0]Uz: generate_solver: 0.002 [ms]
[OGL LOG][Proc: 0]Uz: solve: 176.478 [ms]
[OGL LOG][Proc: 0]Uz: copy_x_back: 9.749000000000001 [ms]
[OGL LOG][lduLduBase.H:336] 
Statistics:
	Time per iteration: 176478 [mu s]
	Time per residual norm calculation: 499.000000 [mu s]
	Time per iteration and DOF: 3.497586 [ns]
	Retrieve results bandwidth 3.085000 [GByte/s]
[OGL LOG][Proc: 0]Uz: solve_multi_gpu: 509.565 [ms]
BJhipGKOBiCGStab:  Solving for Uz, Initial residual = 1.00000000000003, Final residual = 0.09952964467307787, No Iterations 1
[INFO] MomentumPredictor: 6354.958 [ms]
[INFO] MatrixAssemblyPI: 720.53 [ms]
[INFO] MatrixAssemblyPII: 353.45 [ms]
GAMG:  Solving for p, Initial residual = 1, Final residual = 0.007341315765899401, No Iterations 24
[INFO] SolveP: 11511.272 [ms]
time step continuity errors : sum local = 0.00269928039409629, global = 8.715783495003714e-06, cumulative = 8.715783495003714e-06
[INFO] postSolveP: 187.366 [ms]
[OGL LOG][lduLduBase.H:119] Initialising OGL
	OGL commit:  4647ee1+
	Branch: PersistentDeviceIdGuard 
	Build type: Release
	Ginkgo version: 1.5.0 ( develop)
	Ginkgo commit: 4292ffdee
	MPI is GPU aware: 1
	Forces host buffer based communication: 0
	CPU ranks per GPU: 1
	Matrix format: Coo
	End OGL_INFO
[OGL LOG][Proc: 0]: global_index_init: 1.689 [ms]
[OGL LOG][Proc: 0]nuTilda_local_cols: call_init: 0.009000000000000001 [ms]
[OGL LOG][Proc: 0]nuTilda_local_rows: call_init: 0.005 [ms]
[OGL LOG][Proc: 0]nuTilda_local_ldu_map: call_init: 0.005 [ms]
[OGL LOG][Proc: 0]nuTilda_local_coeffs: call_init: 0.005 [ms]
[OGL LOG][Proc: 0]nuTilda_non_local_cols: call_init: 0.003 [ms]
[OGL LOG][Proc: 0]nuTilda_non_local_rows: call_init: 0.004 [ms]
[OGL LOG][Proc: 0]nuTilda_non_local_ldu_map: call_init: 0.004 [ms]
[OGL LOG][Proc: 0]nuTilda_non_local_coeffs: call_init: 0.004 [ms]
[OGL LOG][Proc: 0]nuTilda: init_local_sparsity_pattern: 664.788 [ms]
[OGL LOG][Proc: 0]nuTilda: init_non_local_sparsity_pattern: 109.002 [ms]
[OGL LOG][Proc: 0]nuTilda: update_local_matrix_data: 82.952 [ms]
[OGL LOG][Proc: 0]nuTilda: update_non_local_matrix_data: 0.28 [ms]
[OGL LOG][Proc: 0]nuTilda_matrix: call_init: 299.38 [ms]
[OGL LOG][Proc: 0]nuTilda_rhs: call_init: 19.993 [ms]
[OGL LOG][Proc: 0]nuTilda_solution: call_init: 2.87 [ms]
[OGL LOG][Preconditioner.H:121] Generate preconditioner BJ MaxBlockSize 1
[OGL LOG][Proc: 0]nuTilda: init_precond: 1.558 [ms]
[OGL LOG][StoppingCriterion.H:373] Creating stopping criterion with minIter 0 frequency 1
[OGL LOG][Proc: 0]nuTilda: generate_solver: 0.003 [ms]
[OGL LOG][Proc: 0]nuTilda: solve: 182.417 [ms]
[OGL LOG][Proc: 0]nuTilda: copy_x_back: 9.779999999999999 [ms]
[OGL LOG][lduLduBase.H:336] 
Statistics:
	Time per iteration: 91208 [mu s]
	Time per residual norm calculation: 315.000000 [mu s]
	Time per iteration and DOF: 1.807635 [ns]
	Retrieve results bandwidth 3.075000 [GByte/s]
[OGL LOG][Proc: 0]nuTilda: solve_multi_gpu: 518.1560000000001 [ms]
BJhipGKOBiCGStab:  Solving for nuTilda, Initial residual = 0.999999999999752, Final residual = 0.0939475206721076, No Iterations 2
[INFO] TimeStep: 27367.406 [ms]
ExecutionTime = 89.75 s  ClockTime = 90 s

--> FOAM Warning : 
    From virtual bool Foam::functionObjects::fieldSelection::checkSelection()
    in file functionObjects/fieldSelections/fieldSelection/fieldSelection.C at line 166
    Field k not found
--> FOAM Warning : 
    From virtual bool Foam::functionObjects::fieldSelection::checkSelection()
    in file functionObjects/fieldSelections/fieldSelection/fieldSelection.C at line 166
    Field gammaInt not found
--> FOAM Warning : 
    From virtual bool Foam::functionObjects::fieldSelection::checkSelection()
    in file functionObjects/fieldSelections/fieldSelection/fieldSelection.C at line 166
    Field omega not found
--> FOAM Warning : 
    From virtual bool Foam::functionObjects::fieldSelection::checkSelection()
    in file functionObjects/fieldSelections/fieldSelection/fieldSelection.C at line 166
    Field ReThetat not found
--> FOAM Warning : 
    From virtual bool Foam::functionObjects::fieldSelection::checkSelection()
    in file functionObjects/fieldSelections/fieldSelection/fieldSelection.C at line 166
    Field epsilon not found
--> FOAM Warning : 
    From virtual bool Foam::functionObjects::solverFieldSelection::updateSelection()
    in file functionObjects/fieldSelections/solverFieldSelection/solverFieldSelection.C at line 85
    Valid solver fields are: 3(U nuTilda p)Time = 2

velocityDampingConstraint velocityDamping damped 0 (0%) of cells, with max limit 300
[INFO] MatrixAssemblyU: 4333.286 [ms]
[OGL LOG][Proc: 0]: global_index_init: 0.207 [ms]
[OGL LOG][Proc: 0]Ux_local_coeffs: call_update: 0.006 [ms]
[OGL LOG][Proc: 0]Ux_non_local_coeffs: call_update: 0 [ms]
[OGL LOG][Proc: 0]Ux: update_local_matrix_data: 89.149 [ms]
[OGL LOG][Proc: 0]Ux: update_non_local_matrix_data: 0.296 [ms]
[OGL LOG][Proc: 0]Ux_matrix: call_update: 28.735 [ms]
[OGL LOG][Proc: 0]Ux_rhs: call_update: 14.922 [ms]
[OGL LOG][Preconditioner.H:121] Generate preconditioner BJ MaxBlockSize 1
[OGL LOG][Proc: 0]Ux: init_precond: 1.524 [ms]
[OGL LOG][StoppingCriterion.H:373] Creating stopping criterion with minIter 28 frequency 1
[OGL LOG][Proc: 0]Ux: generate_solver: 0.002 [ms]
[OGL LOG][Proc: 0]Ux: solve: 242.253 [ms]
[OGL LOG][Proc: 0]Ux: copy_x_back: 9.811 [ms]
[OGL LOG][lduLduBase.H:336] 
Statistics:
	Time per iteration: 17303 [mu s]
	Time per residual norm calculation: 376.000000 [mu s]
	Time per iteration and DOF: 0.342925 [ns]
	Retrieve results bandwidth 3.066000 [GByte/s]
[OGL LOG][Proc: 0]Ux: solve_multi_gpu: 299.297 [ms]
BJhipGKOBiCGStab:  Solving for Ux, Initial residual = 0.6039525165987089, Final residual = 0.0377167454668948, No Iterations 14
[OGL LOG][Proc: 0]: global_index_init: 0.6890000000000001 [ms]
[OGL LOG][Proc: 0]Uy_local_coeffs: call_update: 0 [ms]
[OGL LOG][Proc: 0]Uy_non_local_coeffs: call_update: 0 [ms]
[OGL LOG][Proc: 0]Uy: update_local_matrix_data: 89.63500000000001 [ms]
[OGL LOG][Proc: 0]Uy: update_non_local_matrix_data: 0.295 [ms]
[OGL LOG][Proc: 0]Uy_matrix: call_update: 25.375 [ms]
[OGL LOG][Proc: 0]Uy_rhs: call_update: 15.333 [ms]
[OGL LOG][Preconditioner.H:121] Generate preconditioner BJ MaxBlockSize 1
[OGL LOG][Proc: 0]Uy: init_precond: 1.541 [ms]
[OGL LOG][StoppingCriterion.H:373] Creating stopping criterion with minIter 62 frequency 1
[OGL LOG][Proc: 0]Uy: generate_solver: 0.002 [ms]
[OGL LOG][Proc: 0]Uy: solve: 338.922 [ms]
[OGL LOG][Proc: 0]Uy: copy_x_back: 9.885 [ms]
[OGL LOG][lduLduBase.H:336] 
Statistics:
	Time per iteration: 10932 [mu s]
	Time per residual norm calculation: 343.000000 [mu s]
	Time per iteration and DOF: 0.216659 [ns]
	Retrieve results bandwidth 3.043000 [GByte/s]
[OGL LOG][Proc: 0]Uy: solve_multi_gpu: 393.049 [ms]
BJhipGKOBiCGStab:  Solving for Uy, Initial residual = 0.9976011250678304, Final residual = 0.001242535950370865, No Iterations 31
[OGL LOG][Proc: 0]: global_index_init: 0.6880000000000001 [ms]
[OGL LOG][Proc: 0]Uz_local_coeffs: call_update: 0.001 [ms]
[OGL LOG][Proc: 0]Uz_non_local_coeffs: call_update: 0 [ms]
[OGL LOG][Proc: 0]Uz: update_local_matrix_data: 88.417 [ms]
[OGL LOG][Proc: 0]Uz: update_non_local_matrix_data: 0.303 [ms]
[OGL LOG][Proc: 0]Uz_matrix: call_update: 28.316 [ms]
[OGL LOG][Proc: 0]Uz_rhs: call_update: 17.139 [ms]
[OGL LOG][Preconditioner.H:121] Generate preconditioner BJ MaxBlockSize 1
[OGL LOG][Proc: 0]Uz: init_precond: 1.506 [ms]
[OGL LOG][StoppingCriterion.H:373] Creating stopping criterion with minIter 1 frequency 1
[OGL LOG][Proc: 0]Uz: generate_solver: 0.003 [ms]
[OGL LOG][Proc: 0]Uz: solve: 236.985 [ms]
[OGL LOG][Proc: 0]Uz: copy_x_back: 9.827 [ms]
[OGL LOG][lduLduBase.H:336] 
Statistics:
	Time per iteration: 21544 [mu s]
	Time per residual norm calculation: 497.000000 [mu s]
	Time per iteration and DOF: 0.426977 [ns]
	Retrieve results bandwidth 3.061000 [GByte/s]
[OGL LOG][Proc: 0]Uz: solve_multi_gpu: 295.829 [ms]
BJhipGKOBiCGStab:  Solving for Uz, Initial residual = 0.9999895078016677, Final residual = 0.07567721402243434, No Iterations 11
[INFO] MomentumPredictor: 1568.626 [ms]
[INFO] MatrixAssemblyPI: 715.819 [ms]
[INFO] MatrixAssemblyPII: 348.68 [ms]
GAMG:  Solving for p, Initial residual = 0.2201168724602097, Final residual = 0.00206610897501582, No Iterations 11
[INFO] SolveP: 4690.441 [ms]
time step continuity errors : sum local = 0.04255059374043758, global = -0.0005343949543746917, cumulative = -0.0005256791708796879
[INFO] postSolveP: 185.893 [ms]
[OGL LOG][Proc: 0]: global_index_init: 2.113 [ms]
[OGL LOG][Proc: 0]nuTilda_local_coeffs: call_update: 0 [ms]
[OGL LOG][Proc: 0]nuTilda_non_local_coeffs: call_update: 0 [ms]
[OGL LOG][Proc: 0]nuTilda: update_local_matrix_data: 92.277 [ms]
[OGL LOG][Proc: 0]nuTilda: update_non_local_matrix_data: 0.3 [ms]
[OGL LOG][Proc: 0]nuTilda_matrix: call_update: 25.09 [ms]
[OGL LOG][Proc: 0]nuTilda_rhs: call_update: 19.582 [ms]
[OGL LOG][Preconditioner.H:121] Generate preconditioner BJ MaxBlockSize 1
[OGL LOG][Proc: 0]nuTilda: init_precond: 1.529 [ms]
[OGL LOG][StoppingCriterion.H:373] Creating stopping criterion with minIter 3 frequency 1
[OGL LOG][Proc: 0]nuTilda: generate_solver: 0.003 [ms]
[OGL LOG][Proc: 0]nuTilda: solve: 183.758 [ms]
[OGL LOG][Proc: 0]nuTilda: copy_x_back: 10.376 [ms]
[OGL LOG][lduLduBase.H:336] 
Statistics:
	Time per iteration: 91879 [mu s]
	Time per residual norm calculation: 517.000000 [mu s]
	Time per iteration and DOF: 1.820933 [ns]
	Retrieve results bandwidth 2.899000 [GByte/s]
[OGL LOG][Proc: 0]nuTilda: solve_multi_gpu: 242.352 [ms]
BJhipGKOBiCGStab:  Solving for nuTilda, Initial residual = 0.4032624328907966, Final residual = 0.006102850355881438, No Iterations 2
[INFO] TimeStep: 14596.114 [ms]
ExecutionTime = 107.8 s  ClockTime = 108 s

Time = 3

velocityDampingConstraint velocityDamping damped 7151 (0.01%) of cells, with max limit 300
[INFO] MatrixAssemblyU: 4437.336 [ms]
[OGL LOG][Proc: 0]: global_index_init: 0.167 [ms]
[OGL LOG][Proc: 0]Ux_local_coeffs: call_update: 0 [ms]
[OGL LOG][Proc: 0]Ux_non_local_coeffs: call_update: 0 [ms]
[OGL LOG][Proc: 0]Ux: update_local_matrix_data: 91.491 [ms]
[OGL LOG][Proc: 0]Ux: update_non_local_matrix_data: 0.323 [ms]
[OGL LOG][Proc: 0]Ux_matrix: call_update: 24.364 [ms]
[OGL LOG][Proc: 0]Ux_rhs: call_update: 16.598 [ms]
[OGL LOG][Preconditioner.H:121] Generate preconditioner BJ MaxBlockSize 1
[OGL LOG][Proc: 0]Ux: init_precond: 1.514 [ms]
[OGL LOG][StoppingCriterion.H:373] Creating stopping criterion with minIter 17 frequency 1
[OGL LOG][Proc: 0]Ux: generate_solver: 0.002 [ms]
[OGL LOG][Proc: 0]Ux: solve: 251.22 [ms]
[OGL LOG][Proc: 0]Ux: copy_x_back: 9.994 [ms]
[OGL LOG][lduLduBase.H:336] 
Statistics:
	Time per iteration: 17944 [mu s]
	Time per residual norm calculation: 511.000000 [mu s]
	Time per iteration and DOF: 0.355629 [ns]
	Retrieve results bandwidth 3.010000 [GByte/s]
[OGL LOG][Proc: 0]Ux: solve_multi_gpu: 305.82 [ms]
BJhipGKOBiCGStab:  Solving for Ux, Initial residual = 0.1278764454888829, Final residual = 0.00604193634036518, No Iterations 14
[OGL LOG][Proc: 0]: global_index_init: 0.293 [ms]
[OGL LOG][Proc: 0]Uy_local_coeffs: call_update: 0 [ms]
[OGL LOG][Proc: 0]Uy_non_local_coeffs: call_update: 0 [ms]
[OGL LOG][Proc: 0]Uy: update_local_matrix_data: 90.179 [ms]
[OGL LOG][Proc: 0]Uy: update_non_local_matrix_data: 0.5670000000000001 [ms]
[OGL LOG][Proc: 0]Uy_matrix: call_update: 26.232 [ms]
[OGL LOG][Proc: 0]Uy_rhs: call_update: 17.443 [ms]
[OGL LOG][Preconditioner.H:121] Generate preconditioner BJ MaxBlockSize 1
[OGL LOG][Proc: 0]Uy: init_precond: 1.582 [ms]
[OGL LOG][StoppingCriterion.H:373] Creating stopping criterion with minIter 37 frequency 1
[OGL LOG][Proc: 0]Uy: generate_solver: 0.003 [ms]
[OGL LOG][Proc: 0]Uy: solve: 274.475 [ms]
[OGL LOG][Proc: 0]Uy: copy_x_back: 9.841000000000001 [ms]
[OGL LOG][lduLduBase.H:336] 
Statistics:
	Time per iteration: 14446 [mu s]
	Time per residual norm calculation: 471.000000 [mu s]
	Time per iteration and DOF: 0.286303 [ns]
	Retrieve results bandwidth 3.056000 [GByte/s]
[OGL LOG][Proc: 0]Uy: solve_multi_gpu: 331.587 [ms]
BJhipGKOBiCGStab:  Solving for Uy, Initial residual = 0.2809470402322289, Final residual = 0.005429390588393478, No Iterations 19
[OGL LOG][Proc: 0]: global_index_init: 0.6850000000000001 [ms]
[OGL LOG][Proc: 0]Uz_local_coeffs: call_update: 0 [ms]
[OGL LOG][Proc: 0]Uz_non_local_coeffs: call_update: 0 [ms]
[OGL LOG][Proc: 0]Uz: update_local_matrix_data: 103.396 [ms]
[OGL LOG][Proc: 0]Uz: update_non_local_matrix_data: 0.298 [ms]
[OGL LOG][Proc: 0]Uz_matrix: call_update: 22.792 [ms]
[OGL LOG][Proc: 0]Uz_rhs: call_update: 3.173 [ms]
[OGL LOG][Preconditioner.H:121] Generate preconditioner BJ MaxBlockSize 1
[OGL LOG][Proc: 0]Uz: init_precond: 1.624 [ms]
[OGL LOG][StoppingCriterion.H:373] Creating stopping criterion with minIter 13 frequency 1
[OGL LOG][Proc: 0]Uz: generate_solver: 0.002 [ms]
[OGL LOG][Proc: 0]Uz: solve: 240.281 [ms]
[OGL LOG][Proc: 0]Uz: copy_x_back: 9.701000000000001 [ms]
[OGL LOG][lduLduBase.H:336] 
Statistics:
	Time per iteration: 20023 [mu s]
	Time per residual norm calculation: 495.000000 [mu s]
	Time per iteration and DOF: 0.396832 [ns]
	Retrieve results bandwidth 3.100000 [GByte/s]
[OGL LOG][Proc: 0]Uz: solve_multi_gpu: 279.592 [ms]
BJhipGKOBiCGStab:  Solving for Uz, Initial residual = 0.2589352629938844, Final residual = 0.02041887902208359, No Iterations 12
[INFO] MomentumPredictor: 1515.201 [ms]
[INFO] MatrixAssemblyPI: 718.759 [ms]
[INFO] MatrixAssemblyPII: 348.206 [ms]
GAMG:  Solving for p, Initial residual = 0.1905201537428385, Final residual = 0.001424403170618767, No Iterations 9
[INFO] SolveP: 3876.053 [ms]
time step continuity errors : sum local = 0.01793304810475578, global = -9.397130568019163e-06, cumulative = -0.0005350763014477071
[INFO] postSolveP: 186.31 [ms]
[OGL LOG][Proc: 0]: global_index_init: 1.798 [ms]
[OGL LOG][Proc: 0]nuTilda_local_coeffs: call_update: 0 [ms]
[OGL LOG][Proc: 0]nuTilda_non_local_coeffs: call_update: 0 [ms]
[OGL LOG][Proc: 0]nuTilda: update_local_matrix_data: 93.801 [ms]
[OGL LOG][Proc: 0]nuTilda: update_non_local_matrix_data: 0.305 [ms]
[OGL LOG][Proc: 0]nuTilda_matrix: call_update: 27.527 [ms]
[OGL LOG][Proc: 0]nuTilda_rhs: call_update: 12.306 [ms]
[OGL LOG][Preconditioner.H:121] Generate preconditioner BJ MaxBlockSize 1
[OGL LOG][Proc: 0]nuTilda: init_precond: 1.504 [ms]
[OGL LOG][StoppingCriterion.H:373] Creating stopping criterion with minIter 2 frequency 1
[OGL LOG][Proc: 0]nuTilda: generate_solver: 0.003 [ms]
[OGL LOG][Proc: 0]nuTilda: solve: 188.263 [ms]
[OGL LOG][Proc: 0]nuTilda: copy_x_back: 9.752000000000001 [ms]
[OGL LOG][lduLduBase.H:336] 
Statistics:
	Time per iteration: 94131 [mu s]
	Time per residual norm calculation: 485.000000 [mu s]
	Time per iteration and DOF: 1.865565 [ns]
	Retrieve results bandwidth 3.084000 [GByte/s]
[OGL LOG][Proc: 0]nuTilda: solve_multi_gpu: 241.35 [ms]
BJhipGKOBiCGStab:  Solving for nuTilda, Initial residual = 0.1895606619474413, Final residual = 0.01376365078771349, No Iterations 2
bounding nuTilda, min: -1.188861159329427e-05 max: 0.0008961475386130216 average: 7.950185974018815e-05
[INFO] TimeStep: 14025.998 [ms]
ExecutionTime = 125.34 s  ClockTime = 126 s

Time = 4

velocityDampingConstraint velocityDamping damped 870 (0%) of cells, with max limit 300
[INFO] MatrixAssemblyU: 4567.08 [ms]
[OGL LOG][Proc: 0]: global_index_init: 0.67 [ms]
[OGL LOG][Proc: 0]Ux_local_coeffs: call_update: 0 [ms]
[OGL LOG][Proc: 0]Ux_non_local_coeffs: call_update: 0 [ms]
[OGL LOG][Proc: 0]Ux: update_local_matrix_data: 89.301 [ms]
[OGL LOG][Proc: 0]Ux: update_non_local_matrix_data: 0.308 [ms]
[OGL LOG][Proc: 0]Ux_matrix: call_update: 23.616 [ms]
[OGL LOG][Proc: 0]Ux_rhs: call_update: 18.926 [ms]
[OGL LOG][Preconditioner.H:121] Generate preconditioner BJ MaxBlockSize 1
[OGL LOG][Proc: 0]Ux: init_precond: 1.575 [ms]
[OGL LOG][StoppingCriterion.H:373] Creating stopping criterion with minIter 16 frequency 1
[OGL LOG][Proc: 0]Ux: generate_solver: 0.002 [ms]
[OGL LOG][Proc: 0]Ux: solve: 229.14 [ms]
[OGL LOG][Proc: 0]Ux: copy_x_back: 9.790000000000001 [ms]
[OGL LOG][lduLduBase.H:336] 
Statistics:
	Time per iteration: 22914 [mu s]
	Time per residual norm calculation: 495.000000 [mu s]
	Time per iteration and DOF: 0.454128 [ns]
	Retrieve results bandwidth 3.072000 [GByte/s]
[OGL LOG][Proc: 0]Ux: solve_multi_gpu: 287.85 [ms]
BJhipGKOBiCGStab:  Solving for Ux, Initial residual = 0.1632343687086023, Final residual = 0.0115377022124362, No Iterations 10
[OGL LOG][Proc: 0]: global_index_init: 0.185 [ms]
[OGL LOG][Proc: 0]Uy_local_coeffs: call_update: 0 [ms]
[OGL LOG][Proc: 0]Uy_non_local_coeffs: call_update: 0 [ms]
[OGL LOG][Proc: 0]Uy: update_local_matrix_data: 90.72500000000001 [ms]
[OGL LOG][Proc: 0]Uy: update_non_local_matrix_data: 0.298 [ms]
[OGL LOG][Proc: 0]Uy_matrix: call_update: 24.218 [ms]
[OGL LOG][Proc: 0]Uy_rhs: call_update: 21.351 [ms]
[OGL LOG][Preconditioner.H:121] Generate preconditioner BJ MaxBlockSize 1
[OGL LOG][Proc: 0]Uy: init_precond: 1.519 [ms]
[OGL LOG][StoppingCriterion.H:373] Creating stopping criterion with minIter 22 frequency 1
[OGL LOG][Proc: 0]Uy: generate_solver: 0.003 [ms]
[OGL LOG][Proc: 0]Uy: solve: 230.451 [ms]
[OGL LOG][Proc: 0]Uy: copy_x_back: 9.698 [ms]
[OGL LOG][lduLduBase.H:336] 
Statistics:
	Time per iteration: 19204 [mu s]
	Time per residual norm calculation: 510.000000 [mu s]
	Time per iteration and DOF: 0.380601 [ns]
	Retrieve results bandwidth 3.101000 [GByte/s]
[OGL LOG][Proc: 0]Uy: solve_multi_gpu: 289.196 [ms]
BJhipGKOBiCGStab:  Solving for Uy, Initial residual = 0.2126996110933429, Final residual = 0.01635032868419759, No Iterations 12
[OGL LOG][Proc: 0]: global_index_init: 0.665 [ms]
[OGL LOG][Proc: 0]Uz_local_coeffs: call_update: 0 [ms]
[OGL LOG][Proc: 0]Uz_non_local_coeffs: call_update: 0 [ms]
[OGL LOG][Proc: 0]Uz: update_local_matrix_data: 89.042 [ms]
[OGL LOG][Proc: 0]Uz: update_non_local_matrix_data: 0.304 [ms]
[OGL LOG][Proc: 0]Uz_matrix: call_update: 27.68 [ms]
[OGL LOG][Proc: 0]Uz_rhs: call_update: 10.364 [ms]
[OGL LOG][Preconditioner.H:121] Generate preconditioner BJ MaxBlockSize 1
[OGL LOG][Proc: 0]Uz: init_precond: 1.603 [ms]
[OGL LOG][StoppingCriterion.H:373] Creating stopping criterion with minIter 14 frequency 1
[OGL LOG][Proc: 0]Uz: generate_solver: 0.002 [ms]
[OGL LOG][Proc: 0]Uz: solve: 219.049 [ms]
[OGL LOG][Proc: 0]Uz: copy_x_back: 9.679 [ms]
[OGL LOG][lduLduBase.H:336] 
Statistics:
	Time per iteration: 21904 [mu s]
	Time per residual norm calculation: 311.000000 [mu s]
	Time per iteration and DOF: 0.434111 [ns]
	Retrieve results bandwidth 3.107000 [GByte/s]
[OGL LOG][Proc: 0]Uz: solve_multi_gpu: 270.464 [ms]
BJhipGKOBiCGStab:  Solving for Uz, Initial residual = 0.1991619867211187, Final residual = 0.01909804763201366, No Iterations 10
[INFO] MomentumPredictor: 1429.041 [ms]
[INFO] MatrixAssemblyPI: 718.117 [ms]
[INFO] MatrixAssemblyPII: 353.246 [ms]
GAMG:  Solving for p, Initial residual = 0.1251272739726977, Final residual = 0.001021956039893964, No Iterations 8
[INFO] SolveP: 3471.927 [ms]
time step continuity errors : sum local = 0.01423903029458351, global = -0.0001212252994457506, cumulative = -0.0006563016008934576
[INFO] postSolveP: 186.619 [ms]
[OGL LOG][Proc: 0]: global_index_init: 0.045 [ms]
[OGL LOG][Proc: 0]nuTilda_local_coeffs: call_update: 0 [ms]
[OGL LOG][Proc: 0]nuTilda_non_local_coeffs: call_update: 0 [ms]
[OGL LOG][Proc: 0]nuTilda: update_local_matrix_data: 92.169 [ms]
[OGL LOG][Proc: 0]nuTilda: update_non_local_matrix_data: 0.3 [ms]
[OGL LOG][Proc: 0]nuTilda_matrix: call_update: 29.332 [ms]
[OGL LOG][Proc: 0]nuTilda_rhs: call_update: 9.963000000000001 [ms]
[OGL LOG][Preconditioner.H:121] Generate preconditioner BJ MaxBlockSize 1
[OGL LOG][Proc: 0]nuTilda: init_precond: 1.5 [ms]
[OGL LOG][StoppingCriterion.H:373] Creating stopping criterion with minIter 2 frequency 1
[OGL LOG][Proc: 0]nuTilda: generate_solver: 0.002 [ms]
[OGL LOG][Proc: 0]nuTilda: solve: 182.435 [ms]
[OGL LOG][Proc: 0]nuTilda: copy_x_back: 9.718999999999999 [ms]
[OGL LOG][lduLduBase.H:336] 
Statistics:
	Time per iteration: 91217 [mu s]
	Time per residual norm calculation: 520.000000 [mu s]
	Time per iteration and DOF: 1.807813 [ns]
	Retrieve results bandwidth 3.095000 [GByte/s]
[OGL LOG][Proc: 0]nuTilda: solve_multi_gpu: 235.011 [ms]
BJhipGKOBiCGStab:  Solving for nuTilda, Initial residual = 0.1123556079118138, Final residual = 0.008827422731116452, No Iterations 2
bounding nuTilda, min: -3.341194453803644e-06 max: 0.0009887501180445269 average: 8.433231502238453e-05
[INFO] TimeStep: 13652.587 [ms]
ExecutionTime = 142.63 s  ClockTime = 143 s

Time = 5

velocityDampingConstraint velocityDamping damped 340 (0%) of cells, with max limit 300
[INFO] MatrixAssemblyU: 4564.753 [ms]
[OGL LOG][Proc: 0]: global_index_init: 0.661 [ms]
[OGL LOG][Proc: 0]Ux_local_coeffs: call_update: 0 [ms]
[OGL LOG][Proc: 0]Ux_non_local_coeffs: call_update: 0 [ms]
[OGL LOG][Proc: 0]Ux: update_local_matrix_data: 89.485 [ms]
[OGL LOG][Proc: 0]Ux: update_non_local_matrix_data: 0.304 [ms]
[OGL LOG][Proc: 0]Ux_matrix: call_update: 27.744 [ms]
[OGL LOG][Proc: 0]Ux_rhs: call_update: 13.627 [ms]
[OGL LOG][Preconditioner.H:121] Generate preconditioner BJ MaxBlockSize 1
[OGL LOG][Proc: 0]Ux: init_precond: 1.532 [ms]
[OGL LOG][StoppingCriterion.H:373] Creating stopping criterion with minIter 12 frequency 1
[OGL LOG][Proc: 0]Ux: generate_solver: 0.003 [ms]
[OGL LOG][Proc: 0]Ux: solve: 249.582 [ms]
[OGL LOG][Proc: 0]Ux: copy_x_back: 9.777000000000001 [ms]
[OGL LOG][lduLduBase.H:336] 
Statistics:
	Time per iteration: 17827 [mu s]
	Time per residual norm calculation: 506.000000 [mu s]
	Time per iteration and DOF: 0.353310 [ns]
	Retrieve results bandwidth 3.076000 [GByte/s]
[OGL LOG][Proc: 0]Ux: solve_multi_gpu: 304.236 [ms]
BJhipGKOBiCGStab:  Solving for Ux, Initial residual = 0.07645857547394408, Final residual = 0.005287695187195233, No Iterations 14
[OGL LOG][Proc: 0]: global_index_init: 0.6880000000000001 [ms]
[OGL LOG][Proc: 0]Uy_local_coeffs: call_update: 0 [ms]
[OGL LOG][Proc: 0]Uy_non_local_coeffs: call_update: 0 [ms]
[OGL LOG][Proc: 0]Uy: update_local_matrix_data: 90.21900000000001 [ms]
[OGL LOG][Proc: 0]Uy: update_non_local_matrix_data: 0.511 [ms]
[OGL LOG][Proc: 0]Uy_matrix: call_update: 29.832 [ms]
[OGL LOG][Proc: 0]Uy_rhs: call_update: 15.323 [ms]
[OGL LOG][Preconditioner.H:121] Generate preconditioner BJ MaxBlockSize 1
[OGL LOG][Proc: 0]Uy: init_precond: 1.49 [ms]
[OGL LOG][StoppingCriterion.H:373] Creating stopping criterion with minIter 14 frequency 1
[OGL LOG][Proc: 0]Uy: generate_solver: 0.003 [ms]
[OGL LOG][Proc: 0]Uy: solve: 229.132 [ms]
[OGL LOG][Proc: 0]Uy: copy_x_back: 9.835000000000001 [ms]
[OGL LOG][lduLduBase.H:336] 
Statistics:
	Time per iteration: 20830 [mu s]
	Time per residual norm calculation: 547.000000 [mu s]
	Time per iteration and DOF: 0.412826 [ns]
	Retrieve results bandwidth 3.058000 [GByte/s]
[OGL LOG][Proc: 0]Uy: solve_multi_gpu: 287.605 [ms]
BJhipGKOBiCGStab:  Solving for Uy, Initial residual = 0.1433679829029615, Final residual = 0.01286206270869347, No Iterations 11
[OGL LOG][Proc: 0]: global_index_init: 0.6940000000000001 [ms]
[OGL LOG][Proc: 0]Uz_local_coeffs: call_update: 0 [ms]
[OGL LOG][Proc: 0]Uz_non_local_coeffs: call_update: 0 [ms]
[OGL LOG][Proc: 0]Uz: update_local_matrix_data: 91.19200000000001 [ms]
[OGL LOG][Proc: 0]Uz: update_non_local_matrix_data: 0.295 [ms]
[OGL LOG][Proc: 0]Uz_matrix: call_update: 30.659 [ms]
[OGL LOG][Proc: 0]Uz_rhs: call_update: 11.801 [ms]
[OGL LOG][Preconditioner.H:121] Generate preconditioner BJ MaxBlockSize 1
[OGL LOG][Proc: 0]Uz: init_precond: 1.512 [ms]
[OGL LOG][StoppingCriterion.H:373] Creating stopping criterion with minIter 12 frequency 1
[OGL LOG][Proc: 0]Uz: generate_solver: 0.002 [ms]
[OGL LOG][Proc: 0]Uz: solve: 223.308 [ms]
[OGL LOG][Proc: 0]Uz: copy_x_back: 9.766999999999999 [ms]
[OGL LOG][lduLduBase.H:336] 
Statistics:
	Time per iteration: 22330 [mu s]
	Time per residual norm calculation: 558.000000 [mu s]
	Time per iteration and DOF: 0.442554 [ns]
	Retrieve results bandwidth 3.079000 [GByte/s]
[OGL LOG][Proc: 0]Uz: solve_multi_gpu: 279.062 [ms]
BJhipGKOBiCGStab:  Solving for Uz, Initial residual = 0.1445648944468047, Final residual = 0.0133077889110397, No Iterations 10
[INFO] MomentumPredictor: 1459.407 [ms]
[INFO] MatrixAssemblyPI: 717.914 [ms]
[INFO] MatrixAssemblyPII: 348.885 [ms]
GAMG:  Solving for p, Initial residual = 0.4749463720863801, Final residual = 0.004348314752169043, No Iterations 7
[INFO] SolveP: 3060.575 [ms]
time step continuity errors : sum local = 0.07863204680681288, global = 0.0001154267301461472, cumulative = -0.0005408748707473104
[INFO] postSolveP: 185.729 [ms]
[OGL LOG][Proc: 0]: global_index_init: 1.826 [ms]
[OGL LOG][Proc: 0]nuTilda_local_coeffs: call_update: 0 [ms]
[OGL LOG][Proc: 0]nuTilda_non_local_coeffs: call_update: 0 [ms]
[OGL LOG][Proc: 0]nuTilda: update_local_matrix_data: 91.289 [ms]
[OGL LOG][Proc: 0]nuTilda: update_non_local_matrix_data: 0.409 [ms]
[OGL LOG][Proc: 0]nuTilda_matrix: call_update: 23.01 [ms]
[OGL LOG][Proc: 0]nuTilda_rhs: call_update: 23.221 [ms]
[OGL LOG][Preconditioner.H:121] Generate preconditioner BJ MaxBlockSize 1
[OGL LOG][Proc: 0]nuTilda: init_precond: 1.525 [ms]
[OGL LOG][StoppingCriterion.H:373] Creating stopping criterion with minIter 2 frequency 1
[OGL LOG][Proc: 0]nuTilda: generate_solver: 0.003 [ms]
[OGL LOG][Proc: 0]nuTilda: solve: 188.274 [ms]
[OGL LOG][Proc: 0]nuTilda: copy_x_back: 9.984999999999999 [ms]
[OGL LOG][lduLduBase.H:336] 
Statistics:
	Time per iteration: 94137 [mu s]
	Time per residual norm calculation: 353.000000 [mu s]
	Time per iteration and DOF: 1.865684 [ns]
	Retrieve results bandwidth 3.012000 [GByte/s]
[OGL LOG][Proc: 0]nuTilda: solve_multi_gpu: 248.01 [ms]
BJhipGKOBiCGStab:  Solving for nuTilda, Initial residual = 0.07004608851761303, Final residual = 0.003900207383635989, No Iterations 2
[INFO] TimeStep: 13164.839 [ms]
ExecutionTime = 159.43 s  ClockTime = 160 s

Time = 6

velocityDampingConstraint velocityDamping damped 20627 (0.04%) of cells, with max limit 300
[INFO] MatrixAssemblyU: 4665.326 [ms]
[OGL LOG][Proc: 0]: global_index_init: 0.198 [ms]
[OGL LOG][Proc: 0]Ux_local_coeffs: call_update: 0 [ms]
[OGL LOG][Proc: 0]Ux_non_local_coeffs: call_update: 0 [ms]
[OGL LOG][Proc: 0]Ux: update_local_matrix_data: 90.047 [ms]
[OGL LOG][Proc: 0]Ux: update_non_local_matrix_data: 0.293 [ms]
[OGL LOG][Proc: 0]Ux_matrix: call_update: 26.095 [ms]
[OGL LOG][Proc: 0]Ux_rhs: call_update: 22.459 [ms]
[OGL LOG][Preconditioner.H:121] Generate preconditioner BJ MaxBlockSize 1
[OGL LOG][Proc: 0]Ux: init_precond: 1.606 [ms]
[OGL LOG][StoppingCriterion.H:373] Creating stopping criterion with minIter 16 frequency 1
[OGL LOG][Proc: 0]Ux: generate_solver: 0.003 [ms]
[OGL LOG][Proc: 0]Ux: solve: 238.465 [ms]
[OGL LOG][Proc: 0]Ux: copy_x_back: 9.625 [ms]
[OGL LOG][lduLduBase.H:336] 
Statistics:
	Time per iteration: 23846 [mu s]
	Time per residual norm calculation: 305.000000 [mu s]
	Time per iteration and DOF: 0.472600 [ns]
	Retrieve results bandwidth 3.125000 [GByte/s]
[OGL LOG][Proc: 0]Ux: solve_multi_gpu: 300.327 [ms]
BJhipGKOBiCGStab:  Solving for Ux, Initial residual = 0.1975734019481093, Final residual = 0.01931612796053071, No Iterations 10
[OGL LOG][Proc: 0]: global_index_init: 0.681 [ms]
[OGL LOG][Proc: 0]Uy_local_coeffs: call_update: 0 [ms]
[OGL LOG][Proc: 0]Uy_non_local_coeffs: call_update: 0 [ms]
[OGL LOG][Proc: 0]Uy: update_local_matrix_data: 88.898 [ms]
[OGL LOG][Proc: 0]Uy: update_non_local_matrix_data: 0.391 [ms]
[OGL LOG][Proc: 0]Uy_matrix: call_update: 23.475 [ms]
[OGL LOG][Proc: 0]Uy_rhs: call_update: 18.299 [ms]
[OGL LOG][Preconditioner.H:121] Generate preconditioner BJ MaxBlockSize 1
[OGL LOG][Proc: 0]Uy: init_precond: 1.521 [ms]
[OGL LOG][StoppingCriterion.H:373] Creating stopping criterion with minIter 13 frequency 1
[OGL LOG][Proc: 0]Uy: generate_solver: 0.002 [ms]
[OGL LOG][Proc: 0]Uy: solve: 223.926 [ms]
[OGL LOG][Proc: 0]Uy: copy_x_back: 9.872999999999999 [ms]
[OGL LOG][lduLduBase.H:336] 
Statistics:
	Time per iteration: 24880 [mu s]
	Time per residual norm calculation: 314.000000 [mu s]
	Time per iteration and DOF: 0.493092 [ns]
	Retrieve results bandwidth 3.046000 [GByte/s]
[OGL LOG][Proc: 0]Uy: solve_multi_gpu: 279.085 [ms]
BJhipGKOBiCGStab:  Solving for Uy, Initial residual = 0.7233294121363656, Final residual = 0.06398857603564895, No Iterations 9
[OGL LOG][Proc: 0]: global_index_init: 0.6880000000000001 [ms]
[OGL LOG][Proc: 0]Uz_local_coeffs: call_update: 0 [ms]
[OGL LOG][Proc: 0]Uz_non_local_coeffs: call_update: 0 [ms]
[OGL LOG][Proc: 0]Uz: update_local_matrix_data: 104.901 [ms]
[OGL LOG][Proc: 0]Uz: update_non_local_matrix_data: 0.305 [ms]
[OGL LOG][Proc: 0]Uz_matrix: call_update: 24.455 [ms]
[OGL LOG][Proc: 0]Uz_rhs: call_update: 2.11 [ms]
[OGL LOG][Preconditioner.H:121] Generate preconditioner BJ MaxBlockSize 1
[OGL LOG][Proc: 0]Uz: init_precond: 1.611 [ms]
[OGL LOG][StoppingCriterion.H:373] Creating stopping criterion with minIter 12 frequency 1
[OGL LOG][Proc: 0]Uz: generate_solver: 0.003 [ms]
[OGL LOG][Proc: 0]Uz: solve: 228.048 [ms]
[OGL LOG][Proc: 0]Uz: copy_x_back: 9.778 [ms]
[OGL LOG][lduLduBase.H:336] 
Statistics:
	Time per iteration: 22804 [mu s]
	Time per residual norm calculation: 349.000000 [mu s]
	Time per iteration and DOF: 0.451948 [ns]
	Retrieve results bandwidth 3.076000 [GByte/s]
[OGL LOG][Proc: 0]Uz: solve_multi_gpu: 268.068 [ms]
BJhipGKOBiCGStab:  Solving for Uz, Initial residual = 0.4929401672416902, Final residual = 0.04388348815652458, No Iterations 10
[INFO] MomentumPredictor: 1442.207 [ms]
[INFO] MatrixAssemblyPI: 717.808 [ms]
[INFO] MatrixAssemblyPII: 348.772 [ms]
GAMG:  Solving for p, Initial residual = 0.259667755378247, Final residual = 0.00250855314572324, No Iterations 7
[INFO] SolveP: 3070.471 [ms]
time step continuity errors : sum local = 0.04411356826577924, global = -4.002468038921654e-05, cumulative = -0.000580899551136527
[INFO] postSolveP: 186.126 [ms]
[OGL LOG][Proc: 0]: global_index_init: 2.03 [ms]
[OGL LOG][Proc: 0]nuTilda_local_coeffs: call_update: 0 [ms]
[OGL LOG][Proc: 0]nuTilda_non_local_coeffs: call_update: 0 [ms]
[OGL LOG][Proc: 0]nuTilda: update_local_matrix_data: 92.749 [ms]
[OGL LOG][Proc: 0]nuTilda: update_non_local_matrix_data: 0.298 [ms]
[OGL LOG][Proc: 0]nuTilda_matrix: call_update: 22.853 [ms]
[OGL LOG][Proc: 0]nuTilda_rhs: call_update: 34.274 [ms]
[OGL LOG][Preconditioner.H:121] Generate preconditioner BJ MaxBlockSize 1
[OGL LOG][Proc: 0]nuTilda: init_precond: 1.514 [ms]
[OGL LOG][StoppingCriterion.H:373] Creating stopping criterion with minIter 3 frequency 1
[OGL LOG][Proc: 0]nuTilda: generate_solver: 0.002 [ms]
[OGL LOG][Proc: 0]nuTilda: solve: 186.974 [ms]
[OGL LOG][Proc: 0]nuTilda: copy_x_back: 9.741 [ms]
[OGL LOG][lduLduBase.H:336] 
Statistics:
	Time per iteration: 93487 [mu s]
	Time per residual norm calculation: 512.000000 [mu s]
	Time per iteration and DOF: 1.852802 [ns]
	Retrieve results bandwidth 3.088000 [GByte/s]
[OGL LOG][Proc: 0]nuTilda: solve_multi_gpu: 257.403 [ms]
BJhipGKOBiCGStab:  Solving for nuTilda, Initial residual = 0.06286285945839215, Final residual = 0.006278949347972335, No Iterations 2
[INFO] TimeStep: 13251.914 [ms]
ExecutionTime = 176.4 s  ClockTime = 177 s

Time = 7

velocityDampingConstraint velocityDamping damped 112 (0%) of cells, with max limit 300
[INFO] MatrixAssemblyU: 4641.37 [ms]
[OGL LOG][Proc: 0]: global_index_init: 0.6870000000000001 [ms]
[OGL LOG][Proc: 0]Ux_local_coeffs: call_update: 0 [ms]
[OGL LOG][Proc: 0]Ux_non_local_coeffs: call_update: 0 [ms]
[OGL LOG][Proc: 0]Ux: update_local_matrix_data: 88.809 [ms]
[OGL LOG][Proc: 0]Ux: update_non_local_matrix_data: 0.291 [ms]
[OGL LOG][Proc: 0]Ux_matrix: call_update: 26.367 [ms]
[OGL LOG][Proc: 0]Ux_rhs: call_update: 17.238 [ms]
[OGL LOG][Preconditioner.H:121] Generate preconditioner BJ MaxBlockSize 1
[OGL LOG][Proc: 0]Ux: init_precond: 1.542 [ms]
[OGL LOG][StoppingCriterion.H:373] Creating stopping criterion with minIter 12 frequency 1
[OGL LOG][Proc: 0]Ux: generate_solver: 0.002 [ms]
[OGL LOG][Proc: 0]Ux: solve: 233.099 [ms]
[OGL LOG][Proc: 0]Ux: copy_x_back: 10.329 [ms]
[OGL LOG][lduLduBase.H:336] 
Statistics:
	Time per iteration: 23309 [mu s]
	Time per residual norm calculation: 315.000000 [mu s]
	Time per iteration and DOF: 0.461957 [ns]
	Retrieve results bandwidth 2.912000 [GByte/s]
[OGL LOG][Proc: 0]Ux: solve_multi_gpu: 290.558 [ms]
BJhipGKOBiCGStab:  Solving for Ux, Initial residual = 0.1186810130378017, Final residual = 0.01102011411163832, No Iterations 10
[OGL LOG][Proc: 0]: global_index_init: 0.647 [ms]
[OGL LOG][Proc: 0]Uy_local_coeffs: call_update: 0.001 [ms]
[OGL LOG][Proc: 0]Uy_non_local_coeffs: call_update: 0 [ms]
[OGL LOG][Proc: 0]Uy: update_local_matrix_data: 90.21900000000001 [ms]
[OGL LOG][Proc: 0]Uy: update_non_local_matrix_data: 0.303 [ms]
[OGL LOG][Proc: 0]Uy_matrix: call_update: 27.114 [ms]
[OGL LOG][Proc: 0]Uy_rhs: call_update: 16.993 [ms]
[OGL LOG][Preconditioner.H:121] Generate preconditioner BJ MaxBlockSize 1
[OGL LOG][Proc: 0]Uy: init_precond: 1.505 [ms]
[OGL LOG][StoppingCriterion.H:373] Creating stopping criterion with minIter 11 frequency 1
[OGL LOG][Proc: 0]Uy: generate_solver: 0.003 [ms]
[OGL LOG][Proc: 0]Uy: solve: 229.136 [ms]
[OGL LOG][Proc: 0]Uy: copy_x_back: 9.662000000000001 [ms]
[OGL LOG][lduLduBase.H:336] 
Statistics:
	Time per iteration: 25459 [mu s]
	Time per residual norm calculation: 315.000000 [mu s]
	Time per iteration and DOF: 0.504567 [ns]
	Retrieve results bandwidth 3.113000 [GByte/s]
[OGL LOG][Proc: 0]Uy: solve_multi_gpu: 286.531 [ms]
BJhipGKOBiCGStab:  Solving for Uy, Initial residual = 0.4435855669603326, Final residual = 0.04210294313045357, No Iterations 9
[OGL LOG][Proc: 0]: global_index_init: 0.668 [ms]
[OGL LOG][Proc: 0]Uz_local_coeffs: call_update: 0 [ms]
[OGL LOG][Proc: 0]Uz_non_local_coeffs: call_update: 0 [ms]
[OGL LOG][Proc: 0]Uz: update_local_matrix_data: 89.956 [ms]
[OGL LOG][Proc: 0]Uz: update_non_local_matrix_data: 0.292 [ms]
[OGL LOG][Proc: 0]Uz_matrix: call_update: 25.62 [ms]
[OGL LOG][Proc: 0]Uz_rhs: call_update: 17.752 [ms]
[OGL LOG][Preconditioner.H:121] Generate preconditioner BJ MaxBlockSize 1
[OGL LOG][Proc: 0]Uz: init_precond: 1.545 [ms]
[OGL LOG][StoppingCriterion.H:373] Creating stopping criterion with minIter 12 frequency 1
[OGL LOG][Proc: 0]Uz: generate_solver: 0.003 [ms]
[OGL LOG][Proc: 0]Uz: solve: 243.004 [ms]
[OGL LOG][Proc: 0]Uz: copy_x_back: 9.877000000000001 [ms]
[OGL LOG][lduLduBase.H:336] 
Statistics:
	Time per iteration: 22091 [mu s]
	Time per residual norm calculation: 315.000000 [mu s]
	Time per iteration and DOF: 0.437818 [ns]
	Retrieve results bandwidth 3.045000 [GByte/s]
[OGL LOG][Proc: 0]Uz: solve_multi_gpu: 300.625 [ms]
BJhipGKOBiCGStab:  Solving for Uz, Initial residual = 0.3241031422527457, Final residual = 0.02884622647649854, No Iterations 11
[INFO] MomentumPredictor: 1457.018 [ms]
[INFO] MatrixAssemblyPI: 716.768 [ms]
[INFO] MatrixAssemblyPII: 347.377 [ms]
GAMG:  Solving for p, Initial residual = 0.1522165964846116, Final residual = 0.001105076220302309, No Iterations 8
[INFO] SolveP: 3471.875 [ms]
time step continuity errors : sum local = 0.02170897234209893, global = 1.853868933680287e-05, cumulative = -0.0005623608617997242
[INFO] postSolveP: 185.934 [ms]
[OGL LOG][Proc: 0]: global_index_init: 1.948 [ms]
[OGL LOG][Proc: 0]nuTilda_local_coeffs: call_update: 0 [ms]
[OGL LOG][Proc: 0]nuTilda_non_local_coeffs: call_update: 0 [ms]
[OGL LOG][Proc: 0]nuTilda: update_local_matrix_data: 92.248 [ms]
[OGL LOG][Proc: 0]nuTilda: update_non_local_matrix_data: 0.308 [ms]
[OGL LOG][Proc: 0]nuTilda_matrix: call_update: 32.441 [ms]
[OGL LOG][Proc: 0]nuTilda_rhs: call_update: 12.956 [ms]
[OGL LOG][Preconditioner.H:121] Generate preconditioner BJ MaxBlockSize 1
[OGL LOG][Proc: 0]nuTilda: init_precond: 1.613 [ms]
[OGL LOG][StoppingCriterion.H:373] Creating stopping criterion with minIter 2 frequency 1
[OGL LOG][Proc: 0]nuTilda: generate_solver: 0.003 [ms]
[OGL LOG][Proc: 0]nuTilda: solve: 181.06 [ms]
[OGL LOG][Proc: 0]nuTilda: copy_x_back: 9.747999999999999 [ms]
[OGL LOG][lduLduBase.H:336] 
Statistics:
	Time per iteration: 90530 [mu s]
	Time per residual norm calculation: 316.000000 [mu s]
	Time per iteration and DOF: 1.794198 [ns]
	Retrieve results bandwidth 3.085000 [GByte/s]
[OGL LOG][Proc: 0]nuTilda: solve_multi_gpu: 239.804 [ms]
BJhipGKOBiCGStab:  Solving for nuTilda, Initial residual = 0.04931371949576523, Final residual = 0.002611898814486386, No Iterations 2
[INFO] TimeStep: 13604.022 [ms]
ExecutionTime = 193.71 s  ClockTime = 194 s

Time = 8

velocityDampingConstraint velocityDamping damped 0 (0%) of cells, with max limit 300
[INFO] MatrixAssemblyU: 4584.967 [ms]
[OGL LOG][Proc: 0]: global_index_init: 0.197 [ms]
[OGL LOG][Proc: 0]Ux_local_coeffs: call_update: 0 [ms]
[OGL LOG][Proc: 0]Ux_non_local_coeffs: call_update: 0 [ms]
[OGL LOG][Proc: 0]Ux: update_local_matrix_data: 88.913 [ms]
[OGL LOG][Proc: 0]Ux: update_non_local_matrix_data: 0.283 [ms]
[OGL LOG][Proc: 0]Ux_matrix: call_update: 24.922 [ms]
[OGL LOG][Proc: 0]Ux_rhs: call_update: 18.546 [ms]
[OGL LOG][Preconditioner.H:121] Generate preconditioner BJ MaxBlockSize 1
[OGL LOG][Proc: 0]Ux: init_precond: 1.566 [ms]
[OGL LOG][StoppingCriterion.H:373] Creating stopping criterion with minIter 12 frequency 1
[OGL LOG][Proc: 0]Ux: generate_solver: 0.003 [ms]
[OGL LOG][Proc: 0]Ux: solve: 239.296 [ms]
[OGL LOG][Proc: 0]Ux: copy_x_back: 9.684000000000001 [ms]
[OGL LOG][lduLduBase.H:336] 
Statistics:
	Time per iteration: 19941 [mu s]
	Time per residual norm calculation: 458.000000 [mu s]
	Time per iteration and DOF: 0.395207 [ns]
	Retrieve results bandwidth 3.106000 [GByte/s]
[OGL LOG][Proc: 0]Ux: solve_multi_gpu: 296.059 [ms]
BJhipGKOBiCGStab:  Solving for Ux, Initial residual = 0.07701608128974327, Final residual = 0.006933785886513217, No Iterations 12
[OGL LOG][Proc: 0]: global_index_init: 0.181 [ms]
[OGL LOG][Proc: 0]Uy_local_coeffs: call_update: 0 [ms]
[OGL LOG][Proc: 0]Uy_non_local_coeffs: call_update: 0 [ms]
[OGL LOG][Proc: 0]Uy: update_local_matrix_data: 89.018 [ms]
[OGL LOG][Proc: 0]Uy: update_non_local_matrix_data: 0.289 [ms]
[OGL LOG][Proc: 0]Uy_matrix: call_update: 25.534 [ms]
[OGL LOG][Proc: 0]Uy_rhs: call_update: 17.223 [ms]
[OGL LOG][Preconditioner.H:121] Generate preconditioner BJ MaxBlockSize 1
[OGL LOG][Proc: 0]Uy: init_precond: 1.505 [ms]
[OGL LOG][StoppingCriterion.H:373] Creating stopping criterion with minIter 11 frequency 1
[OGL LOG][Proc: 0]Uy: generate_solver: 0.003 [ms]
[OGL LOG][Proc: 0]Uy: solve: 231.541 [ms]
[OGL LOG][Proc: 0]Uy: copy_x_back: 9.890000000000001 [ms]
[OGL LOG][lduLduBase.H:336] 
Statistics:
	Time per iteration: 23154 [mu s]
	Time per residual norm calculation: 317.000000 [mu s]
	Time per iteration and DOF: 0.458885 [ns]
	Retrieve results bandwidth 3.041000 [GByte/s]
[OGL LOG][Proc: 0]Uy: solve_multi_gpu: 287.676 [ms]
BJhipGKOBiCGStab:  Solving for Uy, Initial residual = 0.2802106833887499, Final residual = 0.02703728496292591, No Iterations 10
[OGL LOG][Proc: 0]: global_index_init: 0.6850000000000001 [ms]
[OGL LOG][Proc: 0]Uz_local_coeffs: call_update: 0 [ms]
[OGL LOG][Proc: 0]Uz_non_local_coeffs: call_update: 0 [ms]
[OGL LOG][Proc: 0]Uz: update_local_matrix_data: 89.55500000000001 [ms]
[OGL LOG][Proc: 0]Uz: update_non_local_matrix_data: 0.299 [ms]
[OGL LOG][Proc: 0]Uz_matrix: call_update: 27.142 [ms]
[OGL LOG][Proc: 0]Uz_rhs: call_update: 14.594 [ms]
[OGL LOG][Preconditioner.H:121] Generate preconditioner BJ MaxBlockSize 1
[OGL LOG][Proc: 0]Uz: init_precond: 1.564 [ms]
[OGL LOG][StoppingCriterion.H:373] Creating stopping criterion with minIter 13 frequency 1
[OGL LOG][Proc: 0]Uz: generate_solver: 0.003 [ms]
[OGL LOG][Proc: 0]Uz: solve: 230.309 [ms]
[OGL LOG][Proc: 0]Uz: copy_x_back: 9.847 [ms]
[OGL LOG][lduLduBase.H:336] 
Statistics:
	Time per iteration: 20937 [mu s]
	Time per residual norm calculation: 349.000000 [mu s]
	Time per iteration and DOF: 0.414947 [ns]
	Retrieve results bandwidth 3.054000 [GByte/s]
[OGL LOG][Proc: 0]Uz: solve_multi_gpu: 285.426 [ms]
BJhipGKOBiCGStab:  Solving for Uz, Initial residual = 0.2385793364141117, Final residual = 0.02318899952097105, No Iterations 11
[INFO] MomentumPredictor: 1448.132 [ms]
[INFO] MatrixAssemblyPI: 717.978 [ms]
[INFO] MatrixAssemblyPII: 349.827 [ms]
GAMG:  Solving for p, Initial residual = 0.1502608831511494, Final residual = 0.0008953403462412017, No Iterations 6
[INFO] SolveP: 2656.277 [ms]
time step continuity errors : sum local = 0.01901519507353482, global = 0.000116068378204768, cumulative = -0.0004462924835949561
[INFO] postSolveP: 188.097 [ms]
[OGL LOG][Proc: 0]: global_index_init: 0.045 [ms]
[OGL LOG][Proc: 0]nuTilda_local_coeffs: call_update: 0 [ms]
[OGL LOG][Proc: 0]nuTilda_non_local_coeffs: call_update: 0 [ms]
[OGL LOG][Proc: 0]nuTilda: update_local_matrix_data: 91.15600000000001 [ms]
[OGL LOG][Proc: 0]nuTilda: update_non_local_matrix_data: 0.308 [ms]
[OGL LOG][Proc: 0]nuTilda_matrix: call_update: 27.393 [ms]
[OGL LOG][Proc: 0]nuTilda_rhs: call_update: 17.224 [ms]
[OGL LOG][Preconditioner.H:121] Generate preconditioner BJ MaxBlockSize 1
[OGL LOG][Proc: 0]nuTilda: init_precond: 1.535 [ms]
[OGL LOG][StoppingCriterion.H:373] Creating stopping criterion with minIter 3 frequency 1
[OGL LOG][Proc: 0]nuTilda: generate_solver: 0.003 [ms]
[OGL LOG][Proc: 0]nuTilda: solve: 180.701 [ms]
[OGL LOG][Proc: 0]nuTilda: copy_x_back: 9.866 [ms]
[OGL LOG][lduLduBase.H:336] 
Statistics:
	Time per iteration: 90350 [mu s]
	Time per residual norm calculation: 505.000000 [mu s]
	Time per iteration and DOF: 1.790630 [ns]
	Retrieve results bandwidth 3.049000 [GByte/s]
[OGL LOG][Proc: 0]nuTilda: solve_multi_gpu: 238.742 [ms]
BJhipGKOBiCGStab:  Solving for nuTilda, Initial residual = 0.05972121202506055, Final residual = 0.005526161615520328, No Iterations 2
[INFO] TimeStep: 12731.188 [ms]
ExecutionTime = 210.1 s  ClockTime = 211 s

Time = 9

velocityDampingConstraint velocityDamping damped 0 (0%) of cells, with max limit 300
[INFO] MatrixAssemblyU: 4580.418 [ms]
[OGL LOG][Proc: 0]: global_index_init: 0.678 [ms]
[OGL LOG][Proc: 0]Ux_local_coeffs: call_update: 0 [ms]
[OGL LOG][Proc: 0]Ux_non_local_coeffs: call_update: 0 [ms]
[OGL LOG][Proc: 0]Ux: update_local_matrix_data: 90.398 [ms]
[OGL LOG][Proc: 0]Ux: update_non_local_matrix_data: 0.304 [ms]
[OGL LOG][Proc: 0]Ux_matrix: call_update: 28.482 [ms]
[OGL LOG][Proc: 0]Ux_rhs: call_update: 17.45 [ms]
[OGL LOG][Preconditioner.H:121] Generate preconditioner BJ MaxBlockSize 1
[OGL LOG][Proc: 0]Ux: init_precond: 1.515 [ms]
[OGL LOG][StoppingCriterion.H:373] Creating stopping criterion with minIter 14 frequency 1
[OGL LOG][Proc: 0]Ux: generate_solver: 0.002 [ms]
[OGL LOG][Proc: 0]Ux: solve: 228.635 [ms]
[OGL LOG][Proc: 0]Ux: copy_x_back: 9.747999999999999 [ms]
[OGL LOG][lduLduBase.H:336] 
Statistics:
	Time per iteration: 20785 [mu s]
	Time per residual norm calculation: 503.000000 [mu s]
	Time per iteration and DOF: 0.411934 [ns]
	Retrieve results bandwidth 3.085000 [GByte/s]
[OGL LOG][Proc: 0]Ux: solve_multi_gpu: 287.86 [ms]
BJhipGKOBiCGStab:  Solving for Ux, Initial residual = 0.09494875812521401, Final residual = 0.00643634665489332, No Iterations 11
[OGL LOG][Proc: 0]: global_index_init: 0.907 [ms]
[OGL LOG][Proc: 0]Uy_local_coeffs: call_update: 0 [ms]
[OGL LOG][Proc: 0]Uy_non_local_coeffs: call_update: 0 [ms]
[OGL LOG][Proc: 0]Uy: update_local_matrix_data: 89.01900000000001 [ms]
[OGL LOG][Proc: 0]Uy: update_non_local_matrix_data: 0.301 [ms]
[OGL LOG][Proc: 0]Uy_matrix: call_update: 22.69 [ms]
[OGL LOG][Proc: 0]Uy_rhs: call_update: 20.094 [ms]
[OGL LOG][Preconditioner.H:121] Generate preconditioner BJ MaxBlockSize 1
[OGL LOG][Proc: 0]Uy: init_precond: 1.497 [ms]
[OGL LOG][StoppingCriterion.H:373] Creating stopping criterion with minIter 12 frequency 1
[OGL LOG][Proc: 0]Uy: generate_solver: 0.003 [ms]
[OGL LOG][Proc: 0]Uy: solve: 255.752 [ms]
[OGL LOG][Proc: 0]Uy: copy_x_back: 10.181 [ms]
[OGL LOG][lduLduBase.H:336] 
Statistics:
	Time per iteration: 18268 [mu s]
	Time per residual norm calculation: 459.000000 [mu s]
	Time per iteration and DOF: 0.362050 [ns]
	Retrieve results bandwidth 2.954000 [GByte/s]
[OGL LOG][Proc: 0]Uy: solve_multi_gpu: 312.275 [ms]
BJhipGKOBiCGStab:  Solving for Uy, Initial residual = 0.2449680146688915, Final residual = 0.01234639941606536, No Iterations 14
[OGL LOG][Proc: 0]: global_index_init: 0.6980000000000001 [ms]
[OGL LOG][Proc: 0]Uz_local_coeffs: call_update: 0 [ms]
[OGL LOG][Proc: 0]Uz_non_local_coeffs: call_update: 0 [ms]
[OGL LOG][Proc: 0]Uz: update_local_matrix_data: 108.293 [ms]
[OGL LOG][Proc: 0]Uz: update_non_local_matrix_data: 0.303 [ms]
[OGL LOG][Proc: 0]Uz_matrix: call_update: 28.922 [ms]
[OGL LOG][Proc: 0]Uz_rhs: call_update: 2.089 [ms]
[OGL LOG][Preconditioner.H:121] Generate preconditioner BJ MaxBlockSize 1
[OGL LOG][Proc: 0]Uz: init_precond: 1.632 [ms]
[OGL LOG][StoppingCriterion.H:373] Creating stopping criterion with minIter 13 frequency 1
[OGL LOG][Proc: 0]Uz: generate_solver: 0.003 [ms]
[OGL LOG][Proc: 0]Uz: solve: 239.864 [ms]
[OGL LOG][Proc: 0]Uz: copy_x_back: 9.965 [ms]
[OGL LOG][lduLduBase.H:336] 
Statistics:
	Time per iteration: 19988 [mu s]
	Time per residual norm calculation: 314.000000 [mu s]
	Time per iteration and DOF: 0.396139 [ns]
	Retrieve results bandwidth 3.018000 [GByte/s]
[OGL LOG][Proc: 0]Uz: solve_multi_gpu: 284.531 [ms]
BJhipGKOBiCGStab:  Solving for Uz, Initial residual = 0.2052750064729995, Final residual = 0.01878810985514194, No Iterations 12
[INFO] MomentumPredictor: 1483.837 [ms]
[INFO] MatrixAssemblyPI: 715.998 [ms]
[INFO] MatrixAssemblyPII: 348.974 [ms]
GAMG:  Solving for p, Initial residual = 0.1262204586612408, Final residual = 0.0008012860519540186, No Iterations 6
[INFO] SolveP: 2643.109 [ms]
time step continuity errors : sum local = 0.01603782448112668, global = -4.708006829748981e-05, cumulative = -0.000493372551892446
[INFO] postSolveP: 185.156 [ms]
[OGL LOG][Proc: 0]: global_index_init: 1.832 [ms]
[OGL LOG][Proc: 0]nuTilda_local_coeffs: call_update: 0 [ms]
[OGL LOG][Proc: 0]nuTilda_non_local_coeffs: call_update: 0 [ms]
[OGL LOG][Proc: 0]nuTilda: update_local_matrix_data: 92.633 [ms]
[OGL LOG][Proc: 0]nuTilda: update_non_local_matrix_data: 0.307 [ms]
[OGL LOG][Proc: 0]nuTilda_matrix: call_update: 22.342 [ms]
[OGL LOG][Proc: 0]nuTilda_rhs: call_update: 16.065 [ms]
[OGL LOG][Preconditioner.H:121] Generate preconditioner BJ MaxBlockSize 1
[OGL LOG][Proc: 0]nuTilda: init_precond: 1.485 [ms]
[OGL LOG][StoppingCriterion.H:373] Creating stopping criterion with minIter 2 frequency 1
[OGL LOG][Proc: 0]nuTilda: generate_solver: 0.002 [ms]
[OGL LOG][Proc: 0]nuTilda: solve: 184.696 [ms]
[OGL LOG][Proc: 0]nuTilda: copy_x_back: 9.734 [ms]
[OGL LOG][lduLduBase.H:336] 
Statistics:
	Time per iteration: 92348 [mu s]
	Time per residual norm calculation: 309.000000 [mu s]
	Time per iteration and DOF: 1.830228 [ns]
	Retrieve results bandwidth 3.090000 [GByte/s]
[OGL LOG][Proc: 0]nuTilda: solve_multi_gpu: 236.444 [ms]
BJhipGKOBiCGStab:  Solving for nuTilda, Initial residual = 0.04310942726646401, Final residual = 0.00212153496227734, No Iterations 2
[INFO] TimeStep: 12729.149 [ms]
ExecutionTime = 226.48 s  ClockTime = 227 s

Time = 10

velocityDampingConstraint velocityDamping damped 0 (0%) of cells, with max limit 300
[INFO] MatrixAssemblyU: 4525.993 [ms]
[OGL LOG][Proc: 0]: global_index_init: 1.716 [ms]
[OGL LOG][Proc: 0]Ux_local_coeffs: call_update: 0 [ms]
[OGL LOG][Proc: 0]Ux_non_local_coeffs: call_update: 0 [ms]
[OGL LOG][Proc: 0]Ux: update_local_matrix_data: 91.931 [ms]
[OGL LOG][Proc: 0]Ux: update_non_local_matrix_data: 0.299 [ms]
[OGL LOG][Proc: 0]Ux_matrix: call_update: 26.188 [ms]
[OGL LOG][Proc: 0]Ux_rhs: call_update: 17.15 [ms]
[OGL LOG][Preconditioner.H:121] Generate preconditioner BJ MaxBlockSize 1
[OGL LOG][Proc: 0]Ux: init_precond: 1.505 [ms]
[OGL LOG][StoppingCriterion.H:373] Creating stopping criterion with minIter 13 frequency 1
[OGL LOG][Proc: 0]Ux: generate_solver: 0.003 [ms]
[OGL LOG][Proc: 0]Ux: solve: 244.665 [ms]
[OGL LOG][Proc: 0]Ux: copy_x_back: 10.206 [ms]
[OGL LOG][lduLduBase.H:336] 
Statistics:
	Time per iteration: 24466 [mu s]
	Time per residual norm calculation: 311.000000 [mu s]
	Time per iteration and DOF: 0.484887 [ns]
	Retrieve results bandwidth 2.947000 [GByte/s]
[OGL LOG][Proc: 0]Ux: solve_multi_gpu: 301.816 [ms]
BJhipGKOBiCGStab:  Solving for Ux, Initial residual = 0.04784448066403025, Final residual = 0.004679435552728829, No Iterations 10
[OGL LOG][Proc: 0]: global_index_init: 0.678 [ms]
[OGL LOG][Proc: 0]Uy_local_coeffs: call_update: 0 [ms]
[OGL LOG][Proc: 0]Uy_non_local_coeffs: call_update: 0 [ms]
[OGL LOG][Proc: 0]Uy: update_local_matrix_data: 92.348 [ms]
[OGL LOG][Proc: 0]Uy: update_non_local_matrix_data: 0.293 [ms]
[OGL LOG][Proc: 0]Uy_matrix: call_update: 24.73 [ms]
[OGL LOG][Proc: 0]Uy_rhs: call_update: 16.399 [ms]
[OGL LOG][Preconditioner.H:121] Generate preconditioner BJ MaxBlockSize 1
[OGL LOG][Proc: 0]Uy: init_precond: 1.569 [ms]
[OGL LOG][StoppingCriterion.H:373] Creating stopping criterion with minIter 16 frequency 1
[OGL LOG][Proc: 0]Uy: generate_solver: 0.002 [ms]
[OGL LOG][Proc: 0]Uy: solve: 240.483 [ms]
[OGL LOG][Proc: 0]Uy: copy_x_back: 9.668000000000001 [ms]
[OGL LOG][lduLduBase.H:336] 
Statistics:
	Time per iteration: 20040 [mu s]
	Time per residual norm calculation: 547.000000 [mu s]
	Time per iteration and DOF: 0.397169 [ns]
	Retrieve results bandwidth 3.111000 [GByte/s]
[OGL LOG][Proc: 0]Uy: solve_multi_gpu: 295.018 [ms]
BJhipGKOBiCGStab:  Solving for Uy, Initial residual = 0.226767399038915, Final residual = 0.02213042766005181, No Iterations 12
[OGL LOG][Proc: 0]: global_index_init: 0.018 [ms]
[OGL LOG][Proc: 0]Uz_local_coeffs: call_update: 0 [ms]
[OGL LOG][Proc: 0]Uz_non_local_coeffs: call_update: 0 [ms]
[OGL LOG][Proc: 0]Uz: update_local_matrix_data: 93.033 [ms]
[OGL LOG][Proc: 0]Uz: update_non_local_matrix_data: 0.301 [ms]
[OGL LOG][Proc: 0]Uz_matrix: call_update: 24.873 [ms]
[OGL LOG][Proc: 0]Uz_rhs: call_update: 11.689 [ms]
[OGL LOG][Preconditioner.H:121] Generate preconditioner BJ MaxBlockSize 1
[OGL LOG][Proc: 0]Uz: init_precond: 1.501 [ms]
[OGL LOG][StoppingCriterion.H:373] Creating stopping criterion with minIter 15 frequency 1
[OGL LOG][Proc: 0]Uz: generate_solver: 0.002 [ms]
[OGL LOG][Proc: 0]Uz: solve: 230.413 [ms]
[OGL LOG][Proc: 0]Uz: copy_x_back: 9.973000000000001 [ms]
[OGL LOG][lduLduBase.H:336] 
Statistics:
	Time per iteration: 23041 [mu s]
	Time per residual norm calculation: 316.000000 [mu s]
	Time per iteration and DOF: 0.456645 [ns]
	Retrieve results bandwidth 3.016000 [GByte/s]
[OGL LOG][Proc: 0]Uz: solve_multi_gpu: 280.49 [ms]
BJhipGKOBiCGStab:  Solving for Uz, Initial residual = 0.1562871566362967, Final residual = 0.01383747109969, No Iterations 10
[INFO] MomentumPredictor: 1466.715 [ms]
[INFO] MatrixAssemblyPI: 743.187 [ms]
[INFO] MatrixAssemblyPII: 348.332 [ms]
GAMG:  Solving for p, Initial residual = 0.101305084133085, Final residual = 0.0008783392195213675, No Iterations 5
[INFO] SolveP: 2238.898 [ms]
time step continuity errors : sum local = 0.01708118265527988, global = -3.183995102523062e-05, cumulative = -0.0005252125029176766
[INFO] postSolveP: 187.16 [ms]
[OGL LOG][Proc: 0]: global_index_init: 2.903 [ms]
[OGL LOG][Proc: 0]nuTilda_local_coeffs: call_update: 0 [ms]
[OGL LOG][Proc: 0]nuTilda_non_local_coeffs: call_update: 0 [ms]
[OGL LOG][Proc: 0]nuTilda: update_local_matrix_data: 92.45700000000001 [ms]
[OGL LOG][Proc: 0]nuTilda: update_non_local_matrix_data: 0.299 [ms]
[OGL LOG][Proc: 0]nuTilda_matrix: call_update: 25.272 [ms]
[OGL LOG][Proc: 0]nuTilda_rhs: call_update: 38.269 [ms]
[OGL LOG][Preconditioner.H:121] Generate preconditioner BJ MaxBlockSize 1
[OGL LOG][Proc: 0]nuTilda: init_precond: 1.522 [ms]
[OGL LOG][StoppingCriterion.H:373] Creating stopping criterion with minIter 3 frequency 1
[OGL LOG][Proc: 0]nuTilda: generate_solver: 0.003 [ms]
[OGL LOG][Proc: 0]nuTilda: solve: 182.023 [ms]
[OGL LOG][Proc: 0]nuTilda: copy_x_back: 9.739000000000001 [ms]
[OGL LOG][lduLduBase.H:336] 
Statistics:
	Time per iteration: 91011 [mu s]
	Time per residual norm calculation: 508.000000 [mu s]
	Time per iteration and DOF: 1.803731 [ns]
	Retrieve results bandwidth 3.088000 [GByte/s]
[OGL LOG][Proc: 0]nuTilda: solve_multi_gpu: 258.88 [ms]
BJhipGKOBiCGStab:  Solving for nuTilda, Initial residual = 0.06126720917916664, Final residual = 0.005428724933081825, No Iterations 2
[INFO] TimeStep: 12280.272 [ms]
ExecutionTime = 242.35 s  ClockTime = 243 s

Time = 11

velocityDampingConstraint velocityDamping damped 0 (0%) of cells, with max limit 300
[INFO] MatrixAssemblyU: 4450.409 [ms]
[OGL LOG][Proc: 0]: global_index_init: 0.6830000000000001 [ms]
[OGL LOG][Proc: 0]Ux_local_coeffs: call_update: 0 [ms]
[OGL LOG][Proc: 0]Ux_non_local_coeffs: call_update: 0 [ms]
[OGL LOG][Proc: 0]Ux: update_local_matrix_data: 87.773 [ms]
[OGL LOG][Proc: 0]Ux: update_non_local_matrix_data: 0.304 [ms]
[OGL LOG][Proc: 0]Ux_matrix: call_update: 25.474 [ms]
[OGL LOG][Proc: 0]Ux_rhs: call_update: 17.127 [ms]
[OGL LOG][Preconditioner.H:121] Generate preconditioner BJ MaxBlockSize 1
[OGL LOG][Proc: 0]Ux: init_precond: 1.561 [ms]
[OGL LOG][StoppingCriterion.H:373] Creating stopping criterion with minIter 12 frequency 1
[OGL LOG][Proc: 0]Ux: generate_solver: 0.002 [ms]
[OGL LOG][Proc: 0]Ux: solve: 235.124 [ms]
[OGL LOG][Proc: 0]Ux: copy_x_back: 9.692 [ms]
[OGL LOG][lduLduBase.H:336] 
Statistics:
	Time per iteration: 21374 [mu s]
	Time per residual norm calculation: 354.000000 [mu s]
	Time per iteration and DOF: 0.423607 [ns]
	Retrieve results bandwidth 3.103000 [GByte/s]
[OGL LOG][Proc: 0]Ux: solve_multi_gpu: 290.981 [ms]
BJhipGKOBiCGStab:  Solving for Ux, Initial residual = 0.03210291791845617, Final residual = 0.002738742633140888, No Iterations 11
[OGL LOG][Proc: 0]: global_index_init: 0.6850000000000001 [ms]
[OGL LOG][Proc: 0]Uy_local_coeffs: call_update: 0 [ms]
[OGL LOG][Proc: 0]Uy_non_local_coeffs: call_update: 0 [ms]
[OGL LOG][Proc: 0]Uy: update_local_matrix_data: 90.43300000000001 [ms]
[OGL LOG][Proc: 0]Uy: update_non_local_matrix_data: 0.308 [ms]
[OGL LOG][Proc: 0]Uy_matrix: call_update: 26.798 [ms]
[OGL LOG][Proc: 0]Uy_rhs: call_update: 16.475 [ms]
[OGL LOG][Preconditioner.H:121] Generate preconditioner BJ MaxBlockSize 1
[OGL LOG][Proc: 0]Uy: init_precond: 1.575 [ms]
[OGL LOG][StoppingCriterion.H:373] Creating stopping criterion with minIter 14 frequency 1
[OGL LOG][Proc: 0]Uy: generate_solver: 0.002 [ms]
[OGL LOG][Proc: 0]Uy: solve: 222.769 [ms]
[OGL LOG][Proc: 0]Uy: copy_x_back: 9.82 [ms]
[OGL LOG][lduLduBase.H:336] 
Statistics:
	Time per iteration: 22276 [mu s]
	Time per residual norm calculation: 493.000000 [mu s]
	Time per iteration and DOF: 0.441484 [ns]
	Retrieve results bandwidth 3.063000 [GByte/s]
[OGL LOG][Proc: 0]Uy: solve_multi_gpu: 279.511 [ms]
BJhipGKOBiCGStab:  Solving for Uy, Initial residual = 0.1565606401197116, Final residual = 0.01538745710318506, No Iterations 10
[OGL LOG][Proc: 0]: global_index_init: 0.678 [ms]
[OGL LOG][Proc: 0]Uz_local_coeffs: call_update: 0.001 [ms]
[OGL LOG][Proc: 0]Uz_non_local_coeffs: call_update: 0 [ms]
[OGL LOG][Proc: 0]Uz: update_local_matrix_data: 90.708 [ms]
[OGL LOG][Proc: 0]Uz: update_non_local_matrix_data: 0.297 [ms]
[OGL LOG][Proc: 0]Uz_matrix: call_update: 25.66 [ms]
[OGL LOG][Proc: 0]Uz_rhs: call_update: 15.657 [ms]
[OGL LOG][Preconditioner.H:121] Generate preconditioner BJ MaxBlockSize 1
[OGL LOG][Proc: 0]Uz: init_precond: 1.932 [ms]
[OGL LOG][StoppingCriterion.H:373] Creating stopping criterion with minIter 12 frequency 1
[OGL LOG][Proc: 0]Uz: generate_solver: 0.002 [ms]
[OGL LOG][Proc: 0]Uz: solve: 239.824 [ms]
[OGL LOG][Proc: 0]Uz: copy_x_back: 9.803000000000001 [ms]
[OGL LOG][lduLduBase.H:336] 
Statistics:
	Time per iteration: 21802 [mu s]
	Time per residual norm calculation: 354.000000 [mu s]
	Time per iteration and DOF: 0.432090 [ns]
	Retrieve results bandwidth 3.068000 [GByte/s]
[OGL LOG][Proc: 0]Uz: solve_multi_gpu: 294.93 [ms]
BJhipGKOBiCGStab:  Solving for Uz, Initial residual = 0.1168309604147314, Final residual = 0.01077372522377089, No Iterations 11
[INFO] MomentumPredictor: 1451.146 [ms]
[INFO] MatrixAssemblyPI: 723.904 [ms]
[INFO] MatrixAssemblyPII: 348.851 [ms]
GAMG:  Solving for p, Initial residual = 0.09103157470231066, Final residual = 0.0006932438200760961, No Iterations 5
[INFO] SolveP: 2265.521 [ms]
time step continuity errors : sum local = 0.01305874107228225, global = 5.080671095449302e-05, cumulative = -0.0004744057919631836
[INFO] postSolveP: 186.025 [ms]
[OGL LOG][Proc: 0]: global_index_init: 0.044 [ms]
[OGL LOG][Proc: 0]nuTilda_local_coeffs: call_update: 0 [ms]
[OGL LOG][Proc: 0]nuTilda_non_local_coeffs: call_update: 0 [ms]
[OGL LOG][Proc: 0]nuTilda: update_local_matrix_data: 93.246 [ms]
[OGL LOG][Proc: 0]nuTilda: update_non_local_matrix_data: 0.303 [ms]
[OGL LOG][Proc: 0]nuTilda_matrix: call_update: 29.759 [ms]
[OGL LOG][Proc: 0]nuTilda_rhs: call_update: 13.224 [ms]
[OGL LOG][Preconditioner.H:121] Generate preconditioner BJ MaxBlockSize 1
[OGL LOG][Proc: 0]nuTilda: init_precond: 1.509 [ms]
[OGL LOG][StoppingCriterion.H:373] Creating stopping criterion with minIter 2 frequency 1
[OGL LOG][Proc: 0]nuTilda: generate_solver: 0.003 [ms]
[OGL LOG][Proc: 0]nuTilda: solve: 178.217 [ms]
[OGL LOG][Proc: 0]nuTilda: copy_x_back: 9.718 [ms]
[OGL LOG][lduLduBase.H:336] 
Statistics:
	Time per iteration: 89108 [mu s]
	Time per residual norm calculation: 309.000000 [mu s]
	Time per iteration and DOF: 1.766016 [ns]
	Retrieve results bandwidth 3.095000 [GByte/s]
[OGL LOG][Proc: 0]nuTilda: solve_multi_gpu: 234.416 [ms]
BJhipGKOBiCGStab:  Solving for nuTilda, Initial residual = 0.03855435766471388, Final residual = 0.001892819792524267, No Iterations 2
[INFO] TimeStep: 12164.171 [ms]
ExecutionTime = 258.05 s  ClockTime = 259 s

Time = 12

velocityDampingConstraint velocityDamping damped 0 (0%) of cells, with max limit 300
[INFO] MatrixAssemblyU: 4434.583 [ms]
[OGL LOG][Proc: 0]: global_index_init: 0.64 [ms]
[OGL LOG][Proc: 0]Ux_local_coeffs: call_update: 0 [ms]
[OGL LOG][Proc: 0]Ux_non_local_coeffs: call_update: 0 [ms]
[OGL LOG][Proc: 0]Ux: update_local_matrix_data: 89.923 [ms]
[OGL LOG][Proc: 0]Ux: update_non_local_matrix_data: 0.296 [ms]
[OGL LOG][Proc: 0]Ux_matrix: call_update: 25.815 [ms]
[OGL LOG][Proc: 0]Ux_rhs: call_update: 15.413 [ms]
[OGL LOG][Preconditioner.H:121] Generate preconditioner BJ MaxBlockSize 1
[OGL LOG][Proc: 0]Ux: init_precond: 1.555 [ms]
[OGL LOG][StoppingCriterion.H:373] Creating stopping criterion with minIter 13 frequency 1
[OGL LOG][Proc: 0]Ux: generate_solver: 0.002 [ms]
[OGL LOG][Proc: 0]Ux: solve: 229.787 [ms]
[OGL LOG][Proc: 0]Ux: copy_x_back: 9.717000000000001 [ms]
[OGL LOG][lduLduBase.H:336] 
Statistics:
	Time per iteration: 22978 [mu s]
	Time per residual norm calculation: 310.000000 [mu s]
	Time per iteration and DOF: 0.455397 [ns]
	Retrieve results bandwidth 3.095000 [GByte/s]
[OGL LOG][Proc: 0]Ux: solve_multi_gpu: 284.292 [ms]
BJhipGKOBiCGStab:  Solving for Ux, Initial residual = 0.02798469851876189, Final residual = 0.002191445659713537, No Iterations 10
[OGL LOG][Proc: 0]: global_index_init: 0.679 [ms]
[OGL LOG][Proc: 0]Uy_local_coeffs: call_update: 0 [ms]
[OGL LOG][Proc: 0]Uy_non_local_coeffs: call_update: 0 [ms]
[OGL LOG][Proc: 0]Uy: update_local_matrix_data: 91.349 [ms]
[OGL LOG][Proc: 0]Uy: update_non_local_matrix_data: 0.302 [ms]
[OGL LOG][Proc: 0]Uy_matrix: call_update: 26.875 [ms]
[OGL LOG][Proc: 0]Uy_rhs: call_update: 12.783 [ms]
[OGL LOG][Preconditioner.H:121] Generate preconditioner BJ MaxBlockSize 1
[OGL LOG][Proc: 0]Uy: init_precond: 1.582 [ms]
[OGL LOG][StoppingCriterion.H:373] Creating stopping criterion with minIter 12 frequency 1
[OGL LOG][Proc: 0]Uy: generate_solver: 0.003 [ms]
[OGL LOG][Proc: 0]Uy: solve: 246.592 [ms]
[OGL LOG][Proc: 0]Uy: copy_x_back: 10.408 [ms]
[OGL LOG][lduLduBase.H:336] 
Statistics:
	Time per iteration: 18968 [mu s]
	Time per residual norm calculation: 312.000000 [mu s]
	Time per iteration and DOF: 0.375923 [ns]
	Retrieve results bandwidth 2.890000 [GByte/s]
[OGL LOG][Proc: 0]Uy: solve_multi_gpu: 300.276 [ms]
BJhipGKOBiCGStab:  Solving for Uy, Initial residual = 0.1334041084845161, Final residual = 0.01162190936488827, No Iterations 13
[OGL LOG][Proc: 0]: global_index_init: 0.669 [ms]
[OGL LOG][Proc: 0]Uz_local_coeffs: call_update: 0 [ms]
[OGL LOG][Proc: 0]Uz_non_local_coeffs: call_update: 0 [ms]
[OGL LOG][Proc: 0]Uz: update_local_matrix_data: 105.018 [ms]
[OGL LOG][Proc: 0]Uz: update_non_local_matrix_data: 0.298 [ms]
[OGL LOG][Proc: 0]Uz_matrix: call_update: 28.202 [ms]
[OGL LOG][Proc: 0]Uz_rhs: call_update: 2.303 [ms]
[OGL LOG][Preconditioner.H:121] Generate preconditioner BJ MaxBlockSize 1
[OGL LOG][Proc: 0]Uz: init_precond: 1.586 [ms]
[OGL LOG][StoppingCriterion.H:373] Creating stopping criterion with minIter 13 frequency 1
[OGL LOG][Proc: 0]Uz: generate_solver: 0.003 [ms]
[OGL LOG][Proc: 0]Uz: solve: 243.37 [ms]
[OGL LOG][Proc: 0]Uz: copy_x_back: 9.841000000000001 [ms]
[OGL LOG][lduLduBase.H:336] 
Statistics:
	Time per iteration: 20280 [mu s]
	Time per residual norm calculation: 507.000000 [mu s]
	Time per iteration and DOF: 0.401926 [ns]
	Retrieve results bandwidth 3.056000 [GByte/s]
[OGL LOG][Proc: 0]Uz: solve_multi_gpu: 287.292 [ms]
BJhipGKOBiCGStab:  Solving for Uz, Initial residual = 0.106332501609509, Final residual = 0.01016872983227367, No Iterations 12
[INFO] MomentumPredictor: 1467.154 [ms]
[INFO] MatrixAssemblyPI: 717.1369999999999 [ms]
[INFO] MatrixAssemblyPII: 350.534 [ms]
GAMG:  Solving for p, Initial residual = 0.08470129068066365, Final residual = 0.0006193527772355601, No Iterations 5
[INFO] SolveP: 2250.488 [ms]
time step continuity errors : sum local = 0.01125537242146449, global = 8.730651863225161e-05, cumulative = -0.000387099273330932
[INFO] postSolveP: 186.166 [ms]
[OGL LOG][Proc: 0]: global_index_init: 0.731 [ms]
[OGL LOG][Proc: 0]nuTilda_local_coeffs: call_update: 0 [ms]
[OGL LOG][Proc: 0]nuTilda_non_local_coeffs: call_update: 0 [ms]
[OGL LOG][Proc: 0]nuTilda: update_local_matrix_data: 92.883 [ms]
[OGL LOG][Proc: 0]nuTilda: update_non_local_matrix_data: 0.302 [ms]
[OGL LOG][Proc: 0]nuTilda_matrix: call_update: 25.053 [ms]
[OGL LOG][Proc: 0]nuTilda_rhs: call_update: 11.261 [ms]
[...]
[OGL LOG][Preconditioner.H:121] Generate preconditioner BJ MaxBlockSize 1
[OGL LOG][Proc: 0]Uy: init_precond: 1.568 [ms]
[OGL LOG][StoppingCriterion.H:373] Creating stopping criterion with minIter 14 frequency 1
[OGL LOG][Proc: 0]Uy: generate_solver: 0.002 [ms]
[OGL LOG][Proc: 0]Uy: solve: 244.538 [ms]
[OGL LOG][Proc: 0]Uy: copy_x_back: 9.879 [ms]
[OGL LOG][lduLduBase.H:336] 
Statistics:
	Time per iteration: 22230 [mu s]
	Time per residual norm calculation: 355.000000 [mu s]
	Time per iteration and DOF: 0.440572 [ns]
	Retrieve results bandwidth 3.045000 [GByte/s]
[OGL LOG][Proc: 0]Uy: solve_multi_gpu: 296.097 [ms]
BJhipGKOBiCGStab:  Solving for Uy, Initial residual = 0.156078051373627, Final residual = 0.01396181574765003, No Iterations 11
[OGL LOG][Proc: 0]: global_index_init: 0.681 [ms]
[OGL LOG][Proc: 0]Uz_local_coeffs: call_update: 0 [ms]
[OGL LOG][Proc: 0]Uz_non_local_coeffs: call_update: 0 [ms]
[OGL LOG][Proc: 0]Uz: update_local_matrix_data: 92.42700000000001 [ms]
[OGL LOG][Proc: 0]Uz: update_non_local_matrix_data: 0.308 [ms]
[OGL LOG][Proc: 0]Uz_matrix: call_update: 23.961 [ms]
[OGL LOG][Proc: 0]Uz_rhs: call_update: 10.449 [ms]
[OGL LOG][Preconditioner.H:121] Generate preconditioner BJ MaxBlockSize 1
[OGL LOG][Proc: 0]Uz: init_precond: 1.538 [ms]
[OGL LOG][StoppingCriterion.H:373] Creating stopping criterion with minIter 15 frequency 1
[OGL LOG][Proc: 0]Uz: generate_solver: 0.002 [ms]
[OGL LOG][Proc: 0]Uz: solve: 229.12 [ms]
[OGL LOG][Proc: 0]Uz: copy_x_back: 9.741 [ms]
[OGL LOG][lduLduBase.H:336] 
Statistics:
	Time per iteration: 22912 [mu s]
	Time per residual norm calculation: 313.000000 [mu s]
	Time per iteration and DOF: 0.454089 [ns]
	Retrieve results bandwidth 3.088000 [GByte/s]
[OGL LOG][Proc: 0]Uz: solve_multi_gpu: 277.073 [ms]
BJhipGKOBiCGStab:  Solving for Uz, Initial residual = 0.1797618614208494, Final residual = 0.01670347018549238, No Iterations 10
[INFO] MomentumPredictor: 1458.881 [ms]
[INFO] MatrixAssemblyPI: 718.203 [ms]
[INFO] MatrixAssemblyPII: 348.588 [ms]
GAMG:  Solving for p, Initial residual = 0.09089285021420669, Final residual = 0.0006935546403815222, No Iterations 5
[INFO] SolveP: 2241.564 [ms]
time step continuity errors : sum local = 0.01290656688846158, global = 1.988611002166733e-05, cumulative = 0.001171129452900535
[INFO] postSolveP: 187.081 [ms]
[OGL LOG][Proc: 0]: global_index_init: 13.054 [ms]
[OGL LOG][Proc: 0]nuTilda_local_coeffs: call_update: 0 [ms]
[OGL LOG][Proc: 0]nuTilda_non_local_coeffs: call_update: 0 [ms]
[OGL LOG][Proc: 0]nuTilda: update_local_matrix_data: 91.15000000000001 [ms]
[OGL LOG][Proc: 0]nuTilda: update_non_local_matrix_data: 0.319 [ms]
[OGL LOG][Proc: 0]nuTilda_matrix: call_update: 27.265 [ms]
[OGL LOG][Proc: 0]nuTilda_rhs: call_update: 18.267 [ms]
[OGL LOG][Preconditioner.H:121] Generate preconditioner BJ MaxBlockSize 1
[OGL LOG][Proc: 0]nuTilda: init_precond: 1.533 [ms]
[OGL LOG][StoppingCriterion.H:373] Creating stopping criterion with minIter 2 frequency 1
[OGL LOG][Proc: 0]nuTilda: generate_solver: 0.002 [ms]
[OGL LOG][Proc: 0]nuTilda: solve: 178.16 [ms]
[OGL LOG][Proc: 0]nuTilda: copy_x_back: 9.803000000000001 [ms]
[OGL LOG][lduLduBase.H:336] 
Statistics:
	Time per iteration: 89080 [mu s]
	Time per residual norm calculation: 320.000000 [mu s]
	Time per iteration and DOF: 1.765461 [ns]
	Retrieve results bandwidth 3.068000 [GByte/s]
[OGL LOG][Proc: 0]nuTilda: solve_multi_gpu: 237.304 [ms]
BJhipGKOBiCGStab:  Solving for nuTilda, Initial residual = 0.01206021364096855, Final residual = 0.0008365649786448822, No Iterations 2
bounding nuTilda, min: -0.0003185666518320765 max: 0.006927948174531436 average: 0.0003244902319276159
[INFO] TimeStep: 12297.698 [ms]
ExecutionTime = 824.26 s  ClockTime = 827 s

Time = 48

velocityDampingConstraint velocityDamping damped 0 (0%) of cells, with max limit 300
[INFO] MatrixAssemblyU: 4387.51 [ms]
[OGL LOG][Proc: 0]: global_index_init: 0.6820000000000001 [ms]
[OGL LOG][Proc: 0]Ux_local_coeffs: call_update: 0 [ms]
[OGL LOG][Proc: 0]Ux_non_local_coeffs: call_update: 0 [ms]
[OGL LOG][Proc: 0]Ux: update_local_matrix_data: 89.652 [ms]
[OGL LOG][Proc: 0]Ux: update_non_local_matrix_data: 0.298 [ms]
[OGL LOG][Proc: 0]Ux_matrix: call_update: 34.455 [ms]
[OGL LOG][Proc: 0]Ux_rhs: call_update: 14.015 [ms]
[OGL LOG][Preconditioner.H:121] Generate preconditioner BJ MaxBlockSize 1
[OGL LOG][Proc: 0]Ux: init_precond: 1.548 [ms]
[OGL LOG][StoppingCriterion.H:373] Creating stopping criterion with minIter 13 frequency 1
[OGL LOG][Proc: 0]Ux: generate_solver: 0.002 [ms]
[OGL LOG][Proc: 0]Ux: solve: 253.077 [ms]
[OGL LOG][Proc: 0]Ux: copy_x_back: 9.731 [ms]
[OGL LOG][lduLduBase.H:336] 
Statistics:
	Time per iteration: 16871 [mu s]
	Time per residual norm calculation: 463.000000 [mu s]
	Time per iteration and DOF: 0.334363 [ns]
	Retrieve results bandwidth 3.091000 [GByte/s]
[OGL LOG][Proc: 0]Ux: solve_multi_gpu: 315.109 [ms]
BJhipGKOBiCGStab:  Solving for Ux, Initial residual = 0.0207938428593104, Final residual = 0.001050270818056525, No Iterations 15
[OGL LOG][Proc: 0]: global_index_init: 1.225 [ms]
[OGL LOG][Proc: 0]Uy_local_coeffs: call_update: 0 [ms]
[OGL LOG][Proc: 0]Uy_non_local_coeffs: call_update: 0 [ms]
[OGL LOG][Proc: 0]Uy: update_local_matrix_data: 88.886 [ms]
[OGL LOG][Proc: 0]Uy: update_non_local_matrix_data: 0.309 [ms]
[OGL LOG][Proc: 0]Uy_matrix: call_update: 29.431 [ms]
[OGL LOG][Proc: 0]Uy_rhs: call_update: 14.753 [ms]
[OGL LOG][Preconditioner.H:121] Generate preconditioner BJ MaxBlockSize 1
[OGL LOG][Proc: 0]Uy: init_precond: 1.528 [ms]
[OGL LOG][StoppingCriterion.H:373] Creating stopping criterion with minIter 13 frequency 1
[OGL LOG][Proc: 0]Uy: generate_solver: 0.002 [ms]
[OGL LOG][Proc: 0]Uy: solve: 231.599 [ms]
[OGL LOG][Proc: 0]Uy: copy_x_back: 9.890000000000001 [ms]
[OGL LOG][lduLduBase.H:336] 
Statistics:
	Time per iteration: 23159 [mu s]
	Time per residual norm calculation: 314.000000 [mu s]
	Time per iteration and DOF: 0.458984 [ns]
	Retrieve results bandwidth 3.041000 [GByte/s]
[OGL LOG][Proc: 0]Uy: solve_multi_gpu: 289.805 [ms]
BJhipGKOBiCGStab:  Solving for Uy, Initial residual = 0.1233673423840367, Final residual = 0.01117988652375177, No Iterations 10
[OGL LOG][Proc: 0]: global_index_init: 0.6860000000000001 [ms]
[OGL LOG][Proc: 0]Uz_local_coeffs: call_update: 0 [ms]
[OGL LOG][Proc: 0]Uz_non_local_coeffs: call_update: 0 [ms]
[OGL LOG][Proc: 0]Uz: update_local_matrix_data: 87.461 [ms]
[OGL LOG][Proc: 0]Uz: update_non_local_matrix_data: 0.304 [ms]
[OGL LOG][Proc: 0]Uz_matrix: call_update: 30.884 [ms]
[OGL LOG][Proc: 0]Uz_rhs: call_update: 11.574 [ms]
[OGL LOG][Preconditioner.H:121] Generate preconditioner BJ MaxBlockSize 1
[OGL LOG][Proc: 0]Uz: init_precond: 1.561 [ms]
[OGL LOG][StoppingCriterion.H:373] Creating stopping criterion with minIter 12 frequency 1
[OGL LOG][Proc: 0]Uz: generate_solver: 0.002 [ms]
[OGL LOG][Proc: 0]Uz: solve: 234.075 [ms]
[OGL LOG][Proc: 0]Uz: copy_x_back: 9.802 [ms]
[OGL LOG][lduLduBase.H:336] 
Statistics:
	Time per iteration: 21279 [mu s]
	Time per residual norm calculation: 314.000000 [mu s]
	Time per iteration and DOF: 0.421725 [ns]
	Retrieve results bandwidth 3.068000 [GByte/s]
[OGL LOG][Proc: 0]Uz: solve_multi_gpu: 290.166 [ms]
BJhipGKOBiCGStab:  Solving for Uz, Initial residual = 0.1345059744076139, Final residual = 0.0122661864728635, No Iterations 11
[INFO] MomentumPredictor: 1474.968 [ms]
[INFO] MatrixAssemblyPI: 717.359 [ms]
[INFO] MatrixAssemblyPII: 349.363 [ms]
GAMG:  Solving for p, Initial residual = 0.08609796921623697, Final residual = 0.0006238839249597184, No Iterations 5
[INFO] SolveP: 2236.374 [ms]
time step continuity errors : sum local = 0.01105965110721716, global = -0.0001357092713753553, cumulative = 0.001035420181525179
[INFO] postSolveP: 186.284 [ms]
[OGL LOG][Proc: 0]: global_index_init: 5.052 [ms]
[OGL LOG][Proc: 0]nuTilda_local_coeffs: call_update: 0 [ms]
[OGL LOG][Proc: 0]nuTilda_non_local_coeffs: call_update: 0 [ms]
[OGL LOG][Proc: 0]nuTilda: update_local_matrix_data: 91.755 [ms]
[OGL LOG][Proc: 0]nuTilda: update_non_local_matrix_data: 0.297 [ms]
[OGL LOG][Proc: 0]nuTilda_matrix: call_update: 28.393 [ms]
[OGL LOG][Proc: 0]nuTilda_rhs: call_update: 11.142 [ms]
[OGL LOG][Preconditioner.H:121] Generate preconditioner BJ MaxBlockSize 1
[OGL LOG][Proc: 0]nuTilda: init_precond: 1.529 [ms]
[OGL LOG][StoppingCriterion.H:373] Creating stopping criterion with minIter 3 frequency 1
[OGL LOG][Proc: 0]nuTilda: generate_solver: 0.003 [ms]
[OGL LOG][Proc: 0]nuTilda: solve: 181.468 [ms]
[OGL LOG][Proc: 0]nuTilda: copy_x_back: 9.763 [ms]
[OGL LOG][lduLduBase.H:336] 
Statistics:
	Time per iteration: 90734 [mu s]
	Time per residual norm calculation: 517.000000 [mu s]
	Time per iteration and DOF: 1.798241 [ns]
	Retrieve results bandwidth 3.081000 [GByte/s]
[OGL LOG][Proc: 0]nuTilda: solve_multi_gpu: 234.538 [ms]
BJhipGKOBiCGStab:  Solving for nuTilda, Initial residual = 0.01741287428973707, Final residual = 0.001545936557002337, No Iterations 2
bounding nuTilda, min: -0.00107309092265422 max: 0.006969235762988854 average: 0.00033050519054979
[INFO] TimeStep: 12188.652 [ms]
ExecutionTime = 839.92 s  ClockTime = 842 s

Time = 49

velocityDampingConstraint velocityDamping damped 0 (0%) of cells, with max limit 300
[INFO] MatrixAssemblyU: 4415.255 [ms]
[OGL LOG][Proc: 0]: global_index_init: 0.642 [ms]
[OGL LOG][Proc: 0]Ux_local_coeffs: call_update: 0 [ms]
[OGL LOG][Proc: 0]Ux_non_local_coeffs: call_update: 0 [ms]
[OGL LOG][Proc: 0]Ux: update_local_matrix_data: 89.547 [ms]
[OGL LOG][Proc: 0]Ux: update_non_local_matrix_data: 0.291 [ms]
[OGL LOG][Proc: 0]Ux_matrix: call_update: 23.85 [ms]
[OGL LOG][Proc: 0]Ux_rhs: call_update: 17.482 [ms]
[OGL LOG][Preconditioner.H:121] Generate preconditioner BJ MaxBlockSize 1
[OGL LOG][Proc: 0]Ux: init_precond: 1.668 [ms]
[OGL LOG][StoppingCriterion.H:373] Creating stopping criterion with minIter 18 frequency 1
[OGL LOG][Proc: 0]Ux: generate_solver: 0.003 [ms]
[OGL LOG][Proc: 0]Ux: solve: 227.586 [ms]
[OGL LOG][Proc: 0]Ux: copy_x_back: 9.727 [ms]
[OGL LOG][lduLduBase.H:336] 
Statistics:
	Time per iteration: 20689 [mu s]
	Time per residual norm calculation: 504.000000 [mu s]
	Time per iteration and DOF: 0.410032 [ns]
	Retrieve results bandwidth 3.092000 [GByte/s]
[OGL LOG][Proc: 0]Ux: solve_multi_gpu: 282.591 [ms]
BJhipGKOBiCGStab:  Solving for Ux, Initial residual = 0.01944655016348949, Final residual = 0.001940406016301579, No Iterations 11
[OGL LOG][Proc: 0]: global_index_init: 0.7000000000000001 [ms]
[OGL LOG][Proc: 0]Uy_local_coeffs: call_update: 0 [ms]
[OGL LOG][Proc: 0]Uy_non_local_coeffs: call_update: 0 [ms]
[OGL LOG][Proc: 0]Uy: update_local_matrix_data: 90.637 [ms]
[OGL LOG][Proc: 0]Uy: update_non_local_matrix_data: 0.302 [ms]
[OGL LOG][Proc: 0]Uy_matrix: call_update: 30.232 [ms]
[OGL LOG][Proc: 0]Uy_rhs: call_update: 14.683 [ms]
[OGL LOG][Preconditioner.H:121] Generate preconditioner BJ MaxBlockSize 1
[OGL LOG][Proc: 0]Uy: init_precond: 1.539 [ms]
[OGL LOG][StoppingCriterion.H:373] Creating stopping criterion with minIter 12 frequency 1
[OGL LOG][Proc: 0]Uy: generate_solver: 0.002 [ms]
[OGL LOG][Proc: 0]Uy: solve: 237.807 [ms]
[OGL LOG][Proc: 0]Uy: copy_x_back: 9.984 [ms]
[OGL LOG][lduLduBase.H:336] 
Statistics:
	Time per iteration: 19817 [mu s]
	Time per residual norm calculation: 497.000000 [mu s]
	Time per iteration and DOF: 0.392750 [ns]
	Retrieve results bandwidth 3.013000 [GByte/s]
[OGL LOG][Proc: 0]Uy: solve_multi_gpu: 296.515 [ms]
BJhipGKOBiCGStab:  Solving for Uy, Initial residual = 0.1121493401280095, Final residual = 0.01047312658674646, No Iterations 12
[OGL LOG][Proc: 0]: global_index_init: 0.6910000000000001 [ms]
[OGL LOG][Proc: 0]Uz_local_coeffs: call_update: 0 [ms]
[OGL LOG][Proc: 0]Uz_non_local_coeffs: call_update: 0 [ms]
[OGL LOG][Proc: 0]Uz: update_local_matrix_data: 104.895 [ms]
[OGL LOG][Proc: 0]Uz: update_non_local_matrix_data: 0.317 [ms]
[OGL LOG][Proc: 0]Uz_matrix: call_update: 23.847 [ms]
[OGL LOG][Proc: 0]Uz_rhs: call_update: 2.2 [ms]
[OGL LOG][Preconditioner.H:121] Generate preconditioner BJ MaxBlockSize 1
[OGL LOG][Proc: 0]Uz: init_precond: 1.584 [ms]
[OGL LOG][StoppingCriterion.H:373] Creating stopping criterion with minIter 13 frequency 1
[OGL LOG][Proc: 0]Uz: generate_solver: 0.003 [ms]
[OGL LOG][Proc: 0]Uz: solve: 270.489 [ms]
[OGL LOG][Proc: 0]Uz: copy_x_back: 9.68 [ms]
[OGL LOG][lduLduBase.H:336] 
Statistics:
	Time per iteration: 15911 [mu s]
	Time per residual norm calculation: 457.000000 [mu s]
	Time per iteration and DOF: 0.315337 [ns]
	Retrieve results bandwidth 3.107000 [GByte/s]
[OGL LOG][Proc: 0]Uz: solve_multi_gpu: 310.087 [ms]
BJhipGKOBiCGStab:  Solving for Uz, Initial residual = 0.121957961801354, Final residual = 0.005833293127224548, No Iterations 17
[INFO] MomentumPredictor: 1492.141 [ms]
[INFO] MatrixAssemblyPI: 734.384 [ms]
[INFO] MatrixAssemblyPII: 349.019 [ms]
GAMG:  Solving for p, Initial residual = 0.08924122206704439, Final residual = 0.0006135970296856028, No Iterations 5
[INFO] SolveP: 2261.476 [ms]
time step continuity errors : sum local = 0.01048632923685774, global = -0.0002314543640555589, cumulative = 0.0008039658174696206
[INFO] postSolveP: 185.847 [ms]
[OGL LOG][Proc: 0]: global_index_init: 23.557 [ms]
[OGL LOG][Proc: 0]nuTilda_local_coeffs: call_update: 0 [ms]
[OGL LOG][Proc: 0]nuTilda_non_local_coeffs: call_update: 0 [ms]
[OGL LOG][Proc: 0]nuTilda: update_local_matrix_data: 93.301 [ms]
[OGL LOG][Proc: 0]nuTilda: update_non_local_matrix_data: 0.308 [ms]
[OGL LOG][Proc: 0]nuTilda_matrix: call_update: 23.785 [ms]
[OGL LOG][Proc: 0]nuTilda_rhs: call_update: 33.306 [ms]
[OGL LOG][Preconditioner.H:121] Generate preconditioner BJ MaxBlockSize 1
[OGL LOG][Proc: 0]nuTilda: init_precond: 1.547 [ms]
[OGL LOG][StoppingCriterion.H:373] Creating stopping criterion with minIter 2 frequency 1
[OGL LOG][Proc: 0]nuTilda: generate_solver: 0.003 [ms]
[OGL LOG][Proc: 0]nuTilda: solve: 192.003 [ms]
[OGL LOG][Proc: 0]nuTilda: copy_x_back: 9.712 [ms]
[OGL LOG][lduLduBase.H:336] 
Statistics:
	Time per iteration: 96001 [mu s]
	Time per residual norm calculation: 355.000000 [mu s]
	Time per iteration and DOF: 1.902627 [ns]
	Retrieve results bandwidth 3.097000 [GByte/s]
[OGL LOG][Proc: 0]nuTilda: solve_multi_gpu: 262.728 [ms]
BJhipGKOBiCGStab:  Solving for nuTilda, Initial residual = 0.0116488357705553, Final residual = 0.000799453254729688, No Iterations 2
bounding nuTilda, min: -0.0003514100066791346 max: 0.007025304388999194 average: 0.0003400626070474677
[INFO] TimeStep: 12350.413 [ms]
ExecutionTime = 855.74 s  ClockTime = 858 s

Time = 50

velocityDampingConstraint velocityDamping damped 0 (0%) of cells, with max limit 300
[INFO] MatrixAssemblyU: 4378.553 [ms]
[OGL LOG][Proc: 0]: global_index_init: 0.174 [ms]
[OGL LOG][Proc: 0]Ux_local_coeffs: call_update: 0 [ms]
[OGL LOG][Proc: 0]Ux_non_local_coeffs: call_update: 0 [ms]
[OGL LOG][Proc: 0]Ux: update_local_matrix_data: 89.027 [ms]
[OGL LOG][Proc: 0]Ux: update_non_local_matrix_data: 0.298 [ms]
[OGL LOG][Proc: 0]Ux_matrix: call_update: 28.127 [ms]
[OGL LOG][Proc: 0]Ux_rhs: call_update: 15.806 [ms]
[OGL LOG][Preconditioner.H:121] Generate preconditioner BJ MaxBlockSize 1
[OGL LOG][Proc: 0]Ux: init_precond: 1.542 [ms]
[OGL LOG][StoppingCriterion.H:373] Creating stopping criterion with minIter 13 frequency 1
[OGL LOG][Proc: 0]Ux: generate_solver: 0.003 [ms]
[OGL LOG][Proc: 0]Ux: solve: 236.051 [ms]
[OGL LOG][Proc: 0]Ux: copy_x_back: 9.754 [ms]
[OGL LOG][lduLduBase.H:336] 
Statistics:
	Time per iteration: 21459 [mu s]
	Time per residual norm calculation: 313.000000 [mu s]
	Time per iteration and DOF: 0.425292 [ns]
	Retrieve results bandwidth 3.084000 [GByte/s]
[OGL LOG][Proc: 0]Ux: solve_multi_gpu: 296.493 [ms]
BJhipGKOBiCGStab:  Solving for Ux, Initial residual = 0.01990230465606068, Final residual = 0.001968785305482194, No Iterations 11
[OGL LOG][Proc: 0]: global_index_init: 0.16 [ms]
[OGL LOG][Proc: 0]Uy_local_coeffs: call_update: 0 [ms]
[OGL LOG][Proc: 0]Uy_non_local_coeffs: call_update: 0 [ms]
[OGL LOG][Proc: 0]Uy: update_local_matrix_data: 91.60000000000001 [ms]
[OGL LOG][Proc: 0]Uy: update_non_local_matrix_data: 0.295 [ms]
[OGL LOG][Proc: 0]Uy_matrix: call_update: 28.212 [ms]
[OGL LOG][Proc: 0]Uy_rhs: call_update: 15.632 [ms]
[OGL LOG][Preconditioner.H:121] Generate preconditioner BJ MaxBlockSize 1
[OGL LOG][Proc: 0]Uy: init_precond: 1.518 [ms]
[OGL LOG][StoppingCriterion.H:373] Creating stopping criterion with minIter 14 frequency 1
[OGL LOG][Proc: 0]Uy: generate_solver: 0.002 [ms]
[OGL LOG][Proc: 0]Uy: solve: 230.489 [ms]
[OGL LOG][Proc: 0]Uy: copy_x_back: 9.832000000000001 [ms]
[OGL LOG][lduLduBase.H:336] 
Statistics:
	Time per iteration: 20953 [mu s]
	Time per residual norm calculation: 498.000000 [mu s]
	Time per iteration and DOF: 0.415264 [ns]
	Retrieve results bandwidth 3.059000 [GByte/s]
[OGL LOG][Proc: 0]Uy: solve_multi_gpu: 288.024 [ms]
BJhipGKOBiCGStab:  Solving for Uy, Initial residual = 0.1077974619542539, Final residual = 0.009973113094943208, No Iterations 11
[OGL LOG][Proc: 0]: global_index_init: 0.6900000000000001 [ms]
[OGL LOG][Proc: 0]Uz_local_coeffs: call_update: 0 [ms]
[OGL LOG][Proc: 0]Uz_non_local_coeffs: call_update: 0 [ms]
[OGL LOG][Proc: 0]Uz: update_local_matrix_data: 91.422 [ms]
[OGL LOG][Proc: 0]Uz: update_non_local_matrix_data: 0.309 [ms]
[OGL LOG][Proc: 0]Uz_matrix: call_update: 25.86 [ms]
[OGL LOG][Proc: 0]Uz_rhs: call_update: 12.413 [ms]
[OGL LOG][Preconditioner.H:121] Generate preconditioner BJ MaxBlockSize 1
[OGL LOG][Proc: 0]Uz: init_precond: 1.609 [ms]
[OGL LOG][StoppingCriterion.H:373] Creating stopping criterion with minIter 20 frequency 1
[OGL LOG][Proc: 0]Uz: generate_solver: 0.002 [ms]
[OGL LOG][Proc: 0]Uz: solve: 236.792 [ms]
[OGL LOG][Proc: 0]Uz: copy_x_back: 10.08 [ms]
[OGL LOG][lduLduBase.H:336] 
Statistics:
	Time per iteration: 19732 [mu s]
	Time per residual norm calculation: 501.000000 [mu s]
	Time per iteration and DOF: 0.391065 [ns]
	Retrieve results bandwidth 2.984000 [GByte/s]
[OGL LOG][Proc: 0]Uz: solve_multi_gpu: 289.063 [ms]
BJhipGKOBiCGStab:  Solving for Uz, Initial residual = 0.1288133562106022, Final residual = 0.0108080566494311, No Iterations 12
[INFO] MomentumPredictor: 1454.917 [ms]
[INFO] MatrixAssemblyPI: 716.701 [ms]
[INFO] MatrixAssemblyPII: 348.678 [ms]
GAMG:  Solving for p, Initial residual = 0.08412415769223787, Final residual = 0.0006499416421349112, No Iterations 5
[INFO] SolveP: 2242.6 [ms]
time step continuity errors : sum local = 0.01075615967267145, global = -0.0003094902404442048, cumulative = 0.0004944755770254157
[INFO] postSolveP: 186.765 [ms]
[OGL LOG][Proc: 0]: global_index_init: 0.045 [ms]
[OGL LOG][Proc: 0]nuTilda_local_coeffs: call_update: 0 [ms]
[OGL LOG][Proc: 0]nuTilda_non_local_coeffs: call_update: 0 [ms]
[OGL LOG][Proc: 0]nuTilda: update_local_matrix_data: 92.736 [ms]
[OGL LOG][Proc: 0]nuTilda: update_non_local_matrix_data: 0.3 [ms]
[OGL LOG][Proc: 0]nuTilda_matrix: call_update: 26.509 [ms]
[OGL LOG][Proc: 0]nuTilda_rhs: call_update: 14.219 [ms]
[OGL LOG][Preconditioner.H:121] Generate preconditioner BJ MaxBlockSize 1
[OGL LOG][Proc: 0]nuTilda: init_precond: 1.574 [ms]
[OGL LOG][StoppingCriterion.H:373] Creating stopping criterion with minIter 3 frequency 1
[OGL LOG][Proc: 0]nuTilda: generate_solver: 0.003 [ms]
[OGL LOG][Proc: 0]nuTilda: solve: 178.593 [ms]
[OGL LOG][Proc: 0]nuTilda: copy_x_back: 9.785 [ms]
[OGL LOG][lduLduBase.H:336] 
Statistics:
	Time per iteration: 89296 [mu s]
	Time per residual norm calculation: 515.000000 [mu s]
	Time per iteration and DOF: 1.769741 [ns]
	Retrieve results bandwidth 3.074000 [GByte/s]
[OGL LOG][Proc: 0]nuTilda: solve_multi_gpu: 232.97 [ms]
BJhipGKOBiCGStab:  Solving for nuTilda, Initial residual = 0.01677450479299014, Final residual = 0.001491773833602494, No Iterations 2
bounding nuTilda, min: -0.001306159792032641 max: 0.007060141856515614 average: 0.0003460825285158336
[INFO] TimeStep: 12149.517 [ms]
ExecutionTime = 871.34 s  ClockTime = 874 s

End

Finalising parallel run
