/*---------------------------------------------------------------------------*\
| =========                 |                                                 |
| \\      /  F ield         | OpenFOAM: The Open Source CFD Toolbox           |
|  \\    /   O peration     | Version:  v2106                                 |
|   \\  /    A nd           | Website:  www.openfoam.com                      |
|    \\/     M anipulation  |                                                 |
\*---------------------------------------------------------------------------*/
Build  : f815a12bba-20210902 OPENFOAM=2106
Arch   : "LSB;label=32;scalar=64"
Exec   : checkMesh
Date   : Jun 29 2023
Time   : 14:43:30
Host   : nla-gpu2.ianm.kit.edu
PID    : 1396538
--> FOAM Warning : 
    From Foam::fileName Foam::cwd_L()
    in file POSIX.C at line 494
    PWD is not the cwd() - reverting to physical description
I/O    : uncollated
--> FOAM Warning : 
    From Foam::fileName Foam::cwd_L()
    in file POSIX.C at line 494
    PWD is not the cwd() - reverting to physical description
Case   : /home/greole/data/code/exasim_project/micro_benchmarks/WindsorBody/workspace/0ad29aec9451a6cfc4b7ee19874f662d/case
nProcs : 1
trapFpe: Floating point exception trapping enabled (FOAM_SIGFPE).
fileModificationChecking : Monitoring run-time modified files using timeStampMaster (fileModificationSkew 5, maxFileModificationPolls 20)
allowSystemOperations : Allowing user-supplied system call operations

// * * * * * * * * * * * * * * * * * * * * * * * * * * * * * * * * * * * * * //
Create time

Create mesh for time = 0

Time = 0

Mesh stats
    points:           19544298
    faces:            57399057
    internal faces:   56724189
    cells:            18921408
    faces per cell:   6.031435187064303
    boundary patches: 23
    point zones:      1
    face zones:       3
    cell zones:       1

Overall number of cells of each type:
    hexahedra:     18271065
    prisms:        262227
    wedges:        11841
    pyramids:      375
    tet wedges:    315
    tetrahedra:    12564
    polyhedra:     363021
    Breakdown of polyhedra by number of faces:
        faces   number of cells
            4   213
            5   732
            6   25455
            7   85053
            8   4224
            9   231936
           10   924
           11   183
           12   12789
           13   60
           14   69
           15   1299
           16   33
           17   15
           18   3
           19   9
           20   12
           21   9
           22   3

Checking topology...
    Boundary definition OK.
    Cell to face addressing OK.
    Point usage OK.
  <<Found 444 neighbouring cells with multiple inbetween faces.
    Upper triangular ordering OK.
  <<Writing 1026 unordered faces to set upperTriangularFace
    Face vertices OK.
    Number of regions: 1 (OK).

Checking patch topology for multiply connected surfaces...
                   Patch    Faces   Points                  Surface topology
            Windsor_Body    66997    65766  ok (non-closed singly connected)
                CFDWT_In      676      729  ok (non-closed singly connected)
              CFDWT_Left     3744     3915  ok (non-closed singly connected)
             CFDWT_Floor   141946   140874  ok (non-closed singly connected)
              CFDWT_Roof     3744     3915  ok (non-closed singly connected)
               CFDWT_Out      676      729  ok (non-closed singly connected)
            Windsor_Pins     2938     2935  ok (non-closed singly connected)
            Windsor_Base     5483     5597  ok (non-closed singly connected)
          Windsor_Body_2    66997    65766  ok (non-closed singly connected)
              CFDWT_In_2      676      729  ok (non-closed singly connected)
           CFDWT_Floor_2   141946   140874  ok (non-closed singly connected)
            CFDWT_Roof_2     3744     3915  ok (non-closed singly connected)
             CFDWT_Out_2      676      729  ok (non-closed singly connected)
          Windsor_Pins_2     2938     2935  ok (non-closed singly connected)
          Windsor_Base_2     5483     5597  ok (non-closed singly connected)
          Windsor_Body_3    66997    65766  ok (non-closed singly connected)
              CFDWT_In_3      676      729  ok (non-closed singly connected)
           CFDWT_Floor_3   141946   140874  ok (non-closed singly connected)
            CFDWT_Roof_3     3744     3915  ok (non-closed singly connected)
             CFDWT_Right     3744     3915  ok (non-closed singly connected)
             CFDWT_Out_3      676      729  ok (non-closed singly connected)
          Windsor_Pins_3     2938     2935  ok (non-closed singly connected)
          Windsor_Base_3     5483     5597  ok (non-closed singly connected)

Checking faceZone topology for multiply connected surfaces...
                FaceZone    Faces   Points                  Surface topology
    CFDWT_Right_internCFDWT_Left_internMasterZone     3744     3915  ok (non-closed singly connected)
    CFDWT_Right_internCFDWT_Left_internSlaveZone        0        0                        ok (empty)
    CFDWT_Right_internCFDWT_Left_internCutFaceZone        0        0                        ok (empty)

Checking basic cellZone addressing...
                CellZone        Cells       Points       VolumeBoundingBox
                 Region     18921408     19544298 83.47749153114034 (-5.000000000000003 -0.9600000000000004 0) (6.020800000000004 4.800000000000001 1.320000000000001)

Checking geometry...
    Overall domain bounding box (-5.000000000000003 -0.9600000000000004 0) (6.020800000000004 4.800000000000001 1.320000000000001)
    Mesh has 3 geometric (non-empty/wedge) directions (1 1 1)
    Mesh has 3 solution (non-empty) directions (1 1 1)
    Boundary openness (-1.32790881089703e-16 2.25197838616811e-15 -3.779494390389724e-13) OK.
    Max cell openness = 3.744330114244788e-16 OK.
    Max aspect ratio = 51.19986396068106 OK.
    Minimum face area = 5.150477198575642e-09. Maximum face area = 0.02359296000000028.  Face area magnitudes OK.
    Min volume = 3.766547725434952e-12. Max volume = 0.00362387865600009.  Total volume = 83.47749153114034.  Cell volumes OK.
    Mesh non-orthogonality Max: 84.04652763245851 average: 4.529783040995537
   *Number of severely non-orthogonal (> 70 degrees) faces: 264.
    Non-orthogonality check OK.
  <<Writing 264 non-orthogonal faces to set nonOrthoFaces
    Face pyramids OK.
 ***Max skewness = 5.571995359403127, 87 highly skew faces detected which may impair the quality of the results
  <<Writing 87 skew faces to set skewFaces
    Coupled point location match (average 0) OK.

Failed 1 mesh checks.

End

