/*---------------------------------------------------------------------------*\
| =========                 |                                                 |
| \\      /  F ield         | OpenFOAM: The Open Source CFD Toolbox           |
|  \\    /   O peration     | Version:  v2106                                 |
|   \\  /    A nd           | Website:  www.openfoam.com                      |
|    \\/     M anipulation  |                                                 |
\*---------------------------------------------------------------------------*/
Build  : f815a12bba-20210902 OPENFOAM=2106
Arch   : "LSB;label=32;scalar=64"
Exec   : simpleFoam -parallel -case /home/greole/data/code/exasim_project/micro_benchmarks/WindsorBody/workspace/79ba98740d4cae5b18e20941021fc050/case
Date   : Jun 25 2023
Time   : 19:35:09
Host   : nla-gpu2.ianm.kit.edu
PID    : 3748337
I/O    : uncollated
Case   : /home/greole/data/code/exasim_project/micro_benchmarks/WindsorBody/workspace/79ba98740d4cae5b18e20941021fc050/case
nProcs : 8
Hosts  :
(
    (nla-gpu2.ianm.kit.edu 8)
)
Pstream initialized with:
    floatTransfer      : 0
    nProcsSimpleSum    : 0
    commsType          : nonBlocking
    polling iterations : 0
trapFpe: Floating point exception trapping enabled (FOAM_SIGFPE).
fileModificationChecking : Monitoring run-time modified files using timeStampMaster (fileModificationSkew 5, maxFileModificationPolls 20)
allowSystemOperations : Allowing user-supplied system call operations

// * * * * * * * * * * * * * * * * * * * * * * * * * * * * * * * * * * * * * //
Create time

Create mesh for time = 0


SIMPLE: convergence criteria
    field p	 tolerance 1e-08
    field U	 tolerance 1e-08
    field k	 tolerance 1e-08
    field omega	 tolerance 1e-08
    field nuTilda	 tolerance 1e-08

Reading field p

Reading field U

Reading/calculating face flux field phi

Selecting incompressible transport model Newtonian
Selecting turbulence model type RAS
Selecting RAS turbulence model SpalartAllmaras
Selecting patchDistMethod meshWave
RAS
{
    RASModel        SpalartAllmaras;
    turbulence      on;
    printCoeffs     on;
    sigmaNut        0.6666666666666666;
    kappa           0.41;
    Cb1             0.1355;
    Cb2             0.622;
    Cw2             0.3;
    Cw3             2;
    Cv1             7.1;
    Cs              0.3;
}

No MRF models present

Creating finite volume options from "system/fvOptions"

Selecting finite volume options type velocityDampingConstraint
    Source: velocityDamping
    - selecting all cells
    - selected 18921408 cell(s) with volume 83.47749154789851

Starting time loop

--> FOAM Warning : 
    From bool Foam::functionObjectList::read()
    in file db/functionObjects/functionObjectList/functionObjectList.C at line 1013
    Reading "/home/greole/data/code/exasim_project/micro_benchmarks/WindsorBody/workspace/79ba98740d4cae5b18e20941021fc050/case/system/controlDict" at line 2 to 41
    Entry lref is not a dictionary
--> FOAM Warning : 
    From bool Foam::functionObjectList::read()
    in file db/functionObjects/functionObjectList/functionObjectList.C at line 1013
    Reading "/home/greole/data/code/exasim_project/micro_benchmarks/WindsorBody/workspace/79ba98740d4cae5b18e20941021fc050/case/system/controlDict" at line 2 to 41
    Entry Aref is not a dictionary
--> FOAM Warning : 
    From bool Foam::functionObjectList::read()
    in file db/functionObjects/functionObjectList/functionObjectList.C at line 1013
    Reading "/home/greole/data/code/exasim_project/micro_benchmarks/WindsorBody/workspace/79ba98740d4cae5b18e20941021fc050/case/system/controlDict" at line 2 to 41
    Entry yawAngle is not a dictionary
--> FOAM Warning : 
    From bool Foam::functionObjectList::read()
    in file db/functionObjects/functionObjectList/functionObjectList.C at line 1013
    Reading "/home/greole/data/code/exasim_project/micro_benchmarks/WindsorBody/workspace/79ba98740d4cae5b18e20941021fc050/case/system/controlDict" at line 2 to 41
    Entry lDomain is not a dictionary
--> FOAM Warning : 
    From bool Foam::functionObjectList::read()
    in file db/functionObjects/functionObjectList/functionObjectList.C at line 1013
    Reading "/home/greole/data/code/exasim_project/micro_benchmarks/WindsorBody/workspace/79ba98740d4cae5b18e20941021fc050/case/system/controlDict" at line 2 to 41
    Entry bDomain is not a dictionary
--> FOAM Warning : 
    From bool Foam::functionObjectList::read()
    in file db/functionObjects/functionObjectList/functionObjectList.C at line 1013
    Reading "/home/greole/data/code/exasim_project/micro_benchmarks/WindsorBody/workspace/79ba98740d4cae5b18e20941021fc050/case/system/controlDict" at line 2 to 41
    Entry hDomain is not a dictionary
--> FOAM Warning : 
    From bool Foam::functionObjectList::read()
    in file db/functionObjects/functionObjectList/functionObjectList.C at line 1013
    Reading "/home/greole/data/code/exasim_project/micro_benchmarks/WindsorBody/workspace/79ba98740d4cae5b18e20941021fc050/case/system/controlDict" at line 2 to 41
    Entry xCenter is not a dictionary
--> FOAM Warning : 
    From bool Foam::functionObjectList::read()
    in file db/functionObjects/functionObjectList/functionObjectList.C at line 1013
    Reading "/home/greole/data/code/exasim_project/micro_benchmarks/WindsorBody/workspace/79ba98740d4cae5b18e20941021fc050/case/system/controlDict" at line 2 to 41
    Entry yCenter is not a dictionary
--> FOAM Warning : 
    From bool Foam::functionObjectList::read()
    in file db/functionObjects/functionObjectList/functionObjectList.C at line 1013
    Reading "/home/greole/data/code/exasim_project/micro_benchmarks/WindsorBody/workspace/79ba98740d4cae5b18e20941021fc050/case/system/controlDict" at line 2 to 41
    Entry zCenter is not a dictionary
--> FOAM Warning : 
    From bool Foam::functionObjectList::read()
    in file db/functionObjects/functionObjectList/functionObjectList.C at line 1013
    Reading "/home/greole/data/code/exasim_project/micro_benchmarks/WindsorBody/workspace/79ba98740d4cae5b18e20941021fc050/case/system/controlDict" at line 2 to 41
    Entry inletPatch is not a dictionary
--> FOAM Warning : 
    From bool Foam::functionObjectList::read()
    in file db/functionObjects/functionObjectList/functionObjectList.C at line 1013
    Reading "/home/greole/data/code/exasim_project/micro_benchmarks/WindsorBody/workspace/79ba98740d4cae5b18e20941021fc050/case/system/controlDict" at line 2 to 41
    Entry outletPatch is not a dictionary
--> FOAM Warning : 
    From bool Foam::functionObjectList::read()
    in file db/functionObjects/functionObjectList/functionObjectList.C at line 1013
    Reading "/home/greole/data/code/exasim_project/micro_benchmarks/WindsorBody/workspace/79ba98740d4cae5b18e20941021fc050/case/system/controlDict" at line 2 to 41
    Entry wallPatches is not a dictionary
--> FOAM Warning : 
    From bool Foam::functionObjectList::read()
    in file db/functionObjects/functionObjectList/functionObjectList.C at line 1013
    Reading "/home/greole/data/code/exasim_project/micro_benchmarks/WindsorBody/workspace/79ba98740d4cae5b18e20941021fc050/case/system/controlDict" at line 2 to 41
    Entry forcesWallPatches is not a dictionary
--> FOAM Warning : 
    From bool Foam::functionObjectList::read()
    in file db/functionObjects/functionObjectList/functionObjectList.C at line 1013
    Reading "/home/greole/data/code/exasim_project/micro_benchmarks/WindsorBody/workspace/79ba98740d4cae5b18e20941021fc050/case/system/controlDict" at line 2 to 41
    Entry symmPatches is not a dictionary
--> FOAM Warning : 
    From bool Foam::functionObjectList::read()
    in file db/functionObjects/functionObjectList/functionObjectList.C at line 1013
    Reading "/home/greole/data/code/exasim_project/micro_benchmarks/WindsorBody/workspace/79ba98740d4cae5b18e20941021fc050/case/system/controlDict" at line 2 to 41
    Entry Uinf is not a dictionary
--> FOAM Warning : 
    From bool Foam::functionObjectList::read()
    in file db/functionObjects/functionObjectList/functionObjectList.C at line 1013
    Reading "/home/greole/data/code/exasim_project/micro_benchmarks/WindsorBody/workspace/79ba98740d4cae5b18e20941021fc050/case/system/controlDict" at line 2 to 41
    Entry UinfMag is not a dictionary
--> FOAM Warning : 
    From bool Foam::functionObjectList::read()
    in file db/functionObjects/functionObjectList/functionObjectList.C at line 1013
    Reading "/home/greole/data/code/exasim_project/micro_benchmarks/WindsorBody/workspace/79ba98740d4cae5b18e20941021fc050/case/system/controlDict" at line 2 to 41
    Entry nu is not a dictionary
--> FOAM Warning : 
    From bool Foam::functionObjectList::read()
    in file db/functionObjects/functionObjectList/functionObjectList.C at line 1013
    Reading "/home/greole/data/code/exasim_project/micro_benchmarks/WindsorBody/workspace/79ba98740d4cae5b18e20941021fc050/case/system/controlDict" at line 2 to 41
    Entry pref is not a dictionary
--> FOAM Warning : 
    From bool Foam::functionObjectList::read()
    in file db/functionObjects/functionObjectList/functionObjectList.C at line 1013
    Reading "/home/greole/data/code/exasim_project/micro_benchmarks/WindsorBody/workspace/79ba98740d4cae5b18e20941021fc050/case/system/controlDict" at line 2 to 41
    Entry viscRatio is not a dictionary
--> FOAM Warning : 
    From bool Foam::functionObjectList::read()
    in file db/functionObjects/functionObjectList/functionObjectList.C at line 1013
    Reading "/home/greole/data/code/exasim_project/micro_benchmarks/WindsorBody/workspace/79ba98740d4cae5b18e20941021fc050/case/system/controlDict" at line 2 to 41
    Entry Tu is not a dictionary
--> FOAM Warning : 
    From bool Foam::functionObjectList::read()
    in file db/functionObjects/functionObjectList/functionObjectList.C at line 1013
    Reading "/home/greole/data/code/exasim_project/micro_benchmarks/WindsorBody/workspace/79ba98740d4cae5b18e20941021fc050/case/system/controlDict" at line 2 to 41
    Entry LESturbModel is not a dictionary
--> FOAM Warning : 
    From bool Foam::functionObjectList::read()
    in file db/functionObjects/functionObjectList/functionObjectList.C at line 1013
    Reading "/home/greole/data/code/exasim_project/micro_benchmarks/WindsorBody/workspace/79ba98740d4cae5b18e20941021fc050/case/system/controlDict" at line 2 to 41
    Entry RASturbModel is not a dictionary
--> FOAM Warning : 
    From bool Foam::functionObjectList::read()
    in file db/functionObjects/functionObjectList/functionObjectList.C at line 1013
    Reading "/home/greole/data/code/exasim_project/micro_benchmarks/WindsorBody/workspace/79ba98740d4cae5b18e20941021fc050/case/system/controlDict" at line 2 to 41
    Entry deltaTurb is not a dictionary
--> FOAM Warning : 
    From bool Foam::functionObjectList::read()
    in file db/functionObjects/functionObjectList/functionObjectList.C at line 1013
    Reading "/home/greole/data/code/exasim_project/micro_benchmarks/WindsorBody/workspace/79ba98740d4cae5b18e20941021fc050/case/system/controlDict" at line 2 to 41
    Entry dt is not a dictionary
--> FOAM Warning : 
    From bool Foam::functionObjectList::read()
    in file db/functionObjects/functionObjectList/functionObjectList.C at line 1013
    Reading "/home/greole/data/code/exasim_project/micro_benchmarks/WindsorBody/workspace/79ba98740d4cae5b18e20941021fc050/case/system/controlDict" at line 2 to 41
    Entry tAvg is not a dictionary
--> FOAM Warning : 
    From bool Foam::functionObjectList::read()
    in file db/functionObjects/functionObjectList/functionObjectList.C at line 1013
    Reading "/home/greole/data/code/exasim_project/micro_benchmarks/WindsorBody/workspace/79ba98740d4cae5b18e20941021fc050/case/system/controlDict" at line 2 to 41
    Entry tEnd is not a dictionary
--> FOAM Warning : 
    From bool Foam::functionObjectList::read()
    in file db/functionObjects/functionObjectList/functionObjectList.C at line 1013
    Reading "/home/greole/data/code/exasim_project/micro_benchmarks/WindsorBody/workspace/79ba98740d4cae5b18e20941021fc050/case/system/controlDict" at line 2 to 41
    Entry writeInterval_ is not a dictionary
--> FOAM Warning : 
    From bool Foam::functionObjectList::read()
    in file db/functionObjects/functionObjectList/functionObjectList.C at line 1013
    Reading "/home/greole/data/code/exasim_project/micro_benchmarks/WindsorBody/workspace/79ba98740d4cae5b18e20941021fc050/case/system/controlDict" at line 2 to 41
    Entry nCores is not a dictionary
--> FOAM Warning : 
    From bool Foam::functionObjectList::read()
    in file db/functionObjects/functionObjectList/functionObjectList.C at line 1013
    Reading "/home/greole/data/code/exasim_project/micro_benchmarks/WindsorBody/workspace/79ba98740d4cae5b18e20941021fc050/case/system/controlDict" at line 2 to 41
    Entry interpScheme is not a dictionary
--> FOAM Warning : 
    From bool Foam::functionObjectList::read()
    in file db/functionObjects/functionObjectList/functionObjectList.C at line 1013
    Reading "/home/greole/data/code/exasim_project/micro_benchmarks/WindsorBody/workspace/79ba98740d4cae5b18e20941021fc050/case/system/controlDict" at line 2 to 41
    Entry probeField is not a dictionary
wallShearStress wallShearStress:
    processing wall patches: 
        Windsor_Body
        CFDWT_Floor
        Windsor_Pins
        Windsor_Base
        Windsor_Body_2
        CFDWT_Floor_2
        Windsor_Pins_2
        Windsor_Base_2
        Windsor_Body_3
        CFDWT_Floor_3
        Windsor_Pins_3
        Windsor_Base_3

pressure calc_cp:
    Operating mode: staticCoeff
    Not including hydrostatic effects

forceCoeffs forceCoeffsAll:
    rho: rhoInf
    Freestream density (rhoInf) set to 1
    Not including porosity effects

forceCoeffs dragCoeffBase:
    rho: rhoInf
    Freestream density (rhoInf) set to 1
    Not including porosity effects

Time = 1

velocityDampingConstraint velocityDamping damped 0 (0%) of cells
[INFO] MatrixAssemblyU: 4760.446 [ms]
smoothSolver:  Solving for Ux, Initial residual = 0.9999999999995743, Final residual = 0.08731637788004669, No Iterations 15
smoothSolver:  Solving for Uy, Initial residual = 1, Final residual = 0.08970145826405987, No Iterations 31
smoothSolver:  Solving for Uz, Initial residual = 1, Final residual = 0.03285841162343466, No Iterations 2
[INFO] MomentumPredictor: 5201.139 [ms]
[INFO] MatrixAssemblyPI: 985.427 [ms]
[INFO] MatrixAssemblyPII: 481.094 [ms]
[OGL LOG][lduLduBase.H:122] Initialising OGL
	OGL commit:  b92e557
	Branch: cyclic 
	Build type: Release
	Ginkgo version: 1.5.0 ( develop)
	Ginkgo commit: 4292ffdee
	MPI is GPU aware: 1
	Forces host buffer based communication: 1
	CPU ranks per GPU: 1
	Matrix format: Coo
	End OGL_INFO
[OGL LOG][Proc: 0]: global_index_init: 20.049 [ms]
[OGL LOG][Proc: 0]p_local_cols: call_init: 0.035 [ms]
[OGL LOG][Proc: 0]p_local_rows: call_init: 0.007 [ms]
[OGL LOG][Proc: 0]p_local_ldu_map: call_init: 0.007 [ms]
[OGL LOG][Proc: 0]p_local_coeffs: call_init: 0.009000000000000001 [ms]
[OGL LOG][Proc: 0]p_non_local_cols: call_init: 0.004 [ms]
[OGL LOG][Proc: 0]p_non_local_rows: call_init: 0.003 [ms]
[OGL LOG][Proc: 0]p_non_local_ldu_map: call_init: 0.002 [ms]
[OGL LOG][Proc: 0]p_non_local_coeffs: call_init: 0.003 [ms]
[OGL LOG][Proc: 0]p: init_local_sparsity_pattern: 423.582 [ms]
[OGL LOG][Proc: 0]p: init_non_local_sparsity_pattern: 174.205 [ms]
[OGL LOG][Proc: 0]p: update_local_matrix_data: 105.997 [ms]
[OGL LOG][Proc: 0]p: update_non_local_matrix_data: 0.166 [ms]
[OGL LOG][Proc: 0]device_partition: call_init: 41.141 [ms]
[OGL LOG][Proc: 0]p_matrix: call_init: 353.091 [ms]
[OGL LOG][Proc: 0]p_rhs: call_init: 70.965 [ms]
[OGL LOG][Proc: 0]p_solution: call_init: 5.769 [ms]
[OGL LOG][Preconditioner.H:121] Generate preconditioner BJ MaxBlockSize 1
[OGL LOG][Proc: 0]p: init_precond: 5.552 [ms]
[OGL LOG][StoppingCriterion.H:372] Creating stopping criterion with minIter 0 frequency 1
[OGL LOG][Proc: 0]p: generate_solver: 0.013 [ms]
[OGL LOG][Proc: 0]p: solve: 2686.312 [ms]
[OGL LOG][Proc: 0]p: copy_x_back: 10.236 [ms]
[OGL LOG][lduLduBase.H:339] 
Statistics:
	Time per iteration: 2299 [mu s]
	Time per residual norm calculation: 1326.000000 [mu s]
	Time per iteration and DOF: 0.121503 [ns]
	Retrieve results bandwidth 1.848000 [GByte/s]
[OGL LOG][Proc: 0]p: solve_multi_gpu: 3173.895 [ms]
BJhipGKOCG:  Solving for p, Initial residual = 1.00000000000081, Final residual = 0.009923158415635463, No Iterations 1168
[INFO] SolveP: 4380.266 [ms]
time step continuity errors : sum local = 0.003640858604358393, global = 5.528890891166698e-05, cumulative = 5.528890891166698e-05
[INFO] postSolveP: 254.089 [ms]
smoothSolver:  Solving for nuTilda, Initial residual = 0.9999999987718219, Final residual = 0.06430240339069163, No Iterations 3
[INFO] TimeStep: 19094.517 [ms]
ExecutionTime = 51.76 s  ClockTime = 52 s

--> FOAM Warning : 
    From virtual bool Foam::functionObjects::fieldSelection::checkSelection()
    in file functionObjects/fieldSelections/fieldSelection/fieldSelection.C at line 166
    Field k not found
--> FOAM Warning : 
    From virtual bool Foam::functionObjects::fieldSelection::checkSelection()
    in file functionObjects/fieldSelections/fieldSelection/fieldSelection.C at line 166
    Field gammaInt not found
--> FOAM Warning : 
    From virtual bool Foam::functionObjects::fieldSelection::checkSelection()
    in file functionObjects/fieldSelections/fieldSelection/fieldSelection.C at line 166
    Field omega not found
--> FOAM Warning : 
    From virtual bool Foam::functionObjects::fieldSelection::checkSelection()
    in file functionObjects/fieldSelections/fieldSelection/fieldSelection.C at line 166
    Field ReThetat not found
--> FOAM Warning : 
    From virtual bool Foam::functionObjects::fieldSelection::checkSelection()
    in file functionObjects/fieldSelections/fieldSelection/fieldSelection.C at line 166
    Field epsilon not found
--> FOAM Warning : 
    From virtual bool Foam::functionObjects::solverFieldSelection::updateSelection()
    in file functionObjects/fieldSelections/solverFieldSelection/solverFieldSelection.C at line 85
    Valid solver fields are: 3(U nuTilda p)Time = 2

velocityDampingConstraint velocityDamping damped 0 (0%) of cells
[INFO] MatrixAssemblyU: 4580.09 [ms]
smoothSolver:  Solving for Ux, Initial residual = 0.2130735951192662, Final residual = 0.01838898204226112, No Iterations 13
smoothSolver:  Solving for Uy, Initial residual = 0.3544937367712714, Final residual = 0.0330543573054092, No Iterations 13
smoothSolver:  Solving for Uz, Initial residual = 0.328720198320283, Final residual = 0.02811667037258213, No Iterations 13
[INFO] MomentumPredictor: 4367.243 [ms]
[INFO] MatrixAssemblyPI: 1021.65 [ms]
[INFO] MatrixAssemblyPII: 479.581 [ms]
[OGL LOG][Proc: 0]: global_index_init: 0.011 [ms]
[OGL LOG][Proc: 0]p_local_coeffs: call_update: 0.001 [ms]
[OGL LOG][Proc: 0]p_non_local_coeffs: call_update: 0 [ms]
[OGL LOG][Proc: 0]p: update_local_matrix_data: 117.888 [ms]
[OGL LOG][Proc: 0]p: update_non_local_matrix_data: 0.162 [ms]
[OGL LOG][Proc: 0]p_matrix: call_update: 20.06 [ms]
[OGL LOG][Proc: 0]p_rhs: call_update: 35.759 [ms]
[OGL LOG][Preconditioner.H:121] Generate preconditioner BJ MaxBlockSize 1
[OGL LOG][Proc: 0]p: init_precond: 0.771 [ms]
[OGL LOG][StoppingCriterion.H:372] Creating stopping criterion with minIter 700 frequency 21
[OGL LOG][Proc: 0]p: generate_solver: 0.001 [ms]
[OGL LOG][Proc: 0]p: solve: 1908.591 [ms]
[OGL LOG][Proc: 0]p: copy_x_back: 10.115 [ms]
[OGL LOG][lduLduBase.H:339] 
Statistics:
	Time per iteration: 1973 [mu s]
	Time per residual norm calculation: 309.000000 [mu s]
	Time per iteration and DOF: 0.104273 [ns]
	Retrieve results bandwidth 1.871000 [GByte/s]
[OGL LOG][Proc: 0]p: solve_multi_gpu: 1976.08 [ms]
BJhipGKOCG:  Solving for p, Initial residual = 0.2098473512246039, Final residual = 0.001596636298215021, No Iterations 967
[INFO] SolveP: 2119.273 [ms]
time step continuity errors : sum local = 0.03272536318628415, global = 0.001539869743134208, cumulative = 0.001595158652045875
[INFO] postSolveP: 241.561 [ms]
smoothSolver:  Solving for nuTilda, Initial residual = 0.4060651051035235, Final residual = 0.02531420877174882, No Iterations 1
[INFO] TimeStep: 15737.217 [ms]
ExecutionTime = 70.8 s  ClockTime = 71 s

Time = 3

velocityDampingConstraint velocityDamping damped 2492 (0.01317026724438266%) of cells
[INFO] MatrixAssemblyU: 4532.04 [ms]
smoothSolver:  Solving for Ux, Initial residual = 0.1250044980680033, Final residual = 0.01169664822887087, No Iterations 9
smoothSolver:  Solving for Uy, Initial residual = 0.2046798116182391, Final residual = 0.01955538235183468, No Iterations 10
smoothSolver:  Solving for Uz, Initial residual = 0.2187500853559508, Final residual = 0.02130623783325369, No Iterations 9
[INFO] MomentumPredictor: 3353.92 [ms]
[INFO] MatrixAssemblyPI: 947.057 [ms]
[INFO] MatrixAssemblyPII: 472.47 [ms]
[OGL LOG][Proc: 0]: global_index_init: 0.018 [ms]
[OGL LOG][Proc: 0]p_local_coeffs: call_update: 0 [ms]
[OGL LOG][Proc: 0]p_non_local_coeffs: call_update: 0 [ms]
[OGL LOG][Proc: 0]p: update_local_matrix_data: 119.889 [ms]
[OGL LOG][Proc: 0]p: update_non_local_matrix_data: 0.213 [ms]
[OGL LOG][Proc: 0]p_matrix: call_update: 17.393 [ms]
[OGL LOG][Proc: 0]p_rhs: call_update: 38.499 [ms]
[OGL LOG][Preconditioner.H:121] Generate preconditioner BJ MaxBlockSize 1
[OGL LOG][Proc: 0]p: init_precond: 0.78 [ms]
[OGL LOG][StoppingCriterion.H:372] Creating stopping criterion with minIter 580 frequency 8
[OGL LOG][Proc: 0]p: generate_solver: 0.001 [ms]
[OGL LOG][Proc: 0]p: solve: 1199.594 [ms]
[OGL LOG][Proc: 0]p: copy_x_back: 8.883000000000001 [ms]
[OGL LOG][lduLduBase.H:339] 
Statistics:
	Time per iteration: 2050 [mu s]
	Time per residual norm calculation: 333.000000 [mu s]
	Time per iteration and DOF: 0.108343 [ns]
	Retrieve results bandwidth 2.130000 [GByte/s]
[OGL LOG][Proc: 0]p: solve_multi_gpu: 1265.909 [ms]
BJhipGKOCG:  Solving for p, Initial residual = 0.1169566625554575, Final residual = 0.001039202955125532, No Iterations 585
[INFO] SolveP: 1412.075 [ms]
time step continuity errors : sum local = 0.01172974350643854, global = 7.316165904163568e-05, cumulative = 0.001668320311087511
[INFO] postSolveP: 254.609 [ms]
smoothSolver:  Solving for nuTilda, Initial residual = 0.2093204119901289, Final residual = 0.01312937217627617, No Iterations 2
[INFO] TimeStep: 14005.935 [ms]
ExecutionTime = 88.23 s  ClockTime = 89 s

Time = 4

velocityDampingConstraint velocityDamping damped 0 (0%) of cells
[INFO] MatrixAssemblyU: 4605.932 [ms]
smoothSolver:  Solving for Ux, Initial residual = 0.05436674669537574, Final residual = 0.004940656843052111, No Iterations 11
smoothSolver:  Solving for Uy, Initial residual = 0.1221022139483897, Final residual = 0.01094284423021139, No Iterations 11
smoothSolver:  Solving for Uz, Initial residual = 0.1334045906643679, Final residual = 0.01298505800040797, No Iterations 10
[INFO] MomentumPredictor: 3733.654 [ms]
[INFO] MatrixAssemblyPI: 949.477 [ms]
[INFO] MatrixAssemblyPII: 505.418 [ms]
[OGL LOG][Proc: 0]: global_index_init: 0.1 [ms]
[OGL LOG][Proc: 0]p_local_coeffs: call_update: 0 [ms]
[OGL LOG][Proc: 0]p_non_local_coeffs: call_update: 0 [ms]
[OGL LOG][Proc: 0]p: update_local_matrix_data: 117.805 [ms]
[OGL LOG][Proc: 0]p: update_non_local_matrix_data: 0.35 [ms]
[OGL LOG][Proc: 0]p_matrix: call_update: 18.175 [ms]
[OGL LOG][Proc: 0]p_rhs: call_update: 31.916 [ms]
[OGL LOG][Preconditioner.H:121] Generate preconditioner BJ MaxBlockSize 1
[OGL LOG][Proc: 0]p: init_precond: 0.8090000000000001 [ms]
[OGL LOG][StoppingCriterion.H:372] Creating stopping criterion with minIter 351 frequency 6
[OGL LOG][Proc: 0]p: generate_solver: 0.001 [ms]
[OGL LOG][Proc: 0]p: solve: 776.615 [ms]
[OGL LOG][Proc: 0]p: copy_x_back: 10.957 [ms]
[OGL LOG][lduLduBase.H:339] 
Statistics:
	Time per iteration: 2187 [mu s]
	Time per residual norm calculation: 356.000000 [mu s]
	Time per iteration and DOF: 0.115583 [ns]
	Retrieve results bandwidth 1.727000 [GByte/s]
[OGL LOG][Proc: 0]p: solve_multi_gpu: 839.4350000000001 [ms]
BJhipGKOCG:  Solving for p, Initial residual = 0.141062958048219, Final residual = 0.001377566473987073, No Iterations 355
[INFO] SolveP: 982.453 [ms]
time step continuity errors : sum local = 0.01314956176106925, global = -0.0003515475250643687, cumulative = 0.001316772786023142
[INFO] postSolveP: 244.888 [ms]
smoothSolver:  Solving for nuTilda, Initial residual = 0.1248146072599723, Final residual = 0.01051412023857413, No Iterations 2
[INFO] TimeStep: 14006.177 [ms]
ExecutionTime = 105.68 s  ClockTime = 106 s

Time = 5

velocityDampingConstraint velocityDamping damped 353 (0.001865611692322263%) of cells
[INFO] MatrixAssemblyU: 4497.347 [ms]
smoothSolver:  Solving for Ux, Initial residual = 0.04406145855149231, Final residual = 0.004189342867263966, No Iterations 10
smoothSolver:  Solving for Uy, Initial residual = 0.09787560868635393, Final residual = 0.009228350387423371, No Iterations 11
smoothSolver:  Solving for Uz, Initial residual = 0.11383621756061, Final residual = 0.01126810051476129, No Iterations 10
[INFO] MomentumPredictor: 3628.815 [ms]
[INFO] MatrixAssemblyPI: 948.777 [ms]
[INFO] MatrixAssemblyPII: 500.498 [ms]
[OGL LOG][Proc: 0]: global_index_init: 0.077 [ms]
[OGL LOG][Proc: 0]p_local_coeffs: call_update: 0 [ms]
[OGL LOG][Proc: 0]p_non_local_coeffs: call_update: 0 [ms]
[OGL LOG][Proc: 0]p: update_local_matrix_data: 118.899 [ms]
[OGL LOG][Proc: 0]p: update_non_local_matrix_data: 0.194 [ms]
[OGL LOG][Proc: 0]p_matrix: call_update: 18.584 [ms]
[OGL LOG][Proc: 0]p_rhs: call_update: 18.114 [ms]
[OGL LOG][Preconditioner.H:121] Generate preconditioner BJ MaxBlockSize 1
[OGL LOG][Proc: 0]p: init_precond: 0.839 [ms]
[OGL LOG][StoppingCriterion.H:372] Creating stopping criterion with minIter 213 frequency 4
[OGL LOG][Proc: 0]p: generate_solver: 0.001 [ms]
[OGL LOG][Proc: 0]p: solve: 768.3200000000001 [ms]
[OGL LOG][Proc: 0]p: copy_x_back: 9.287000000000001 [ms]
[OGL LOG][lduLduBase.H:339] 
Statistics:
	Time per iteration: 2279 [mu s]
	Time per residual norm calculation: 338.000000 [mu s]
	Time per iteration and DOF: 0.120446 [ns]
	Retrieve results bandwidth 2.037000 [GByte/s]
[OGL LOG][Proc: 0]p: solve_multi_gpu: 815.937 [ms]
BJhipGKOCG:  Solving for p, Initial residual = 0.1027800708534117, Final residual = 0.00102053284375749, No Iterations 337
[INFO] SolveP: 958.807 [ms]
time step continuity errors : sum local = 0.007616385447516425, global = 0.000338350874778482, cumulative = 0.001655123660801624
[INFO] postSolveP: 260.352 [ms]
smoothSolver:  Solving for nuTilda, Initial residual = 0.07092825056404331, Final residual = 0.004312012474260944, No Iterations 3
[INFO] TimeStep: 13843.023 [ms]
ExecutionTime = 122.94 s  ClockTime = 124 s

Time = 6

velocityDampingConstraint velocityDamping damped 0 (0%) of cells
[INFO] MatrixAssemblyU: 4513.579 [ms]
smoothSolver:  Solving for Ux, Initial residual = 0.02988464598714116, Final residual = 0.002658569705845519, No Iterations 12
smoothSolver:  Solving for Uy, Initial residual = 0.07449863227133678, Final residual = 0.006892691476529056, No Iterations 12
smoothSolver:  Solving for Uz, Initial residual = 0.08083809455171945, Final residual = 0.006921274653683978, No Iterations 12
[INFO] MomentumPredictor: 4096.193 [ms]
[INFO] MatrixAssemblyPI: 995.205 [ms]
[INFO] MatrixAssemblyPII: 480.208 [ms]
[OGL LOG][Proc: 0]: global_index_init: 0.02 [ms]
[OGL LOG][Proc: 0]p_local_coeffs: call_update: 0 [ms]
[OGL LOG][Proc: 0]p_non_local_coeffs: call_update: 0 [ms]
[OGL LOG][Proc: 0]p: update_local_matrix_data: 120.057 [ms]
[OGL LOG][Proc: 0]p: update_non_local_matrix_data: 0.237 [ms]
[OGL LOG][Proc: 0]p_matrix: call_update: 16.591 [ms]
[OGL LOG][Proc: 0]p_rhs: call_update: 31.629 [ms]
[OGL LOG][Preconditioner.H:121] Generate preconditioner BJ MaxBlockSize 1
[OGL LOG][Proc: 0]p: init_precond: 0.78 [ms]
[OGL LOG][StoppingCriterion.H:372] Creating stopping criterion with minIter 202 frequency 4
[OGL LOG][Proc: 0]p: generate_solver: 0.001 [ms]
[OGL LOG][Proc: 0]p: solve: 743.831 [ms]
[OGL LOG][Proc: 0]p: copy_x_back: 11.264 [ms]
[OGL LOG][lduLduBase.H:339] 
Statistics:
	Time per iteration: 2288 [mu s]
	Time per residual norm calculation: 357.000000 [mu s]
	Time per iteration and DOF: 0.120921 [ns]
	Retrieve results bandwidth 1.680000 [GByte/s]
[OGL LOG][Proc: 0]p: solve_multi_gpu: 804.826 [ms]
BJhipGKOCG:  Solving for p, Initial residual = 0.09133011627672569, Final residual = 0.0008907557631704616, No Iterations 325
[INFO] SolveP: 950.37 [ms]
time step continuity errors : sum local = 0.006920465479559761, global = 9.667221152128674e-05, cumulative = 0.001751795872322911
[INFO] postSolveP: 249.542 [ms]
smoothSolver:  Solving for nuTilda, Initial residual = 0.06434711025600538, Final residual = 0.003004732779927797, No Iterations 3
[INFO] TimeStep: 14354.468 [ms]
ExecutionTime = 140.72 s  ClockTime = 142 s

Time = 7

velocityDampingConstraint velocityDamping damped 41 (0.0002166857772952203%) of cells
[INFO] MatrixAssemblyU: 4444.739 [ms]
smoothSolver:  Solving for Ux, Initial residual = 0.02705333776006547, Final residual = 0.00240542850787771, No Iterations 12
smoothSolver:  Solving for Uy, Initial residual = 0.0675066467847716, Final residual = 0.006374207331337571, No Iterations 12
smoothSolver:  Solving for Uz, Initial residual = 0.07105760003197793, Final residual = 0.006209552164388851, No Iterations 12
[INFO] MomentumPredictor: 4071.391 [ms]
[INFO] MatrixAssemblyPI: 920.1849999999999 [ms]
[INFO] MatrixAssemblyPII: 539.204 [ms]
[OGL LOG][Proc: 0]: global_index_init: 0.064 [ms]
[OGL LOG][Proc: 0]p_local_coeffs: call_update: 0 [ms]
[OGL LOG][Proc: 0]p_non_local_coeffs: call_update: 0 [ms]
[OGL LOG][Proc: 0]p: update_local_matrix_data: 101.932 [ms]
[OGL LOG][Proc: 0]p: update_non_local_matrix_data: 0.281 [ms]
[OGL LOG][Proc: 0]p_matrix: call_update: 20.12 [ms]
[OGL LOG][Proc: 0]p_rhs: call_update: 49.243 [ms]
[OGL LOG][Preconditioner.H:121] Generate preconditioner BJ MaxBlockSize 1
[OGL LOG][Proc: 0]p: init_precond: 0.77 [ms]
[OGL LOG][StoppingCriterion.H:372] Creating stopping criterion with minIter 195 frequency 4
[OGL LOG][Proc: 0]p: generate_solver: 0.001 [ms]
[OGL LOG][Proc: 0]p: solve: 789.143 [ms]
[OGL LOG][Proc: 0]p: copy_x_back: 9.843 [ms]
[OGL LOG][lduLduBase.H:339] 
Statistics:
	Time per iteration: 2235 [mu s]
	Time per residual norm calculation: 349.000000 [mu s]
	Time per iteration and DOF: 0.118120 [ns]
	Retrieve results bandwidth 1.922000 [GByte/s]
[OGL LOG][Proc: 0]p: solve_multi_gpu: 869.881 [ms]
BJhipGKOCG:  Solving for p, Initial residual = 0.07951971771205538, Final residual = 0.0007864390729853085, No Iterations 353
[INFO] SolveP: 997.177 [ms]
time step continuity errors : sum local = 0.005985810645461822, global = -0.0005030754532218086, cumulative = 0.001248720419101102
[INFO] postSolveP: 265.772 [ms]
smoothSolver:  Solving for nuTilda, Initial residual = 0.04911953343995105, Final residual = 0.003229061450867348, No Iterations 3
[INFO] TimeStep: 14271.159 [ms]
ExecutionTime = 158.38 s  ClockTime = 159 s

Time = 8

velocityDampingConstraint velocityDamping damped 0 (0%) of cells
[INFO] MatrixAssemblyU: 4387.508 [ms]
smoothSolver:  Solving for Ux, Initial residual = 0.02306395773632353, Final residual = 0.002134816744360084, No Iterations 12
smoothSolver:  Solving for Uy, Initial residual = 0.06005216749014461, Final residual = 0.005883529463636366, No Iterations 12
smoothSolver:  Solving for Uz, Initial residual = 0.06206414205566321, Final residual = 0.005615344842646356, No Iterations 12
[INFO] MomentumPredictor: 4073.45 [ms]
[INFO] MatrixAssemblyPI: 916.351 [ms]
[INFO] MatrixAssemblyPII: 508.412 [ms]
[OGL LOG][Proc: 0]: global_index_init: 0.07100000000000001 [ms]
[OGL LOG][Proc: 0]p_local_coeffs: call_update: 0 [ms]
[OGL LOG][Proc: 0]p_non_local_coeffs: call_update: 0 [ms]
[OGL LOG][Proc: 0]p: update_local_matrix_data: 117.939 [ms]
[OGL LOG][Proc: 0]p: update_non_local_matrix_data: 0.148 [ms]
[OGL LOG][Proc: 0]p_matrix: call_update: 16.304 [ms]
[OGL LOG][Proc: 0]p_rhs: call_update: 43.792 [ms]
[OGL LOG][Preconditioner.H:121] Generate preconditioner BJ MaxBlockSize 1
[OGL LOG][Proc: 0]p: init_precond: 0.746 [ms]
[OGL LOG][StoppingCriterion.H:372] Creating stopping criterion with minIter 211 frequency 4
[OGL LOG][Proc: 0]p: generate_solver: 0.001 [ms]
[OGL LOG][Proc: 0]p: solve: 1561.337 [ms]
[OGL LOG][Proc: 0]p: copy_x_back: 9.739000000000001 [ms]
[OGL LOG][lduLduBase.H:339] 
Statistics:
	Time per iteration: 2073 [mu s]
	Time per residual norm calculation: 356.000000 [mu s]
	Time per iteration and DOF: 0.109558 [ns]
	Retrieve results bandwidth 1.943000 [GByte/s]
[OGL LOG][Proc: 0]p: solve_multi_gpu: 1632.698 [ms]
BJhipGKOCG:  Solving for p, Initial residual = 0.07195646145025178, Final residual = 0.0007149875269619233, No Iterations 753
[INFO] SolveP: 1774.301 [ms]
time step continuity errors : sum local = 0.00554412163454026, global = -0.0003621146178771024, cumulative = 0.0008866058012239999
[INFO] postSolveP: 252.209 [ms]
smoothSolver:  Solving for nuTilda, Initial residual = 0.06545637539468081, Final residual = 0.005860976703453851, No Iterations 2
[INFO] TimeStep: 14879.887 [ms]
ExecutionTime = 176.56 s  ClockTime = 178 s

Time = 9

velocityDampingConstraint velocityDamping damped 0 (0%) of cells
[INFO] MatrixAssemblyU: 4496.112 [ms]
smoothSolver:  Solving for Ux, Initial residual = 0.02048781647316864, Final residual = 0.001905757001447621, No Iterations 12
smoothSolver:  Solving for Uy, Initial residual = 0.05437574852670438, Final residual = 0.005389505202965847, No Iterations 12
smoothSolver:  Solving for Uz, Initial residual = 0.05538845729672898, Final residual = 0.005116018823896948, No Iterations 12
[INFO] MomentumPredictor: 4061.682 [ms]
[INFO] MatrixAssemblyPI: 927.16 [ms]
[INFO] MatrixAssemblyPII: 489.292 [ms]
[OGL LOG][Proc: 0]: global_index_init: 0.063 [ms]
[OGL LOG][Proc: 0]p_local_coeffs: call_update: 0 [ms]
[OGL LOG][Proc: 0]p_non_local_coeffs: call_update: 0 [ms]
[OGL LOG][Proc: 0]p: update_local_matrix_data: 113.986 [ms]
[OGL LOG][Proc: 0]p: update_non_local_matrix_data: 0.172 [ms]
[OGL LOG][Proc: 0]p_matrix: call_update: 16.457 [ms]
[OGL LOG][Proc: 0]p_rhs: call_update: 35.085 [ms]
[OGL LOG][Preconditioner.H:121] Generate preconditioner BJ MaxBlockSize 1
[OGL LOG][Proc: 0]p: init_precond: 0.767 [ms]
[OGL LOG][StoppingCriterion.H:372] Creating stopping criterion with minIter 451 frequency 7
[OGL LOG][Proc: 0]p: generate_solver: 0.001 [ms]
[OGL LOG][Proc: 0]p: solve: 955.364 [ms]
[OGL LOG][Proc: 0]p: copy_x_back: 10.953 [ms]
[OGL LOG][lduLduBase.H:339] 
Statistics:
	Time per iteration: 2095 [mu s]
	Time per residual norm calculation: 352.000000 [mu s]
	Time per iteration and DOF: 0.110721 [ns]
	Retrieve results bandwidth 1.727000 [GByte/s]
[OGL LOG][Proc: 0]p: solve_multi_gpu: 1019.351 [ms]
BJhipGKOCG:  Solving for p, Initial residual = 0.0687427760455631, Final residual = 0.0003854573709750605, No Iterations 456
[INFO] SolveP: 1159.962 [ms]
time step continuity errors : sum local = 0.002893850164870313, global = 0.000556922420345443, cumulative = 0.001443528221569443
[INFO] postSolveP: 242.744 [ms]
smoothSolver:  Solving for nuTilda, Initial residual = 0.04415182208836847, Final residual = 0.003201747731661933, No Iterations 3
[INFO] TimeStep: 14449.714 [ms]
ExecutionTime = 194.35 s  ClockTime = 196 s

Time = 10

velocityDampingConstraint velocityDamping damped 0 (0%) of cells
[INFO] MatrixAssemblyU: 4477.162 [ms]
smoothSolver:  Solving for Ux, Initial residual = 0.0184380104338582, Final residual = 0.001726820280519649, No Iterations 12
smoothSolver:  Solving for Uy, Initial residual = 0.05006761495222261, Final residual = 0.004968284308755999, No Iterations 12
smoothSolver:  Solving for Uz, Initial residual = 0.05061194120542842, Final residual = 0.004747129950265277, No Iterations 12
[INFO] MomentumPredictor: 4092.889 [ms]
[INFO] MatrixAssemblyPI: 911.338 [ms]
[INFO] MatrixAssemblyPII: 527.14 [ms]
[OGL LOG][Proc: 0]: global_index_init: 0.125 [ms]
[OGL LOG][Proc: 0]p_local_coeffs: call_update: 0 [ms]
[OGL LOG][Proc: 0]p_non_local_coeffs: call_update: 0 [ms]
[OGL LOG][Proc: 0]p: update_local_matrix_data: 116.68 [ms]
[OGL LOG][Proc: 0]p: update_non_local_matrix_data: 0.138 [ms]
[OGL LOG][Proc: 0]p_matrix: call_update: 17.876 [ms]
[OGL LOG][Proc: 0]p_rhs: call_update: 22.685 [ms]
[OGL LOG][Preconditioner.H:121] Generate preconditioner BJ MaxBlockSize 1
[OGL LOG][Proc: 0]p: init_precond: 0.751 [ms]
[OGL LOG][StoppingCriterion.H:372] Creating stopping criterion with minIter 273 frequency 6
[OGL LOG][Proc: 0]p: generate_solver: 0.001 [ms]
[OGL LOG][Proc: 0]p: solve: 694.115 [ms]
[OGL LOG][Proc: 0]p: copy_x_back: 11.244 [ms]
[OGL LOG][lduLduBase.H:339] 
Statistics:
	Time per iteration: 2260 [mu s]
	Time per residual norm calculation: 338.000000 [mu s]
	Time per iteration and DOF: 0.119441 [ns]
	Retrieve results bandwidth 1.683000 [GByte/s]
[OGL LOG][Proc: 0]p: solve_multi_gpu: 747.373 [ms]
BJhipGKOCG:  Solving for p, Initial residual = 0.06284746355934347, Final residual = 0.0006227844251353798, No Iterations 307
[INFO] SolveP: 887.7140000000001 [ms]
time step continuity errors : sum local = 0.004635238588004728, global = 0.001040094626471558, cumulative = 0.002483622848041001
[INFO] postSolveP: 252.92 [ms]
smoothSolver:  Solving for nuTilda, Initial residual = 0.0697228189422483, Final residual = 0.005491602819470024, No Iterations 2
[INFO] TimeStep: 14089.655 [ms]
ExecutionTime = 211.8 s  ClockTime = 213 s

Time = 11

velocityDampingConstraint velocityDamping damped 0 (0%) of cells
[INFO] MatrixAssemblyU: 4377.64 [ms]
smoothSolver:  Solving for Ux, Initial residual = 0.01673989962105612, Final residual = 0.001602517983360882, No Iterations 12
smoothSolver:  Solving for Uy, Initial residual = 0.04722219964669822, Final residual = 0.004651119020146114, No Iterations 12
smoothSolver:  Solving for Uz, Initial residual = 0.04713324645046612, Final residual = 0.004459938710908196, No Iterations 12
[INFO] MomentumPredictor: 4065.532 [ms]
[INFO] MatrixAssemblyPI: 912.365 [ms]
[INFO] MatrixAssemblyPII: 457.264 [ms]
[OGL LOG][Proc: 0]: global_index_init: 0.012 [ms]
[OGL LOG][Proc: 0]p_local_coeffs: call_update: 0 [ms]
[OGL LOG][Proc: 0]p_non_local_coeffs: call_update: 0 [ms]
[OGL LOG][Proc: 0]p: update_local_matrix_data: 111.365 [ms]
[OGL LOG][Proc: 0]p: update_non_local_matrix_data: 0.343 [ms]
[OGL LOG][Proc: 0]p_matrix: call_update: 15.907 [ms]
[OGL LOG][Proc: 0]p_rhs: call_update: 39.232 [ms]
[OGL LOG][Preconditioner.H:121] Generate preconditioner BJ MaxBlockSize 1
[OGL LOG][Proc: 0]p: init_precond: 0.768 [ms]
[OGL LOG][StoppingCriterion.H:372] Creating stopping criterion with minIter 184 frequency 4
[OGL LOG][Proc: 0]p: generate_solver: 0.001 [ms]
[OGL LOG][Proc: 0]p: solve: 1541.23 [ms]
[OGL LOG][Proc: 0]p: copy_x_back: 11.665 [ms]
[OGL LOG][lduLduBase.H:339] 
Statistics:
	Time per iteration: 2068 [mu s]
	Time per residual norm calculation: 355.000000 [mu s]
	Time per iteration and DOF: 0.109294 [ns]
	Retrieve results bandwidth 1.622000 [GByte/s]
[OGL LOG][Proc: 0]p: solve_multi_gpu: 1609.57 [ms]
BJhipGKOCG:  Solving for p, Initial residual = 0.05837902014125244, Final residual = 0.0005661503165482885, No Iterations 745
[INFO] SolveP: 1747.902 [ms]
time step continuity errors : sum local = 0.004231331482206775, global = -0.0001694907267008337, cumulative = 0.002314132121340168
[INFO] postSolveP: 260.778 [ms]
smoothSolver:  Solving for nuTilda, Initial residual = 0.03913645737363334, Final residual = 0.003024804603457869, No Iterations 3
[INFO] TimeStep: 14928.886 [ms]
ExecutionTime = 230.08 s  ClockTime = 231 s

Time = 12

velocityDampingConstraint velocityDamping damped 0 (0%) of cells
[INFO] MatrixAssemblyU: 4453.19 [ms]
smoothSolver:  Solving for Ux, Initial residual = 0.01560030886476288, Final residual = 0.001513144141153979, No Iterations 12
smoothSolver:  Solving for Uy, Initial residual = 0.04557913135445555, Final residual = 0.004435457335571734, No Iterations 12
smoothSolver:  Solving for Uz, Initial residual = 0.04518016289136401, Final residual = 0.004268086438030899, No Iterations 12
[INFO] MomentumPredictor: 4073.264 [ms]
[INFO] MatrixAssemblyPI: 920.652 [ms]
[INFO] MatrixAssemblyPII: 530.105 [ms]
[OGL LOG][Proc: 0]: global_index_init: 0.011 [ms]
[OGL LOG][Proc: 0]p_local_coeffs: call_update: 0 [ms]
[OGL LOG][Proc: 0]p_non_local_coeffs: call_update: 0 [ms]
[OGL LOG][Proc: 0]p: update_local_matrix_data: 116.425 [ms]
[OGL LOG][Proc: 0]p: update_non_local_matrix_data: 0.132 [ms]
[OGL LOG][Proc: 0]p_matrix: call_update: 20.086 [ms]
[OGL LOG][Proc: 0]p_rhs: call_update: 32.942 [ms]
[OGL LOG][Preconditioner.H:121] Generate preconditioner BJ MaxBlockSize 1
[OGL LOG][Proc: 0]p: init_precond: 0.747 [ms]
[OGL LOG][StoppingCriterion.H:372] Creating stopping criterion with minIter 447 frequency 7
[OGL LOG][Proc: 0]p: generate_solver: 0.002 [ms]
[OGL LOG][Proc: 0]p: solve: 955.7660000000001 [ms]
[OGL LOG][Proc: 0]p: copy_x_back: 10.049 [ms]
[OGL LOG][lduLduBase.H:339] 
Statistics:
	Time per iteration: 2128 [mu s]
	Time per residual norm calculation: 330.000000 [mu s]
	Time per iteration and DOF: 0.112465 [ns]
	Retrieve results bandwidth 1.883000 [GByte/s]
[OGL LOG][Proc: 0]p: solve_multi_gpu: 1020.353 [ms]
BJhipGKOCG:  Solving for p, Initial residual = 0.05093969749595991, Final residual = 0.0003253237882765652, No Iterations 449
[INFO] SolveP: 1161.357 [ms]
time step continuity errors : sum local = 0.002607244451505907, global = -0.000428307776721376, cumulative = 0.001885824344618792
[INFO] postSolveP: 247.351 [ms]
smoothSolver:  Solving for nuTilda, Initial residual = 0.06546571451932728, Final residual = 0.005099949871449901, No Iterations 2
[INFO] TimeStep: 14329.785 [ms]
ExecutionTime = 247.76 s  ClockTime = 249 s

Time = 13

velocityDampingConstraint velocityDamping damped 0 (0%) of cells
[INFO] MatrixAssemblyU: 4422.201 [ms]
smoothSolver:  Solving for Ux, Initial residual = 0.01449001188045417, Final residual = 0.001438859096834849, No Iterations 12
smoothSolver:  Solving for Uy, Initial residual = 0.04347154326418404, Final residual = 0.004239094349992937, No Iterations 12
smoothSolver:  Solving for Uz, Initial residual = 0.04306252642431428, Final residual = 0.004124665045434845, No Iterations 12
[INFO] MomentumPredictor: 4066.583 [ms]
[INFO] MatrixAssemblyPI: 926.794 [ms]
[INFO] MatrixAssemblyPII: 459.636 [ms]
[OGL LOG][Proc: 0]: global_index_init: 0.117 [ms]
[OGL LOG][Proc: 0]p_local_coeffs: call_update: 0 [ms]
[OGL LOG][Proc: 0]p_non_local_coeffs: call_update: 0 [ms]
[OGL LOG][Proc: 0]p: update_local_matrix_data: 120.649 [ms]
[OGL LOG][Proc: 0]p: update_non_local_matrix_data: 0.218 [ms]
[OGL LOG][Proc: 0]p_matrix: call_update: 20.751 [ms]
[OGL LOG][Proc: 0]p_rhs: call_update: 12.761 [ms]
[OGL LOG][Preconditioner.H:121] Generate preconditioner BJ MaxBlockSize 1
[OGL LOG][Proc: 0]p: init_precond: 0.769 [ms]
[OGL LOG][StoppingCriterion.H:372] Creating stopping criterion with minIter 269 frequency 5
[OGL LOG][Proc: 0]p: generate_solver: 0.001 [ms]
[OGL LOG][Proc: 0]p: solve: 1281.405 [ms]
[OGL LOG][Proc: 0]p: copy_x_back: 10.134 [ms]
[OGL LOG][lduLduBase.H:339] 
Statistics:
	Time per iteration: 2080 [mu s]
	Time per residual norm calculation: 345.000000 [mu s]
	Time per iteration and DOF: 0.109928 [ns]
	Retrieve results bandwidth 1.867000 [GByte/s]
[OGL LOG][Proc: 0]p: solve_multi_gpu: 1326.625 [ms]
BJhipGKOCG:  Solving for p, Initial residual = 0.04849734570769065, Final residual = 0.0004843282630111841, No Iterations 616
[INFO] SolveP: 1472.101 [ms]
time step continuity errors : sum local = 0.003849006098071968, global = -0.0001132158860373351, cumulative = 0.001772608458581456
[INFO] postSolveP: 253.029 [ms]
smoothSolver:  Solving for nuTilda, Initial residual = 0.03472601294516941, Final residual = 0.002827782853763831, No Iterations 3
[INFO] TimeStep: 14629.825 [ms]
ExecutionTime = 265.67 s  ClockTime = 267 s

Time = 14

velocityDampingConstraint velocityDamping damped 0 (0%) of cells
[INFO] MatrixAssemblyU: 4389.25 [ms]
smoothSolver:  Solving for Ux, Initial residual = 0.01372215708345322, Final residual = 0.001171135561266897, No Iterations 13
smoothSolver:  Solving for Uy, Initial residual = 0.04177761047771644, Final residual = 0.004076017811537555, No Iterations 12
smoothSolver:  Solving for Uz, Initial residual = 0.04216310764770203, Final residual = 0.004047692386840373, No Iterations 12
[INFO] MomentumPredictor: 4162.658 [ms]
[INFO] MatrixAssemblyPI: 930.019 [ms]
[INFO] MatrixAssemblyPII: 538.502 [ms]
[OGL LOG][Proc: 0]: global_index_init: 0.011 [ms]
[OGL LOG][Proc: 0]p_local_coeffs: call_update: 0 [ms]
[OGL LOG][Proc: 0]p_non_local_coeffs: call_update: 0 [ms]
[OGL LOG][Proc: 0]p: update_local_matrix_data: 115.918 [ms]
[OGL LOG][Proc: 0]p: update_non_local_matrix_data: 0.178 [ms]
[OGL LOG][Proc: 0]p_matrix: call_update: 16.949 [ms]
[OGL LOG][Proc: 0]p_rhs: call_update: 38.196 [ms]
[OGL LOG][Preconditioner.H:121] Generate preconditioner BJ MaxBlockSize 1
[OGL LOG][Proc: 0]p: init_precond: 0.778 [ms]
[OGL LOG][StoppingCriterion.H:372] Creating stopping criterion with minIter 369 frequency 6
[OGL LOG][Proc: 0]p: generate_solver: 0.001 [ms]
[OGL LOG][Proc: 0]p: solve: 808.825 [ms]
[OGL LOG][Proc: 0]p: copy_x_back: 9.899000000000001 [ms]
[OGL LOG][lduLduBase.H:339] 
Statistics:
	Time per iteration: 2168 [mu s]
	Time per residual norm calculation: 311.000000 [mu s]
	Time per iteration and DOF: 0.114579 [ns]
	Retrieve results bandwidth 1.911000 [GByte/s]
[OGL LOG][Proc: 0]p: solve_multi_gpu: 875.402 [ms]
BJhipGKOCG:  Solving for p, Initial residual = 0.04789812660963349, Final residual = 0.0001415579741019218, No Iterations 373
[INFO] SolveP: 1017.094 [ms]
time step continuity errors : sum local = 0.00108822955325278, global = 0.0002024706158939925, cumulative = 0.001975079074475449
[INFO] postSolveP: 245.216 [ms]
smoothSolver:  Solving for nuTilda, Initial residual = 0.05814011352740248, Final residual = 0.004801042649398101, No Iterations 2
[INFO] TimeStep: 14187.769 [ms]
ExecutionTime = 283.16 s  ClockTime = 285 s

Time = 15

velocityDampingConstraint velocityDamping damped 0 (0%) of cells
[INFO] MatrixAssemblyU: 4443.509 [ms]
smoothSolver:  Solving for Ux, Initial residual = 0.01284533768485547, Final residual = 0.001109449017802187, No Iterations 13
smoothSolver:  Solving for Uy, Initial residual = 0.04010525727638832, Final residual = 0.003949391644290563, No Iterations 12
smoothSolver:  Solving for Uz, Initial residual = 0.04163046184692063, Final residual = 0.004026271576089454, No Iterations 12
[INFO] MomentumPredictor: 4162.19 [ms]
[INFO] MatrixAssemblyPI: 936.843 [ms]
[INFO] MatrixAssemblyPII: 463.223 [ms]
[OGL LOG][Proc: 0]: global_index_init: 0.027 [ms]
[OGL LOG][Proc: 0]p_local_coeffs: call_update: 0 [ms]
[OGL LOG][Proc: 0]p_non_local_coeffs: call_update: 0 [ms]
[OGL LOG][Proc: 0]p: update_local_matrix_data: 118.636 [ms]
[OGL LOG][Proc: 0]p: update_non_local_matrix_data: 0.216 [ms]
[OGL LOG][Proc: 0]p_matrix: call_update: 20.291 [ms]
[OGL LOG][Proc: 0]p_rhs: call_update: 22.907 [ms]
[OGL LOG][Preconditioner.H:121] Generate preconditioner BJ MaxBlockSize 1
[OGL LOG][Proc: 0]p: init_precond: 0.765 [ms]
[OGL LOG][StoppingCriterion.H:372] Creating stopping criterion with minIter 223 frequency 4
[OGL LOG][Proc: 0]p: generate_solver: 0.001 [ms]
[OGL LOG][Proc: 0]p: solve: 623.8050000000001 [ms]
[OGL LOG][Proc: 0]p: copy_x_back: 10.339 [ms]
[OGL LOG][lduLduBase.H:339] 
Statistics:
	Time per iteration: 2353 [mu s]
	Time per residual norm calculation: 337.000000 [mu s]
	Time per iteration and DOF: 0.124356 [ns]
	Retrieve results bandwidth 1.830000 [GByte/s]
[OGL LOG][Proc: 0]p: solve_multi_gpu: 678.8820000000001 [ms]
BJhipGKOCG:  Solving for p, Initial residual = 0.04627564774520473, Final residual = 0.000461800421260172, No Iterations 265
[INFO] SolveP: 822.0359999999999 [ms]
time step continuity errors : sum local = 0.003563884229259051, global = 0.0005185131527668086, cumulative = 0.002493592227242258
[INFO] postSolveP: 265.377 [ms]
smoothSolver:  Solving for nuTilda, Initial residual = 0.03138726788238978, Final residual = 0.002661495616180438, No Iterations 3
[INFO] TimeStep: 14160.736 [ms]
ExecutionTime = 300.59 s  ClockTime = 302 s

Time = 16

velocityDampingConstraint velocityDamping damped 0 (0%) of cells
[INFO] MatrixAssemblyU: 4425.28 [ms]
smoothSolver:  Solving for Ux, Initial residual = 0.01220216086449828, Final residual = 0.00105394581360898, No Iterations 13
smoothSolver:  Solving for Uy, Initial residual = 0.03923127636118969, Final residual = 0.003883895193894941, No Iterations 12
smoothSolver:  Solving for Uz, Initial residual = 0.04158487134077031, Final residual = 0.004040374924108065, No Iterations 12
[INFO] MomentumPredictor: 4168.037 [ms]
[INFO] MatrixAssemblyPI: 943.325 [ms]
[INFO] MatrixAssemblyPII: 522.204 [ms]
[OGL LOG][Proc: 0]: global_index_init: 0.112 [ms]
[OGL LOG][Proc: 0]p_local_coeffs: call_update: 0 [ms]
[OGL LOG][Proc: 0]p_non_local_coeffs: call_update: 0 [ms]
[OGL LOG][Proc: 0]p: update_local_matrix_data: 116.021 [ms]
[OGL LOG][Proc: 0]p: update_non_local_matrix_data: 0.239 [ms]
[OGL LOG][Proc: 0]p_matrix: call_update: 16.198 [ms]
[OGL LOG][Proc: 0]p_rhs: call_update: 35.224 [ms]
[OGL LOG][Preconditioner.H:121] Generate preconditioner BJ MaxBlockSize 1
[OGL LOG][Proc: 0]p: init_precond: 0.773 [ms]
[OGL LOG][StoppingCriterion.H:372] Creating stopping criterion with minIter 159 frequency 4
[OGL LOG][Proc: 0]p: generate_solver: 0.002 [ms]
[OGL LOG][Proc: 0]p: solve: 713.297 [ms]
[OGL LOG][Proc: 0]p: copy_x_back: 9.856 [ms]
[OGL LOG][lduLduBase.H:339] 
Statistics:
	Time per iteration: 2308 [mu s]
	Time per residual norm calculation: 349.000000 [mu s]
	Time per iteration and DOF: 0.121978 [ns]
	Retrieve results bandwidth 1.920000 [GByte/s]
[OGL LOG][Proc: 0]p: solve_multi_gpu: 776.123 [ms]
BJhipGKOCG:  Solving for p, Initial residual = 0.04489990269345798, Final residual = 0.0004446954950648752, No Iterations 309
[INFO] SolveP: 916.3630000000001 [ms]
time step continuity errors : sum local = 0.003448292869162519, global = 0.0006957795201556505, cumulative = 0.003189371747397908
[INFO] postSolveP: 256.512 [ms]
smoothSolver:  Solving for nuTilda, Initial residual = 0.05168680647753635, Final residual = 0.004553304134602548, No Iterations 2
[INFO] TimeStep: 14116.912 [ms]
ExecutionTime = 317.99 s  ClockTime = 320 s

Time = 17

velocityDampingConstraint velocityDamping damped 0 (0%) of cells
[INFO] MatrixAssemblyU: 4414.029 [ms]
smoothSolver:  Solving for Ux, Initial residual = 0.01158226024125378, Final residual = 0.001005987680781205, No Iterations 13
smoothSolver:  Solving for Uy, Initial residual = 0.03876538386274215, Final residual = 0.003860692971282178, No Iterations 12
smoothSolver:  Solving for Uz, Initial residual = 0.04155771748447851, Final residual = 0.004045219157820448, No Iterations 12
[INFO] MomentumPredictor: 4164.19 [ms]
[INFO] MatrixAssemblyPI: 923.008 [ms]
[INFO] MatrixAssemblyPII: 461.885 [ms]
[OGL LOG][Proc: 0]: global_index_init: 0.013 [ms]
[OGL LOG][Proc: 0]p_local_coeffs: call_update: 0 [ms]
[OGL LOG][Proc: 0]p_non_local_coeffs: call_update: 0 [ms]
[OGL LOG][Proc: 0]p: update_local_matrix_data: 119.734 [ms]
[OGL LOG][Proc: 0]p: update_non_local_matrix_data: 0.273 [ms]
[OGL LOG][Proc: 0]p_matrix: call_update: 19.265 [ms]
[OGL LOG][Proc: 0]p_rhs: call_update: 22.201 [ms]
[OGL LOG][Preconditioner.H:121] Generate preconditioner BJ MaxBlockSize 1
[OGL LOG][Proc: 0]p: init_precond: 0.748 [ms]
[OGL LOG][StoppingCriterion.H:372] Creating stopping criterion with minIter 185 frequency 4
[OGL LOG][Proc: 0]p: generate_solver: 0.001 [ms]
[OGL LOG][Proc: 0]p: solve: 1371.049 [ms]
[OGL LOG][Proc: 0]p: copy_x_back: 10.733 [ms]
[OGL LOG][lduLduBase.H:339] 
Statistics:
	Time per iteration: 2086 [mu s]
	Time per residual norm calculation: 334.000000 [mu s]
	Time per iteration and DOF: 0.110245 [ns]
	Retrieve results bandwidth 1.763000 [GByte/s]
[OGL LOG][Proc: 0]p: solve_multi_gpu: 1424.805 [ms]
BJhipGKOCG:  Solving for p, Initial residual = 0.04423004442845386, Final residual = 0.000441047724494328, No Iterations 657
[INFO] SolveP: 1569.529 [ms]
time step continuity errors : sum local = 0.003456198504762127, global = -0.0001357540219997359, cumulative = 0.003053617725398172
[INFO] postSolveP: 257.512 [ms]
smoothSolver:  Solving for nuTilda, Initial residual = 0.02893339958786289, Final residual = 0.00251207572119877, No Iterations 3
[INFO] TimeStep: 14862.287 [ms]
ExecutionTime = 336.1 s  ClockTime = 338 s

Time = 18

velocityDampingConstraint velocityDamping damped 0 (0%) of cells
[INFO] MatrixAssemblyU: 4471.105 [ms]
smoothSolver:  Solving for Ux, Initial residual = 0.01120663526479787, Final residual = 0.0009638114938363637, No Iterations 13
smoothSolver:  Solving for Uy, Initial residual = 0.03882590739665487, Final residual = 0.00387882432520376, No Iterations 12
smoothSolver:  Solving for Uz, Initial residual = 0.04192266702671444, Final residual = 0.004064768699857551, No Iterations 12
[INFO] MomentumPredictor: 4158.53 [ms]
[INFO] MatrixAssemblyPI: 920.874 [ms]
[INFO] MatrixAssemblyPII: 540.037 [ms]
[OGL LOG][Proc: 0]: global_index_init: 0.128 [ms]
[OGL LOG][Proc: 0]p_local_coeffs: call_update: 0 [ms]
[OGL LOG][Proc: 0]p_non_local_coeffs: call_update: 0 [ms]
[OGL LOG][Proc: 0]p: update_local_matrix_data: 118.299 [ms]
[OGL LOG][Proc: 0]p: update_non_local_matrix_data: 0.124 [ms]
[OGL LOG][Proc: 0]p_matrix: call_update: 18.958 [ms]
[OGL LOG][Proc: 0]p_rhs: call_update: 32.431 [ms]
[OGL LOG][Preconditioner.H:121] Generate preconditioner BJ MaxBlockSize 1
[OGL LOG][Proc: 0]p: init_precond: 0.6930000000000001 [ms]
[OGL LOG][StoppingCriterion.H:372] Creating stopping criterion with minIter 394 frequency 6
[OGL LOG][Proc: 0]p: generate_solver: 0.001 [ms]
[OGL LOG][Proc: 0]p: solve: 864.8100000000001 [ms]
[OGL LOG][Proc: 0]p: copy_x_back: 8.497999999999999 [ms]
[OGL LOG][lduLduBase.H:339] 
Statistics:
	Time per iteration: 2178 [mu s]
	Time per residual norm calculation: 344.000000 [mu s]
	Time per iteration and DOF: 0.115108 [ns]
	Retrieve results bandwidth 2.227000 [GByte/s]
[OGL LOG][Proc: 0]p: solve_multi_gpu: 926.251 [ms]
BJhipGKOCG:  Solving for p, Initial residual = 0.04279103004651922, Final residual = 0.0001628243057379877, No Iterations 397
[INFO] SolveP: 1071.039 [ms]
time step continuity errors : sum local = 0.001324017150426514, global = -0.0002435443581389165, cumulative = 0.002810073367259256
[INFO] postSolveP: 261.152 [ms]
smoothSolver:  Solving for nuTilda, Initial residual = 0.04634910012436942, Final residual = 0.004301629994497849, No Iterations 2
[INFO] TimeStep: 14315.089 [ms]
ExecutionTime = 353.74 s  ClockTime = 356 s

Time = 19

velocityDampingConstraint velocityDamping damped 0 (0%) of cells
[INFO] MatrixAssemblyU: 4386.968 [ms]
smoothSolver:  Solving for Ux, Initial residual = 0.01084263266082668, Final residual = 0.0009330627216442874, No Iterations 13
smoothSolver:  Solving for Uy, Initial residual = 0.03908899020026112, Final residual = 0.00333581725723366, No Iterations 13
smoothSolver:  Solving for Uz, Initial residual = 0.04250653535054799, Final residual = 0.004093589530894949, No Iterations 12
[INFO] MomentumPredictor: 4255.258 [ms]
[INFO] MatrixAssemblyPI: 931.467 [ms]
[INFO] MatrixAssemblyPII: 466.937 [ms]
[OGL LOG][Proc: 0]: global_index_init: 0.044 [ms]
[OGL LOG][Proc: 0]p_local_coeffs: call_update: 0 [ms]
[OGL LOG][Proc: 0]p_non_local_coeffs: call_update: 0 [ms]
[OGL LOG][Proc: 0]p: update_local_matrix_data: 122.349 [ms]
[OGL LOG][Proc: 0]p: update_non_local_matrix_data: 0.137 [ms]
[OGL LOG][Proc: 0]p_matrix: call_update: 21.027 [ms]
[OGL LOG][Proc: 0]p_rhs: call_update: 31.174 [ms]
[OGL LOG][Preconditioner.H:121] Generate preconditioner BJ MaxBlockSize 1
[OGL LOG][Proc: 0]p: init_precond: 0.745 [ms]
[OGL LOG][StoppingCriterion.H:372] Creating stopping criterion with minIter 238 frequency 5
[OGL LOG][Proc: 0]p: generate_solver: 0.001 [ms]
[OGL LOG][Proc: 0]p: solve: 654.837 [ms]
[OGL LOG][Proc: 0]p: copy_x_back: 11.092 [ms]
[OGL LOG][lduLduBase.H:339] 
Statistics:
	Time per iteration: 2330 [mu s]
	Time per residual norm calculation: 333.000000 [mu s]
	Time per iteration and DOF: 0.123141 [ns]
	Retrieve results bandwidth 1.706000 [GByte/s]
[OGL LOG][Proc: 0]p: solve_multi_gpu: 719.623 [ms]
BJhipGKOCG:  Solving for p, Initial residual = 0.04329067198028103, Final residual = 0.0004266415480638615, No Iterations 281
[INFO] SolveP: 867.896 [ms]
time step continuity errors : sum local = 0.003470234999460134, global = -0.0004571017925510965, cumulative = 0.002352971574708159
[INFO] postSolveP: 253.939 [ms]
smoothSolver:  Solving for nuTilda, Initial residual = 0.02700574531937857, Final residual = 0.002362765508499753, No Iterations 3
[INFO] TimeStep: 14243.118 [ms]
ExecutionTime = 371.23 s  ClockTime = 373 s

Time = 20

velocityDampingConstraint velocityDamping damped 0 (0%) of cells
[INFO] MatrixAssemblyU: 4440.228 [ms]
smoothSolver:  Solving for Ux, Initial residual = 0.0106783413164235, Final residual = 0.0009141381480499124, No Iterations 13
smoothSolver:  Solving for Uy, Initial residual = 0.03943540282265404, Final residual = 0.003930312044760929, No Iterations 12
smoothSolver:  Solving for Uz, Initial residual = 0.04314694662291917, Final residual = 0.004131472574454214, No Iterations 12
[INFO] MomentumPredictor: 4166.527 [ms]
[INFO] MatrixAssemblyPI: 907.951 [ms]
[INFO] MatrixAssemblyPII: 554.912 [ms]
[OGL LOG][Proc: 0]: global_index_init: 0.027 [ms]
[OGL LOG][Proc: 0]p_local_coeffs: call_update: 0 [ms]
[OGL LOG][Proc: 0]p_non_local_coeffs: call_update: 0 [ms]
[OGL LOG][Proc: 0]p: update_local_matrix_data: 104.751 [ms]
[OGL LOG][Proc: 0]p: update_non_local_matrix_data: 0.301 [ms]
[OGL LOG][Proc: 0]p_matrix: call_update: 22.333 [ms]
[OGL LOG][Proc: 0]p_rhs: call_update: 38.56 [ms]
[OGL LOG][Preconditioner.H:121] Generate preconditioner BJ MaxBlockSize 1
[OGL LOG][Proc: 0]p: init_precond: 0.757 [ms]
[OGL LOG][StoppingCriterion.H:372] Creating stopping criterion with minIter 168 frequency 4
[OGL LOG][Proc: 0]p: generate_solver: 0.001 [ms]
[OGL LOG][Proc: 0]p: solve: 1505.231 [ms]
[OGL LOG][Proc: 0]p: copy_x_back: 10.161 [ms]
[OGL LOG][lduLduBase.H:339] 
Statistics:
	Time per iteration: 2076 [mu s]
	Time per residual norm calculation: 328.000000 [mu s]
	Time per iteration and DOF: 0.109717 [ns]
	Retrieve results bandwidth 1.862000 [GByte/s]
[OGL LOG][Proc: 0]p: solve_multi_gpu: 1577.875 [ms]
BJhipGKOCG:  Solving for p, Initial residual = 0.0434413243110717, Final residual = 0.0004344049118864463, No Iterations 725
[INFO] SolveP: 1707.979 [ms]
time step continuity errors : sum local = 0.003546672448391364, global = -0.0003117375189185286, cumulative = 0.002041234055789631
[INFO] postSolveP: 269.342 [ms]
smoothSolver:  Solving for nuTilda, Initial residual = 0.04181537954244648, Final residual = 0.004048092083067811, No Iterations 2
[INFO] TimeStep: 14959.443 [ms]
ExecutionTime = 389.47 s  ClockTime = 392 s

Time = 21

velocityDampingConstraint velocityDamping damped 0 (0%) of cells
[INFO] MatrixAssemblyU: 4398.414 [ms]
smoothSolver:  Solving for Ux, Initial residual = 0.01056674720572976, Final residual = 0.0009048445869659042, No Iterations 13
smoothSolver:  Solving for Uy, Initial residual = 0.0401262453511249, Final residual = 0.003969473115282333, No Iterations 12
smoothSolver:  Solving for Uz, Initial residual = 0.04362887975969369, Final residual = 0.004130870853562028, No Iterations 12
[INFO] MomentumPredictor: 4173.69 [ms]
[INFO] MatrixAssemblyPI: 943.3579999999999 [ms]
[INFO] MatrixAssemblyPII: 462.311 [ms]
[OGL LOG][Proc: 0]: global_index_init: 0.025 [ms]
[OGL LOG][Proc: 0]p_local_coeffs: call_update: 0 [ms]
[OGL LOG][Proc: 0]p_non_local_coeffs: call_update: 0 [ms]
[OGL LOG][Proc: 0]p: update_local_matrix_data: 117.464 [ms]
[OGL LOG][Proc: 0]p: update_non_local_matrix_data: 0.265 [ms]
[OGL LOG][Proc: 0]p_matrix: call_update: 22.512 [ms]
[OGL LOG][Proc: 0]p_rhs: call_update: 17.127 [ms]
[OGL LOG][Preconditioner.H:121] Generate preconditioner BJ MaxBlockSize 1
[OGL LOG][Proc: 0]p: init_precond: 0.739 [ms]
[OGL LOG][StoppingCriterion.H:372] Creating stopping criterion with minIter 435 frequency 6
[OGL LOG][Proc: 0]p: generate_solver: 0.002 [ms]
[OGL LOG][Proc: 0]p: solve: 931.355 [ms]
[OGL LOG][Proc: 0]p: copy_x_back: 9.923999999999999 [ms]
[OGL LOG][lduLduBase.H:339] 
Statistics:
	Time per iteration: 2121 [mu s]
	Time per residual norm calculation: 362.000000 [mu s]
	Time per iteration and DOF: 0.112095 [ns]
	Retrieve results bandwidth 1.907000 [GByte/s]
[OGL LOG][Proc: 0]p: solve_multi_gpu: 982.481 [ms]
BJhipGKOCG:  Solving for p, Initial residual = 0.0442052813476878, Final residual = 0.0001499405778620694, No Iterations 439
[INFO] SolveP: 1124.401 [ms]
time step continuity errors : sum local = 0.001219975939742238, global = 0.0002560062703611779, cumulative = 0.002297240326150808
[INFO] postSolveP: 260.121 [ms]
smoothSolver:  Solving for nuTilda, Initial residual = 0.025224696346064, Final residual = 0.002218741422556317, No Iterations 3
[INFO] TimeStep: 14420.314 [ms]
ExecutionTime = 407.13 s  ClockTime = 410 s

Time = 22

velocityDampingConstraint velocityDamping damped 0 (0%) of cells
[INFO] MatrixAssemblyU: 4403.372 [ms]
smoothSolver:  Solving for Ux, Initial residual = 0.01050724739521994, Final residual = 0.001045093355376485, No Iterations 12
smoothSolver:  Solving for Uy, Initial residual = 0.0406363057668157, Final residual = 0.003988007100169182, No Iterations 12
smoothSolver:  Solving for Uz, Initial residual = 0.04340047288722274, Final residual = 0.004085442624464083, No Iterations 12
[INFO] MomentumPredictor: 4068.912 [ms]
[INFO] MatrixAssemblyPI: 914.9589999999999 [ms]
[INFO] MatrixAssemblyPII: 520.069 [ms]
[OGL LOG][Proc: 0]: global_index_init: 0.03 [ms]
[OGL LOG][Proc: 0]p_local_coeffs: call_update: 0 [ms]
[OGL LOG][Proc: 0]p_non_local_coeffs: call_update: 0 [ms]
[OGL LOG][Proc: 0]p: update_local_matrix_data: 108.684 [ms]
[OGL LOG][Proc: 0]p: update_non_local_matrix_data: 0.305 [ms]
[OGL LOG][Proc: 0]p_matrix: call_update: 18.537 [ms]
[OGL LOG][Proc: 0]p_rhs: call_update: 44.743 [ms]
[OGL LOG][Preconditioner.H:121] Generate preconditioner BJ MaxBlockSize 1
[OGL LOG][Proc: 0]p: init_precond: 1.344 [ms]
[OGL LOG][StoppingCriterion.H:372] Creating stopping criterion with minIter 263 frequency 5
[OGL LOG][Proc: 0]p: generate_solver: 0.001 [ms]
[OGL LOG][Proc: 0]p: solve: 737.823 [ms]
[OGL LOG][Proc: 0]p: copy_x_back: 9.843 [ms]
[OGL LOG][lduLduBase.H:339] 
Statistics:
	Time per iteration: 2263 [mu s]
	Time per residual norm calculation: 302.000000 [mu s]
	Time per iteration and DOF: 0.119600 [ns]
	Retrieve results bandwidth 1.922000 [GByte/s]
[OGL LOG][Proc: 0]p: solve_multi_gpu: 813.059 [ms]
BJhipGKOCG:  Solving for p, Initial residual = 0.0441952652488781, Final residual = 0.0004405431805755289, No Iterations 326
[INFO] SolveP: 949.008 [ms]
time step continuity errors : sum local = 0.003614587755719119, global = 0.0005714694328311559, cumulative = 0.002868709758981965
[INFO] postSolveP: 249.248 [ms]
smoothSolver:  Solving for nuTilda, Initial residual = 0.03796279983592261, Final residual = 0.00201937962144318, No Iterations 3
[INFO] TimeStep: 14115.334 [ms]
ExecutionTime = 424.55 s  ClockTime = 427 s

Time = 23

velocityDampingConstraint velocityDamping damped 0 (0%) of cells
[INFO] MatrixAssemblyU: 4462.224 [ms]
smoothSolver:  Solving for Ux, Initial residual = 0.01038916947533009, Final residual = 0.001037059647439185, No Iterations 12
smoothSolver:  Solving for Uy, Initial residual = 0.04113330371516409, Final residual = 0.003982221536837899, No Iterations 12
smoothSolver:  Solving for Uz, Initial residual = 0.04298903895158399, Final residual = 0.004004688816715142, No Iterations 12
[INFO] MomentumPredictor: 4063.124 [ms]
[INFO] MatrixAssemblyPI: 922.244 [ms]
[INFO] MatrixAssemblyPII: 486.501 [ms]
[OGL LOG][Proc: 0]: global_index_init: 0.019 [ms]
[OGL LOG][Proc: 0]p_local_coeffs: call_update: 0 [ms]
[OGL LOG][Proc: 0]p_non_local_coeffs: call_update: 0 [ms]
[OGL LOG][Proc: 0]p: update_local_matrix_data: 116.841 [ms]
[OGL LOG][Proc: 0]p: update_non_local_matrix_data: 0.126 [ms]
[OGL LOG][Proc: 0]p_matrix: call_update: 19.659 [ms]
[OGL LOG][Proc: 0]p_rhs: call_update: 36.607 [ms]
[OGL LOG][Preconditioner.H:121] Generate preconditioner BJ MaxBlockSize 1
[OGL LOG][Proc: 0]p: init_precond: 0.803 [ms]
[OGL LOG][StoppingCriterion.H:372] Creating stopping criterion with minIter 195 frequency 4
[OGL LOG][Proc: 0]p: generate_solver: 0.001 [ms]
[OGL LOG][Proc: 0]p: solve: 1582.919 [ms]
[OGL LOG][Proc: 0]p: copy_x_back: 10.301 [ms]
[OGL LOG][lduLduBase.H:339] 
Statistics:
	Time per iteration: 2047 [mu s]
	Time per residual norm calculation: 310.000000 [mu s]
	Time per iteration and DOF: 0.108184 [ns]
	Retrieve results bandwidth 1.837000 [GByte/s]
[OGL LOG][Proc: 0]p: solve_multi_gpu: 1651.062 [ms]
BJhipGKOCG:  Solving for p, Initial residual = 0.04396053674965218, Final residual = 0.0004263100630704133, No Iterations 773
[INFO] SolveP: 1792.521 [ms]
time step continuity errors : sum local = 0.003548950184434095, global = -3.403655973352309e-05, cumulative = 0.002834673199248441
[INFO] postSolveP: 261.256 [ms]
smoothSolver:  Solving for nuTilda, Initial residual = 0.02340564379186226, Final residual = 0.002087620871900049, No Iterations 3
[INFO] TimeStep: 15049.501 [ms]
ExecutionTime = 442.84 s  ClockTime = 446 s

Time = 24

velocityDampingConstraint velocityDamping damped 0 (0%) of cells
[INFO] MatrixAssemblyU: 4402.618 [ms]
smoothSolver:  Solving for Ux, Initial residual = 0.01043064641362273, Final residual = 0.001032984294757542, No Iterations 12
smoothSolver:  Solving for Uy, Initial residual = 0.04201051941560909, Final residual = 0.004013909957376815, No Iterations 12
smoothSolver:  Solving for Uz, Initial residual = 0.04267959786538001, Final residual = 0.003919891481080401, No Iterations 12
[INFO] MomentumPredictor: 4078.624 [ms]
[INFO] MatrixAssemblyPI: 963.8630000000001 [ms]
[INFO] MatrixAssemblyPII: 488.279 [ms]
[OGL LOG][Proc: 0]: global_index_init: 0.172 [ms]
[OGL LOG][Proc: 0]p_local_coeffs: call_update: 0 [ms]
[OGL LOG][Proc: 0]p_non_local_coeffs: call_update: 0 [ms]
[OGL LOG][Proc: 0]p: update_local_matrix_data: 103.622 [ms]
[OGL LOG][Proc: 0]p: update_non_local_matrix_data: 0.339 [ms]
[OGL LOG][Proc: 0]p_matrix: call_update: 17.453 [ms]
[OGL LOG][Proc: 0]p_rhs: call_update: 45.359 [ms]
[OGL LOG][Preconditioner.H:121] Generate preconditioner BJ MaxBlockSize 1
[OGL LOG][Proc: 0]p: init_precond: 1.048 [ms]
[OGL LOG][StoppingCriterion.H:372] Creating stopping criterion with minIter 463 frequency 7
[OGL LOG][Proc: 0]p: generate_solver: 0.001 [ms]
[OGL LOG][Proc: 0]p: solve: 994.6660000000001 [ms]
[OGL LOG][Proc: 0]p: copy_x_back: 11.04 [ms]
[OGL LOG][lduLduBase.H:339] 
Statistics:
	Time per iteration: 2116 [mu s]
	Time per residual norm calculation: 355.000000 [mu s]
	Time per iteration and DOF: 0.111831 [ns]
	Retrieve results bandwidth 1.714000 [GByte/s]
[OGL LOG][Proc: 0]p: solve_multi_gpu: 1070.472 [ms]
BJhipGKOCG:  Solving for p, Initial residual = 0.04220114049012806, Final residual = 9.12427069643076e-05, No Iterations 470
[INFO] SolveP: 1198.672 [ms]
time step continuity errors : sum local = 0.0007965410502588858, global = -6.582224273918622e-05, cumulative = 0.002768850956509255
[INFO] postSolveP: 262.555 [ms]
smoothSolver:  Solving for nuTilda, Initial residual = 0.03445310323785056, Final residual = 0.001909621970833974, No Iterations 3
[INFO] TimeStep: 14386.119 [ms]
ExecutionTime = 460.56 s  ClockTime = 463 s

Time = 25

velocityDampingConstraint velocityDamping damped 0 (0%) of cells
[INFO] MatrixAssemblyU: 4382.573 [ms]
smoothSolver:  Solving for Ux, Initial residual = 0.01032076139284486, Final residual = 0.0008810683093810304, No Iterations 13
smoothSolver:  Solving for Uy, Initial residual = 0.04269139589257093, Final residual = 0.004110872523122111, No Iterations 12
smoothSolver:  Solving for Uz, Initial residual = 0.04225845123397758, Final residual = 0.003886932669370234, No Iterations 12
[INFO] MomentumPredictor: 4156.928 [ms]
[INFO] MatrixAssemblyPI: 927.985 [ms]
[INFO] MatrixAssemblyPII: 464.781 [ms]
[OGL LOG][Proc: 0]: global_index_init: 0.048 [ms]
[OGL LOG][Proc: 0]p_local_coeffs: call_update: 0 [ms]
[OGL LOG][Proc: 0]p_non_local_coeffs: call_update: 0 [ms]
[OGL LOG][Proc: 0]p: update_local_matrix_data: 117.661 [ms]
[OGL LOG][Proc: 0]p: update_non_local_matrix_data: 0.099 [ms]
[OGL LOG][Proc: 0]p_matrix: call_update: 17.444 [ms]
[OGL LOG][Proc: 0]p_rhs: call_update: 33.216 [ms]
[OGL LOG][Preconditioner.H:121] Generate preconditioner BJ MaxBlockSize 1
[OGL LOG][Proc: 0]p: init_precond: 0.797 [ms]
[OGL LOG][StoppingCriterion.H:372] Creating stopping criterion with minIter 282 frequency 6
[OGL LOG][Proc: 0]p: generate_solver: 0.001 [ms]
[OGL LOG][Proc: 0]p: solve: 727.804 [ms]
[OGL LOG][Proc: 0]p: copy_x_back: 9.869 [ms]
[OGL LOG][lduLduBase.H:339] 
Statistics:
	Time per iteration: 2281 [mu s]
	Time per residual norm calculation: 343.000000 [mu s]
	Time per iteration and DOF: 0.120551 [ns]
	Retrieve results bandwidth 1.917000 [GByte/s]
[OGL LOG][Proc: 0]p: solve_multi_gpu: 789.956 [ms]
BJhipGKOCG:  Solving for p, Initial residual = 0.04190459929300828, Final residual = 0.0004043624969314174, No Iterations 319
[INFO] SolveP: 935.0839999999999 [ms]
time step continuity errors : sum local = 0.003557488096450292, global = -0.0001352119958641362, cumulative = 0.002633638960645119
[INFO] postSolveP: 257.83 [ms]
smoothSolver:  Solving for nuTilda, Initial residual = 0.02153829613037372, Final residual = 0.001955981972801179, No Iterations 3
[INFO] TimeStep: 14194.846 [ms]
ExecutionTime = 478 s  ClockTime = 481 s

Time = 26

velocityDampingConstraint velocityDamping damped 0 (0%) of cells
[INFO] MatrixAssemblyU: 4391.912 [ms]
smoothSolver:  Solving for Ux, Initial residual = 0.01041069227979646, Final residual = 0.001033901426625168, No Iterations 12
smoothSolver:  Solving for Uy, Initial residual = 0.04364709147600619, Final residual = 0.004268223100881175, No Iterations 12
smoothSolver:  Solving for Uz, Initial residual = 0.0423803211743446, Final residual = 0.003936176667688846, No Iterations 12
[INFO] MomentumPredictor: 4069.364 [ms]
[INFO] MatrixAssemblyPI: 948.499 [ms]
[INFO] MatrixAssemblyPII: 525.849 [ms]
[OGL LOG][Proc: 0]: global_index_init: 0.011 [ms]
[OGL LOG][Proc: 0]p_local_coeffs: call_update: 0 [ms]
[OGL LOG][Proc: 0]p_non_local_coeffs: call_update: 0 [ms]
[OGL LOG][Proc: 0]p: update_local_matrix_data: 111.667 [ms]
[OGL LOG][Proc: 0]p: update_non_local_matrix_data: 0.25 [ms]
[OGL LOG][Proc: 0]p_matrix: call_update: 18.97 [ms]
[OGL LOG][Proc: 0]p_rhs: call_update: 44.037 [ms]
[OGL LOG][Preconditioner.H:121] Generate preconditioner BJ MaxBlockSize 1
[OGL LOG][Proc: 0]p: init_precond: 0.779 [ms]
[OGL LOG][StoppingCriterion.H:372] Creating stopping criterion with minIter 191 frequency 4
[OGL LOG][Proc: 0]p: generate_solver: 0.001 [ms]
[OGL LOG][Proc: 0]p: solve: 767.352 [ms]
[OGL LOG][Proc: 0]p: copy_x_back: 10.562 [ms]
[OGL LOG][lduLduBase.H:339] 
Statistics:
	Time per iteration: 2250 [mu s]
	Time per residual norm calculation: 338.000000 [mu s]
	Time per iteration and DOF: 0.118913 [ns]
	Retrieve results bandwidth 1.791000 [GByte/s]
[OGL LOG][Proc: 0]p: solve_multi_gpu: 842.458 [ms]
BJhipGKOCG:  Solving for p, Initial residual = 0.04176774415661626, Final residual = 0.00041570789618062, No Iterations 341
[INFO] SolveP: 979.099 [ms]
time step continuity errors : sum local = 0.003683984470721592, global = -8.47728647161257e-05, cumulative = 0.002548866095928993
[INFO] postSolveP: 256.601 [ms]
smoothSolver:  Solving for nuTilda, Initial residual = 0.03147771983285041, Final residual = 0.001803550050736354, No Iterations 3
[INFO] TimeStep: 14177.96 [ms]
ExecutionTime = 495.52 s  ClockTime = 498 s

Time = 27

velocityDampingConstraint velocityDamping damped 0 (0%) of cells
[INFO] MatrixAssemblyU: 4397.855 [ms]
smoothSolver:  Solving for Ux, Initial residual = 0.01041299930274678, Final residual = 0.001035624596898539, No Iterations 12
smoothSolver:  Solving for Uy, Initial residual = 0.04470362353557524, Final residual = 0.004431356797359531, No Iterations 12
smoothSolver:  Solving for Uz, Initial residual = 0.04262399894322431, Final residual = 0.004007487630931356, No Iterations 12
[INFO] MomentumPredictor: 4077.629 [ms]
[INFO] MatrixAssemblyPI: 926.544 [ms]
[INFO] MatrixAssemblyPII: 469.554 [ms]
[OGL LOG][Proc: 0]: global_index_init: 0.011 [ms]
[OGL LOG][Proc: 0]p_local_coeffs: call_update: 0 [ms]
[OGL LOG][Proc: 0]p_non_local_coeffs: call_update: 0 [ms]
[OGL LOG][Proc: 0]p: update_local_matrix_data: 118.431 [ms]
[OGL LOG][Proc: 0]p: update_non_local_matrix_data: 0.17 [ms]
[OGL LOG][Proc: 0]p_matrix: call_update: 22.483 [ms]
[OGL LOG][Proc: 0]p_rhs: call_update: 12.755 [ms]
[OGL LOG][Preconditioner.H:121] Generate preconditioner BJ MaxBlockSize 1
[OGL LOG][Proc: 0]p: init_precond: 0.779 [ms]
[OGL LOG][StoppingCriterion.H:372] Creating stopping criterion with minIter 204 frequency 4
[OGL LOG][Proc: 0]p: generate_solver: 0.001 [ms]
[OGL LOG][Proc: 0]p: solve: 776.963 [ms]
[OGL LOG][Proc: 0]p: copy_x_back: 10.528 [ms]
[OGL LOG][lduLduBase.H:339] 
Statistics:
	Time per iteration: 2252 [mu s]
	Time per residual norm calculation: 323.000000 [mu s]
	Time per iteration and DOF: 0.119019 [ns]
	Retrieve results bandwidth 1.797000 [GByte/s]
[OGL LOG][Proc: 0]p: solve_multi_gpu: 824.321 [ms]
BJhipGKOCG:  Solving for p, Initial residual = 0.04204127501245023, Final residual = 0.0004124202887641086, No Iterations 345
[INFO] SolveP: 966.956 [ms]
time step continuity errors : sum local = 0.003699783760846015, global = -3.148591703849149e-05, cumulative = 0.002517380178890502
[INFO] postSolveP: 261.414 [ms]
smoothSolver:  Solving for nuTilda, Initial residual = 0.01983940521805677, Final residual = 0.001830650199921603, No Iterations 3
[INFO] TimeStep: 14167.465 [ms]
ExecutionTime = 512.92 s  ClockTime = 516 s

Time = 28

velocityDampingConstraint velocityDamping damped 0 (0%) of cells
[INFO] MatrixAssemblyU: 4441.982 [ms]
smoothSolver:  Solving for Ux, Initial residual = 0.01055490736339866, Final residual = 0.001038871701736342, No Iterations 12
smoothSolver:  Solving for Uy, Initial residual = 0.04606171018814902, Final residual = 0.003931831421035086, No Iterations 13
smoothSolver:  Solving for Uz, Initial residual = 0.04358675027311215, Final residual = 0.004116700103545996, No Iterations 12
[INFO] MomentumPredictor: 4162.988 [ms]
[INFO] MatrixAssemblyPI: 922.963 [ms]
[INFO] MatrixAssemblyPII: 514.439 [ms]
[OGL LOG][Proc: 0]: global_index_init: 0.082 [ms]
[OGL LOG][Proc: 0]p_local_coeffs: call_update: 0 [ms]
[OGL LOG][Proc: 0]p_non_local_coeffs: call_update: 0 [ms]
[OGL LOG][Proc: 0]p: update_local_matrix_data: 103.357 [ms]
[OGL LOG][Proc: 0]p: update_non_local_matrix_data: 0.29 [ms]
[OGL LOG][Proc: 0]p_matrix: call_update: 19.462 [ms]
[OGL LOG][Proc: 0]p_rhs: call_update: 45.99 [ms]
[OGL LOG][Preconditioner.H:121] Generate preconditioner BJ MaxBlockSize 1
[OGL LOG][Proc: 0]p: init_precond: 0.788 [ms]
[OGL LOG][StoppingCriterion.H:372] Creating stopping criterion with minIter 207 frequency 4
[OGL LOG][Proc: 0]p: generate_solver: 0.002 [ms]
[OGL LOG][Proc: 0]p: solve: 728.9590000000001 [ms]
[OGL LOG][Proc: 0]p: copy_x_back: 10.055 [ms]
[OGL LOG][lduLduBase.H:339] 
Statistics:
	Time per iteration: 2242 [mu s]
	Time per residual norm calculation: 337.000000 [mu s]
	Time per iteration and DOF: 0.118490 [ns]
	Retrieve results bandwidth 1.882000 [GByte/s]
[OGL LOG][Proc: 0]p: solve_multi_gpu: 806.053 [ms]
BJhipGKOCG:  Solving for p, Initial residual = 0.04300579228179164, Final residual = 0.0004186079745583528, No Iterations 325
[INFO] SolveP: 934.532 [ms]
time step continuity errors : sum local = 0.003800066382787296, global = 7.501641125525118e-05, cumulative = 0.002592396590145753
[INFO] postSolveP: 279.33 [ms]
smoothSolver:  Solving for nuTilda, Initial residual = 0.02894909538607286, Final residual = 0.001696640378972854, No Iterations 3
[INFO] TimeStep: 14208.366 [ms]
ExecutionTime = 530.4299999999999 s  ClockTime = 534 s

Time = 29

velocityDampingConstraint velocityDamping damped 0 (0%) of cells
[INFO] MatrixAssemblyU: 4402.11 [ms]
smoothSolver:  Solving for Ux, Initial residual = 0.01059265205681923, Final residual = 0.001040276266511022, No Iterations 12
smoothSolver:  Solving for Uy, Initial residual = 0.04759854205342688, Final residual = 0.004068065703299494, No Iterations 13
smoothSolver:  Solving for Uz, Initial residual = 0.04497360184998377, Final residual = 0.004256189500721807, No Iterations 12
[INFO] MomentumPredictor: 4163.773 [ms]
[INFO] MatrixAssemblyPI: 945.289 [ms]
[INFO] MatrixAssemblyPII: 487.667 [ms]
[OGL LOG][Proc: 0]: global_index_init: 0.011 [ms]
[OGL LOG][Proc: 0]p_local_coeffs: call_update: 0 [ms]
[OGL LOG][Proc: 0]p_non_local_coeffs: call_update: 0 [ms]
[OGL LOG][Proc: 0]p: update_local_matrix_data: 120.781 [ms]
[OGL LOG][Proc: 0]p: update_non_local_matrix_data: 0.464 [ms]
[OGL LOG][Proc: 0]p_matrix: call_update: 19.813 [ms]
[OGL LOG][Proc: 0]p_rhs: call_update: 28.999 [ms]
[OGL LOG][Preconditioner.H:121] Generate preconditioner BJ MaxBlockSize 1
[OGL LOG][Proc: 0]p: init_precond: 0.758 [ms]
[OGL LOG][StoppingCriterion.H:372] Creating stopping criterion with minIter 195 frequency 4
[OGL LOG][Proc: 0]p: generate_solver: 0.001 [ms]
[OGL LOG][Proc: 0]p: solve: 730.013 [ms]
[OGL LOG][Proc: 0]p: copy_x_back: 10.036 [ms]
[OGL LOG][lduLduBase.H:339] 
Statistics:
	Time per iteration: 2274 [mu s]
	Time per residual norm calculation: 359.000000 [mu s]
	Time per iteration and DOF: 0.120181 [ns]
	Retrieve results bandwidth 1.885000 [GByte/s]
[OGL LOG][Proc: 0]p: solve_multi_gpu: 790.374 [ms]
BJhipGKOCG:  Solving for p, Initial residual = 0.04399368037887733, Final residual = 0.0004389682561298788, No Iterations 321
[INFO] SolveP: 936.803 [ms]
time step continuity errors : sum local = 0.004025756635248256, global = 0.0002353877836764589, cumulative = 0.002827784373822212
[INFO] postSolveP: 251.259 [ms]
smoothSolver:  Solving for nuTilda, Initial residual = 0.01835181189325335, Final residual = 0.001707352653009528, No Iterations 3
[INFO] TimeStep: 14197.36 [ms]
ExecutionTime = 547.88 s  ClockTime = 551 s

Time = 30

velocityDampingConstraint velocityDamping damped 0 (0%) of cells
[INFO] MatrixAssemblyU: 4390.15 [ms]
smoothSolver:  Solving for Ux, Initial residual = 0.01078909620600938, Final residual = 0.001045434075868624, No Iterations 12
smoothSolver:  Solving for Uy, Initial residual = 0.04967017092829969, Final residual = 0.004952597921212746, No Iterations 12
smoothSolver:  Solving for Uz, Initial residual = 0.04657004963994493, Final residual = 0.004389110744264826, No Iterations 12
[INFO] MomentumPredictor: 4099.337 [ms]
[INFO] MatrixAssemblyPI: 972.102 [ms]
[INFO] MatrixAssemblyPII: 485.095 [ms]
[OGL LOG][Proc: 0]: global_index_init: 0.185 [ms]
[OGL LOG][Proc: 0]p_local_coeffs: call_update: 0 [ms]
[OGL LOG][Proc: 0]p_non_local_coeffs: call_update: 0 [ms]
[OGL LOG][Proc: 0]p: update_local_matrix_data: 116.967 [ms]
[OGL LOG][Proc: 0]p: update_non_local_matrix_data: 0.179 [ms]
[OGL LOG][Proc: 0]p_matrix: call_update: 19.449 [ms]
[OGL LOG][Proc: 0]p_rhs: call_update: 40.572 [ms]
[OGL LOG][Preconditioner.H:121] Generate preconditioner BJ MaxBlockSize 1
[OGL LOG][Proc: 0]p: init_precond: 0.786 [ms]
[OGL LOG][StoppingCriterion.H:372] Creating stopping criterion with minIter 192 frequency 4
[OGL LOG][Proc: 0]p: generate_solver: 0.001 [ms]
[OGL LOG][Proc: 0]p: solve: 602.914 [ms]
[OGL LOG][Proc: 0]p: copy_x_back: 9.943 [ms]
[OGL LOG][lduLduBase.H:339] 
Statistics:
	Time per iteration: 2345 [mu s]
	Time per residual norm calculation: 324.000000 [mu s]
	Time per iteration and DOF: 0.123934 [ns]
	Retrieve results bandwidth 1.903000 [GByte/s]
[...]
	Retrieve results bandwidth 1.672000 [GByte/s]
[OGL LOG][Proc: 0]p: solve_multi_gpu: 628.634 [ms]
BJhipGKOCG:  Solving for p, Initial residual = 0.05731373671478943, Final residual = 0.0005680314666775605, No Iterations 232
[INFO] SolveP: 771.73 [ms]
time step continuity errors : sum local = 0.005746809556659611, global = -0.0001831832810213483, cumulative = 0.008684129336003774
[INFO] postSolveP: 266.994 [ms]
smoothSolver:  Solving for nuTilda, Initial residual = 0.01295564668609325, Final residual = 0.001159132275599312, No Iterations 3
[INFO] TimeStep: 14050.958 [ms]
ExecutionTime = 756.0700000000001 s  ClockTime = 760 s

Time = 42

velocityDampingConstraint velocityDamping damped 0 (0%) of cells
[INFO] MatrixAssemblyU: 4410.983 [ms]
smoothSolver:  Solving for Ux, Initial residual = 0.01212023233475921, Final residual = 0.001198671789493475, No Iterations 12
smoothSolver:  Solving for Uy, Initial residual = 0.07121482766945722, Final residual = 0.006608630726501394, No Iterations 13
smoothSolver:  Solving for Uz, Initial residual = 0.07111419559860883, Final residual = 0.007085179134205413, No Iterations 12
[INFO] MomentumPredictor: 4184.776 [ms]
[INFO] MatrixAssemblyPI: 927.73 [ms]
[INFO] MatrixAssemblyPII: 537.261 [ms]
[OGL LOG][Proc: 0]: global_index_init: 0.019 [ms]
[OGL LOG][Proc: 0]p_local_coeffs: call_update: 0 [ms]
[OGL LOG][Proc: 0]p_non_local_coeffs: call_update: 0 [ms]
[OGL LOG][Proc: 0]p: update_local_matrix_data: 120.033 [ms]
[OGL LOG][Proc: 0]p: update_non_local_matrix_data: 0.207 [ms]
[OGL LOG][Proc: 0]p_matrix: call_update: 21.134 [ms]
[OGL LOG][Proc: 0]p_rhs: call_update: 22.403 [ms]
[OGL LOG][Preconditioner.H:121] Generate preconditioner BJ MaxBlockSize 1
[OGL LOG][Proc: 0]p: init_precond: 0.705 [ms]
[OGL LOG][StoppingCriterion.H:372] Creating stopping criterion with minIter 139 frequency 3
[OGL LOG][Proc: 0]p: generate_solver: 0.001 [ms]
[OGL LOG][Proc: 0]p: solve: 556.462 [ms]
[OGL LOG][Proc: 0]p: copy_x_back: 11.513 [ms]
[OGL LOG][lduLduBase.H:339] 
Statistics:
	Time per iteration: 2429 [mu s]
	Time per residual norm calculation: 340.000000 [mu s]
	Time per iteration and DOF: 0.128373 [ns]
	Retrieve results bandwidth 1.643000 [GByte/s]
[OGL LOG][Proc: 0]p: solve_multi_gpu: 612.962 [ms]
BJhipGKOCG:  Solving for p, Initial residual = 0.05684571006544127, Final residual = 0.0005518917869334475, No Iterations 229
[INFO] SolveP: 757.534 [ms]
time step continuity errors : sum local = 0.005581786751303195, global = -0.0004193051879070057, cumulative = 0.008264824148096768
[INFO] postSolveP: 260.747 [ms]
smoothSolver:  Solving for nuTilda, Initial residual = 0.01845785914958584, Final residual = 0.00111264227930836, No Iterations 3
[INFO] TimeStep: 14054.074 [ms]
ExecutionTime = 773.45 s  ClockTime = 778 s

Time = 43

velocityDampingConstraint velocityDamping damped 0 (0%) of cells
[INFO] MatrixAssemblyU: 4412.539 [ms]
smoothSolver:  Solving for Ux, Initial residual = 0.01201416181970191, Final residual = 0.001025630172850151, No Iterations 13
smoothSolver:  Solving for Uy, Initial residual = 0.07192326093195288, Final residual = 0.006826191112321091, No Iterations 13
smoothSolver:  Solving for Uz, Initial residual = 0.07100252412188925, Final residual = 0.006138659601204874, No Iterations 13
[INFO] MomentumPredictor: 4328.081 [ms]
[INFO] MatrixAssemblyPI: 944.682 [ms]
[INFO] MatrixAssemblyPII: 467.486 [ms]
[OGL LOG][Proc: 0]: global_index_init: 0.029 [ms]
[OGL LOG][Proc: 0]p_local_coeffs: call_update: 0 [ms]
[OGL LOG][Proc: 0]p_non_local_coeffs: call_update: 0 [ms]
[OGL LOG][Proc: 0]p: update_local_matrix_data: 101.525 [ms]
[OGL LOG][Proc: 0]p: update_non_local_matrix_data: 0.187 [ms]
[OGL LOG][Proc: 0]p_matrix: call_update: 17.495 [ms]
[OGL LOG][Proc: 0]p_rhs: call_update: 56.267 [ms]
[OGL LOG][Preconditioner.H:121] Generate preconditioner BJ MaxBlockSize 1
[OGL LOG][Proc: 0]p: init_precond: 0.747 [ms]
[OGL LOG][StoppingCriterion.H:372] Creating stopping criterion with minIter 137 frequency 3
[OGL LOG][Proc: 0]p: generate_solver: 0.001 [ms]
[OGL LOG][Proc: 0]p: solve: 567.847 [ms]
[OGL LOG][Proc: 0]p: copy_x_back: 11.341 [ms]
[OGL LOG][lduLduBase.H:339] 
Statistics:
	Time per iteration: 2416 [mu s]
	Time per residual norm calculation: 343.000000 [mu s]
	Time per iteration and DOF: 0.127686 [ns]
	Retrieve results bandwidth 1.668000 [GByte/s]
[OGL LOG][Proc: 0]p: solve_multi_gpu: 654.446 [ms]
BJhipGKOCG:  Solving for p, Initial residual = 0.05624051087323081, Final residual = 0.0005607340882265401, No Iterations 235
[INFO] SolveP: 781.456 [ms]
time step continuity errors : sum local = 0.005653823857512451, global = -0.0006813848953007651, cumulative = 0.007583439252796003
[INFO] postSolveP: 262.763 [ms]
smoothSolver:  Solving for nuTilda, Initial residual = 0.01236500960002358, Final residual = 0.00110278464286037, No Iterations 3
[INFO] TimeStep: 14277.635 [ms]
ExecutionTime = 790.99 s  ClockTime = 795 s

Time = 44

velocityDampingConstraint velocityDamping damped 0 (0%) of cells
[INFO] MatrixAssemblyU: 4432.91 [ms]
smoothSolver:  Solving for Ux, Initial residual = 0.01202121147692845, Final residual = 0.001034046269889563, No Iterations 13
smoothSolver:  Solving for Uy, Initial residual = 0.07242923546157859, Final residual = 0.007042748250063175, No Iterations 13
smoothSolver:  Solving for Uz, Initial residual = 0.07022555171330276, Final residual = 0.006197656516754796, No Iterations 13
[INFO] MomentumPredictor: 4364.219 [ms]
[INFO] MatrixAssemblyPI: 939.636 [ms]
[INFO] MatrixAssemblyPII: 516.16 [ms]
[OGL LOG][Proc: 0]: global_index_init: 0.08400000000000001 [ms]
[OGL LOG][Proc: 0]p_local_coeffs: call_update: 0 [ms]
[OGL LOG][Proc: 0]p_non_local_coeffs: call_update: 0 [ms]
[OGL LOG][Proc: 0]p: update_local_matrix_data: 121.028 [ms]
[OGL LOG][Proc: 0]p: update_non_local_matrix_data: 0.271 [ms]
[OGL LOG][Proc: 0]p_matrix: call_update: 17.652 [ms]
[OGL LOG][Proc: 0]p_rhs: call_update: 27.471 [ms]
[OGL LOG][Preconditioner.H:121] Generate preconditioner BJ MaxBlockSize 1
[OGL LOG][Proc: 0]p: init_precond: 0.756 [ms]
[OGL LOG][StoppingCriterion.H:372] Creating stopping criterion with minIter 141 frequency 3
[OGL LOG][Proc: 0]p: generate_solver: 0.001 [ms]
[OGL LOG][Proc: 0]p: solve: 626.0410000000001 [ms]
[OGL LOG][Proc: 0]p: copy_x_back: 10.171 [ms]
[OGL LOG][lduLduBase.H:339] 
Statistics:
	Time per iteration: 2362 [mu s]
	Time per residual norm calculation: 337.000000 [mu s]
	Time per iteration and DOF: 0.124832 [ns]
	Retrieve results bandwidth 1.860000 [GByte/s]
[OGL LOG][Proc: 0]p: solve_multi_gpu: 682.8480000000001 [ms]
BJhipGKOCG:  Solving for p, Initial residual = 0.05552569823332461, Final residual = 0.0005531906838975098, No Iterations 265
[INFO] SolveP: 829.256 [ms]
time step continuity errors : sum local = 0.005537802858517385, global = -0.000944991404199739, cumulative = 0.006638447848596264
[INFO] postSolveP: 257.9 [ms]
smoothSolver:  Solving for nuTilda, Initial residual = 0.01751471746213571, Final residual = 0.0010599583776414, No Iterations 3
[INFO] TimeStep: 14319.589 [ms]
ExecutionTime = 808.65 s  ClockTime = 813 s

Time = 45

velocityDampingConstraint velocityDamping damped 0 (0%) of cells
[INFO] MatrixAssemblyU: 4391.388 [ms]
smoothSolver:  Solving for Ux, Initial residual = 0.01187703519340717, Final residual = 0.001043393079302032, No Iterations 13
smoothSolver:  Solving for Uy, Initial residual = 0.07251880641638535, Final residual = 0.007178377783418378, No Iterations 13
smoothSolver:  Solving for Uz, Initial residual = 0.06929790406740323, Final residual = 0.006248785625225732, No Iterations 13
[INFO] MomentumPredictor: 4333.801 [ms]
[INFO] MatrixAssemblyPI: 935.146 [ms]
[INFO] MatrixAssemblyPII: 465.693 [ms]
[OGL LOG][Proc: 0]: global_index_init: 0.013 [ms]
[OGL LOG][Proc: 0]p_local_coeffs: call_update: 0 [ms]
[OGL LOG][Proc: 0]p_non_local_coeffs: call_update: 0 [ms]
[OGL LOG][Proc: 0]p: update_local_matrix_data: 102.677 [ms]
[OGL LOG][Proc: 0]p: update_non_local_matrix_data: 0.331 [ms]
[OGL LOG][Proc: 0]p_matrix: call_update: 20.911 [ms]
[OGL LOG][Proc: 0]p_rhs: call_update: 31.846 [ms]
[OGL LOG][Preconditioner.H:121] Generate preconditioner BJ MaxBlockSize 1
[OGL LOG][Proc: 0]p: init_precond: 2.302 [ms]
[OGL LOG][StoppingCriterion.H:372] Creating stopping criterion with minIter 159 frequency 3
[OGL LOG][Proc: 0]p: generate_solver: 0.001 [ms]
[OGL LOG][Proc: 0]p: solve: 1248.947 [ms]
[OGL LOG][Proc: 0]p: copy_x_back: 10.367 [ms]
[OGL LOG][lduLduBase.H:339] 
Statistics:
	Time per iteration: 2131 [mu s]
	Time per residual norm calculation: 346.000000 [mu s]
	Time per iteration and DOF: 0.112624 [ns]
	Retrieve results bandwidth 1.825000 [GByte/s]
[OGL LOG][Proc: 0]p: solve_multi_gpu: 1315.35 [ms]
BJhipGKOCG:  Solving for p, Initial residual = 0.05505061138807461, Final residual = 0.0005374620353808206, No Iterations 586
[INFO] SolveP: 1442.808 [ms]
time step continuity errors : sum local = 0.005317003638888554, global = -5.396611259663269e-05, cumulative = 0.006584481735999632
[INFO] postSolveP: 279.384 [ms]
smoothSolver:  Solving for nuTilda, Initial residual = 0.01180802413213519, Final residual = 0.001049357740729333, No Iterations 3
[INFO] TimeStep: 14896.561 [ms]
ExecutionTime = 826.79 s  ClockTime = 831 s

Time = 46

velocityDampingConstraint velocityDamping damped 0 (0%) of cells
[INFO] MatrixAssemblyU: 4382.396 [ms]
smoothSolver:  Solving for Ux, Initial residual = 0.01194308183102481, Final residual = 0.001048588533398217, No Iterations 13
smoothSolver:  Solving for Uy, Initial residual = 0.07270883926280547, Final residual = 0.007230510087630111, No Iterations 13
smoothSolver:  Solving for Uz, Initial residual = 0.06839132046087354, Final residual = 0.006302490141948835, No Iterations 13
[INFO] MomentumPredictor: 4360.316 [ms]
[INFO] MatrixAssemblyPI: 938.763 [ms]
[INFO] MatrixAssemblyPII: 530.216 [ms]
[OGL LOG][Proc: 0]: global_index_init: 0.099 [ms]
[OGL LOG][Proc: 0]p_local_coeffs: call_update: 0 [ms]
[OGL LOG][Proc: 0]p_non_local_coeffs: call_update: 0 [ms]
[OGL LOG][Proc: 0]p: update_local_matrix_data: 118.795 [ms]
[OGL LOG][Proc: 0]p: update_non_local_matrix_data: 0.469 [ms]
[OGL LOG][Proc: 0]p_matrix: call_update: 22.031 [ms]
[OGL LOG][Proc: 0]p_rhs: call_update: 33.91 [ms]
[OGL LOG][Preconditioner.H:121] Generate preconditioner BJ MaxBlockSize 1
[OGL LOG][Proc: 0]p: init_precond: 0.748 [ms]
[OGL LOG][StoppingCriterion.H:372] Creating stopping criterion with minIter 351 frequency 6
[OGL LOG][Proc: 0]p: generate_solver: 0.001 [ms]
[OGL LOG][Proc: 0]p: solve: 777.818 [ms]
[OGL LOG][Proc: 0]p: copy_x_back: 11.282 [ms]
[OGL LOG][lduLduBase.H:339] 
Statistics:
	Time per iteration: 2191 [mu s]
	Time per residual norm calculation: 343.000000 [mu s]
	Time per iteration and DOF: 0.115795 [ns]
	Retrieve results bandwidth 1.677000 [GByte/s]
[OGL LOG][Proc: 0]p: solve_multi_gpu: 846.563 [ms]
BJhipGKOCG:  Solving for p, Initial residual = 0.05630047092279215, Final residual = 0.0003387319343099544, No Iterations 355
[INFO] SolveP: 989.474 [ms]
time step continuity errors : sum local = 0.003208779729935068, global = 0.0005582895525693039, cumulative = 0.007142771288568935
[INFO] postSolveP: 260.442 [ms]
smoothSolver:  Solving for nuTilda, Initial residual = 0.01663536299826943, Final residual = 0.001011957452811194, No Iterations 3
[INFO] TimeStep: 14479.729 [ms]
ExecutionTime = 844.58 s  ClockTime = 849 s

Time = 47

velocityDampingConstraint velocityDamping damped 0 (0%) of cells
[INFO] MatrixAssemblyU: 4473.195 [ms]
smoothSolver:  Solving for Ux, Initial residual = 0.01162740285226003, Final residual = 0.00105174312788664, No Iterations 13
smoothSolver:  Solving for Uy, Initial residual = 0.07216512258911775, Final residual = 0.00619537941192029, No Iterations 14
smoothSolver:  Solving for Uz, Initial residual = 0.06668547253648147, Final residual = 0.006321016023692458, No Iterations 13
[INFO] MomentumPredictor: 4418.962 [ms]
[INFO] MatrixAssemblyPI: 936.995 [ms]
[INFO] MatrixAssemblyPII: 469.283 [ms]
[OGL LOG][Proc: 0]: global_index_init: 0.049 [ms]
[OGL LOG][Proc: 0]p_local_coeffs: call_update: 0 [ms]
[OGL LOG][Proc: 0]p_non_local_coeffs: call_update: 0 [ms]
[OGL LOG][Proc: 0]p: update_local_matrix_data: 103.843 [ms]
[OGL LOG][Proc: 0]p: update_non_local_matrix_data: 0.259 [ms]
[OGL LOG][Proc: 0]p_matrix: call_update: 19.503 [ms]
[OGL LOG][Proc: 0]p_rhs: call_update: 40.564 [ms]
[OGL LOG][Preconditioner.H:121] Generate preconditioner BJ MaxBlockSize 1
[OGL LOG][Proc: 0]p: init_precond: 0.67 [ms]
[OGL LOG][StoppingCriterion.H:372] Creating stopping criterion with minIter 213 frequency 4
[OGL LOG][Proc: 0]p: generate_solver: 0 [ms]
[OGL LOG][Proc: 0]p: solve: 719.148 [ms]
[OGL LOG][Proc: 0]p: copy_x_back: 10.615 [ms]
[OGL LOG][lduLduBase.H:339] 
Statistics:
	Time per iteration: 2240 [mu s]
	Time per residual norm calculation: 300.000000 [mu s]
	Time per iteration and DOF: 0.118384 [ns]
	Retrieve results bandwidth 1.782000 [GByte/s]
[OGL LOG][Proc: 0]p: solve_multi_gpu: 791.263 [ms]
BJhipGKOCG:  Solving for p, Initial residual = 0.05518032834665559, Final residual = 0.0005485749419910501, No Iterations 321
[INFO] SolveP: 920.111 [ms]
time step continuity errors : sum local = 0.005187876880373431, global = 0.0008953018355507819, cumulative = 0.008038073124119718
[INFO] postSolveP: 267.777 [ms]
smoothSolver:  Solving for nuTilda, Initial residual = 0.01129273645981256, Final residual = 0.0010023123346415, No Iterations 3
[INFO] TimeStep: 14511.575 [ms]
ExecutionTime = 862.36 s  ClockTime = 867 s

Time = 48

velocityDampingConstraint velocityDamping damped 0 (0%) of cells
[INFO] MatrixAssemblyU: 4407.433 [ms]
smoothSolver:  Solving for Ux, Initial residual = 0.01156527226138298, Final residual = 0.001058308060575396, No Iterations 13
smoothSolver:  Solving for Uy, Initial residual = 0.07156480166681221, Final residual = 0.006158004872402437, No Iterations 14
smoothSolver:  Solving for Uz, Initial residual = 0.06541456703236873, Final residual = 0.006311791090746618, No Iterations 13
[INFO] MomentumPredictor: 4453.382 [ms]
[INFO] MatrixAssemblyPI: 938.015 [ms]
[INFO] MatrixAssemblyPII: 521.755 [ms]
[OGL LOG][Proc: 0]: global_index_init: 0.315 [ms]
[OGL LOG][Proc: 0]p_local_coeffs: call_update: 0 [ms]
[OGL LOG][Proc: 0]p_non_local_coeffs: call_update: 0 [ms]
[OGL LOG][Proc: 0]p: update_local_matrix_data: 111.748 [ms]
[OGL LOG][Proc: 0]p: update_non_local_matrix_data: 0.255 [ms]
[OGL LOG][Proc: 0]p_matrix: call_update: 22.982 [ms]
[OGL LOG][Proc: 0]p_rhs: call_update: 37.266 [ms]
[OGL LOG][Preconditioner.H:121] Generate preconditioner BJ MaxBlockSize 1
[OGL LOG][Proc: 0]p: init_precond: 0.744 [ms]
[OGL LOG][StoppingCriterion.H:372] Creating stopping criterion with minIter 192 frequency 4
[OGL LOG][Proc: 0]p: generate_solver: 0.001 [ms]
[OGL LOG][Proc: 0]p: solve: 1297.387 [ms]
[OGL LOG][Proc: 0]p: copy_x_back: 11.028 [ms]
[OGL LOG][lduLduBase.H:339] 
Statistics:
	Time per iteration: 2102 [mu s]
	Time per residual norm calculation: 317.000000 [mu s]
	Time per iteration and DOF: 0.111091 [ns]
	Retrieve results bandwidth 1.716000 [GByte/s]
[OGL LOG][Proc: 0]p: solve_multi_gpu: 1370.178 [ms]
BJhipGKOCG:  Solving for p, Initial residual = 0.05398209798387799, Final residual = 0.0005330714089939392, No Iterations 617
[INFO] SolveP: 1507.652 [ms]
time step continuity errors : sum local = 0.005040052968403481, global = -7.267005106996622e-05, cumulative = 0.007965403073049751
[INFO] postSolveP: 257.909 [ms]
smoothSolver:  Solving for nuTilda, Initial residual = 0.01585242079312706, Final residual = 0.0009705612280025278, No Iterations 3
[INFO] TimeStep: 15087.11 [ms]
ExecutionTime = 880.76 s  ClockTime = 886 s

Time = 49

velocityDampingConstraint velocityDamping damped 0 (0%) of cells
[INFO] MatrixAssemblyU: 4403.81 [ms]
smoothSolver:  Solving for Ux, Initial residual = 0.01136442374285878, Final residual = 0.001062014825708709, No Iterations 13
smoothSolver:  Solving for Uy, Initial residual = 0.07109521481168332, Final residual = 0.006124475996509223, No Iterations 14
smoothSolver:  Solving for Uz, Initial residual = 0.06470405077604012, Final residual = 0.006295034962647685, No Iterations 13
[INFO] MomentumPredictor: 4422.992 [ms]
[INFO] MatrixAssemblyPI: 959.216 [ms]
[INFO] MatrixAssemblyPII: 479.332 [ms]
[OGL LOG][Proc: 0]: global_index_init: 0.011 [ms]
[OGL LOG][Proc: 0]p_local_coeffs: call_update: 0 [ms]
[OGL LOG][Proc: 0]p_non_local_coeffs: call_update: 0 [ms]
[OGL LOG][Proc: 0]p: update_local_matrix_data: 118.694 [ms]
[OGL LOG][Proc: 0]p: update_non_local_matrix_data: 0.308 [ms]
[OGL LOG][Proc: 0]p_matrix: call_update: 17.764 [ms]
[OGL LOG][Proc: 0]p_rhs: call_update: 32.108 [ms]
[OGL LOG][Preconditioner.H:121] Generate preconditioner BJ MaxBlockSize 1
[OGL LOG][Proc: 0]p: init_precond: 0.663 [ms]
[OGL LOG][StoppingCriterion.H:372] Creating stopping criterion with minIter 370 frequency 6
[OGL LOG][Proc: 0]p: generate_solver: 0.001 [ms]
[OGL LOG][Proc: 0]p: solve: 810.878 [ms]
[OGL LOG][Proc: 0]p: copy_x_back: 10.81 [ms]
[OGL LOG][lduLduBase.H:339] 
Statistics:
	Time per iteration: 2173 [mu s]
	Time per residual norm calculation: 356.000000 [mu s]
	Time per iteration and DOF: 0.114843 [ns]
	Retrieve results bandwidth 1.750000 [GByte/s]
[OGL LOG][Proc: 0]p: solve_multi_gpu: 873.009 [ms]
BJhipGKOCG:  Solving for p, Initial residual = 0.05172839728838689, Final residual = 0.0003638785945469077, No Iterations 373
[INFO] SolveP: 1016.611 [ms]
time step continuity errors : sum local = 0.003547824503035153, global = -0.0004643293376057681, cumulative = 0.007501073735443983
[INFO] postSolveP: 262.133 [ms]
smoothSolver:  Solving for nuTilda, Initial residual = 0.01085460081441724, Final residual = 0.0009641239448671538, No Iterations 3
[INFO] TimeStep: 14573.573 [ms]
ExecutionTime = 898.5700000000001 s  ClockTime = 904 s

Time = 50

velocityDampingConstraint velocityDamping damped 0 (0%) of cells
[INFO] MatrixAssemblyU: 4434.723 [ms]
smoothSolver:  Solving for Ux, Initial residual = 0.01140905882799293, Final residual = 0.001065235709118467, No Iterations 13
smoothSolver:  Solving for Uy, Initial residual = 0.0698246047161931, Final residual = 0.006046310913356456, No Iterations 14
smoothSolver:  Solving for Uz, Initial residual = 0.06390866212268824, Final residual = 0.006281031215158365, No Iterations 13
[INFO] MomentumPredictor: 4450.716 [ms]
[INFO] MatrixAssemblyPI: 943.615 [ms]
[INFO] MatrixAssemblyPII: 517.633 [ms]
[OGL LOG][Proc: 0]: global_index_init: 0.115 [ms]
[OGL LOG][Proc: 0]p_local_coeffs: call_update: 0 [ms]
[OGL LOG][Proc: 0]p_non_local_coeffs: call_update: 0 [ms]
[OGL LOG][Proc: 0]p: update_local_matrix_data: 118.86 [ms]
[OGL LOG][Proc: 0]p: update_non_local_matrix_data: 0.502 [ms]
[OGL LOG][Proc: 0]p_matrix: call_update: 21.478 [ms]
[OGL LOG][Proc: 0]p_rhs: call_update: 31.842 [ms]
[OGL LOG][Preconditioner.H:121] Generate preconditioner BJ MaxBlockSize 1
[OGL LOG][Proc: 0]p: init_precond: 0.722 [ms]
[OGL LOG][StoppingCriterion.H:372] Creating stopping criterion with minIter 223 frequency 4
[OGL LOG][Proc: 0]p: generate_solver: 0.001 [ms]
[OGL LOG][Proc: 0]p: solve: 1316.481 [ms]
[OGL LOG][Proc: 0]p: copy_x_back: 10.16 [ms]
[OGL LOG][lduLduBase.H:339] 
Statistics:
	Time per iteration: 2092 [mu s]
	Time per residual norm calculation: 351.000000 [mu s]
	Time per iteration and DOF: 0.110563 [ns]
	Retrieve results bandwidth 1.862000 [GByte/s]
[OGL LOG][Proc: 0]p: solve_multi_gpu: 1381.466 [ms]
BJhipGKOCG:  Solving for p, Initial residual = 0.05183011079654305, Final residual = 0.000506818850623697, No Iterations 629
[INFO] SolveP: 1525.473 [ms]
time step continuity errors : sum local = 0.004877591725524196, global = -1.523332748197557e-05, cumulative = 0.007485840407962008
[INFO] postSolveP: 253.466 [ms]
smoothSolver:  Solving for nuTilda, Initial residual = 0.01517145820894475, Final residual = 0.0009387272833805643, No Iterations 3
[INFO] TimeStep: 15158.083 [ms]
ExecutionTime = 917.03 s  ClockTime = 922 s

End

Finalising parallel run
