/*---------------------------------------------------------------------------*\
| =========                 |                                                 |
| \\      /  F ield         | OpenFOAM: The Open Source CFD Toolbox           |
|  \\    /   O peration     | Version:  2306                                  |
|   \\  /    A nd           | Website:  www.openfoam.com                      |
|    \\/     M anipulation  |                                                 |
\*---------------------------------------------------------------------------*/
Build  : a6e826bd55-20230630 OPENFOAM=2306 version=v2306
Arch   : "LSB;label=32;scalar=64"
Exec   : icoFoam -parallel -case /tmp/lidDrivenCavity/workspace/1f924d1684c415e5852cda3cd42dd866/case
Date   : Dec 21 2023
Time   : 16:35:41
Host   : nla-gpu2.ianm.kit.edu
PID    : 408156
I/O    : uncollated
Case   : /tmp/lidDrivenCavity/workspace/1f924d1684c415e5852cda3cd42dd866/case
nProcs : 32
Hosts  :
(
    (nla-gpu2.ianm.kit.edu 32)
)
Pstream initialized with:
    floatTransfer      : false
    nProcsSimpleSum    : 0
    nonBlockingExchange: 0 (tuning: 0)
    exchange algorithm : -1
    commsType          : nonBlocking
    polling iterations : 0
trapFpe: Floating point exception trapping enabled (FOAM_SIGFPE).
fileModificationChecking : Monitoring run-time modified files using timeStampMaster (fileModificationSkew 5, maxFileModificationPolls 20)
allowSystemOperations : Allowing user-supplied system call operations

// * * * * * * * * * * * * * * * * * * * * * * * * * * * * * * * * * * * * * //
Create time

--> FOAM Warning : 
    From void* Foam::dlLibraryTable::openLibrary(const Foam::fileName&, bool)
    in file db/dynamicLibrary/dlLibraryTable/dlLibraryTable.C at line 188
    Could not load "libpetscFoam.so"
libpetscFoam.so: cannot open shared object file: No such file or directory
Create mesh for time = 0


PISO: Operating solver in PISO mode

Reading transportProperties

Reading field p

Reading field U

Reading/calculating face flux field phi


Starting time loop

Time = 0.000125

Courant Number mean: 8.02505e-18 max: 4.85723e-14
[INFO] MatrixAssemblyU: 570.383 [ms]
DILUPBiCGStab:  Solving for Ux, Initial residual = 1, Final residual = 0.0215184, No Iterations 5
DILUPBiCGStab:  Solving for Uy:  solution singularity
DILUPBiCGStab:  Solving for Uz:  solution singularity
[INFO] MomentumPredictor: 2076.12 [ms]
[INFO] MatrixAssemblyPI: 591.697 [ms]
[INFO] AdjustPhi: 25.819 [ms]
[INFO] ConstrainPressure: 0.016 [ms]
[INFO] MatrixAssemblyPII: 166.986 [ms]
nonePCG:  Solving for p, Initial residual = 1, Final residual = 9.90332e-05, No Iterations 3251
[INFO] SolveP: 206206 [ms]
time step continuity errors : sum local = 2.51223e-09, global = -2.32026e-22, cumulative = -2.32026e-22
[INFO] ContinuityError: 59.6 [ms]
[INFO] CorrectBoundary: 1.119 [ms]
[INFO] PISOStep: 207239 [ms]
[INFO] MatrixAssemblyPI: 557.877 [ms]
[INFO] AdjustPhi: 25.133 [ms]
[INFO] ConstrainPressure: 0.003 [ms]
[INFO] MatrixAssemblyPII: 166.683 [ms]
nonePCG:  Solving for p, Initial residual = 0.822079, Final residual = 9.90287e-05, No Iterations 3237
[INFO] SolveP: 204843 [ms]
time step continuity errors : sum local = 3.02665e-09, global = 4.87907e-22, cumulative = 2.55881e-22
[INFO] ContinuityError: 66.316 [ms]
[INFO] CorrectBoundary: 1.208 [ms]
[INFO] PISOStep: 205892 [ms]
[INFO] TimeStep: 415840 [ms]
ExecutionTime = 415.64 s  ClockTime = 418 s

Time = 0.00025

Courant Number mean: 0.0108529 max: 0.437705
[INFO] MatrixAssemblyU: 511.391 [ms]
DILUPBiCGStab:  Solving for Ux, Initial residual = 0.108168, Final residual = 0.0135461, No Iterations 5
DILUPBiCGStab:  Solving for Uy, Initial residual = 0.484635, Final residual = 0.0533658, No Iterations 5
DILUPBiCGStab:  Solving for Uz, Initial residual = 0.990101, Final residual = 0.120239, No Iterations 5
[INFO] MomentumPredictor: 3938.33 [ms]
[INFO] MatrixAssemblyPI: 574.2 [ms]
[INFO] AdjustPhi: 26.428 [ms]
[INFO] ConstrainPressure: 0.003 [ms]
[INFO] MatrixAssemblyPII: 167.066 [ms]
nonePCG:  Solving for p, Initial residual = 0.908271, Final residual = 9.83832e-05, No Iterations 3186
[INFO] SolveP: 201976 [ms]
time step continuity errors : sum local = 7.06129e-09, global = 8.24344e-22, cumulative = 1.08022e-21
[INFO] ContinuityError: 61.45 [ms]
[INFO] CorrectBoundary: 1.557 [ms]
[INFO] PISOStep: 202994 [ms]
[INFO] MatrixAssemblyPI: 559.291 [ms]
[INFO] AdjustPhi: 25.053 [ms]
[INFO] ConstrainPressure: 0.003 [ms]
[INFO] MatrixAssemblyPII: 164.888 [ms]
nonePCG:  Solving for p, Initial residual = 0.859111, Final residual = 9.87805e-05, No Iterations 3182
[INFO] SolveP: 201237 [ms]
time step continuity errors : sum local = 7.22435e-09, global = 1.61559e-24, cumulative = 1.08184e-21
[INFO] ContinuityError: 59.942 [ms]
[INFO] CorrectBoundary: 1.108 [ms]
[INFO] PISOStep: 202236 [ms]
[INFO] TimeStep: 409749 [ms]
ExecutionTime = 823.06 s  ClockTime = 828 s

Time = 0.000375

Courant Number mean: 0.0169392 max: 0.511586
[INFO] MatrixAssemblyU: 521.707 [ms]
DILUPBiCGStab:  Solving for Ux, Initial residual = 0.0536851, Final residual = 0.00548712, No Iterations 5
DILUPBiCGStab:  Solving for Uy, Initial residual = 0.261923, Final residual = 0.0267088, No Iterations 5
DILUPBiCGStab:  Solving for Uz, Initial residual = 0.870032, Final residual = 0.0867049, No Iterations 5
[INFO] MomentumPredictor: 3933.91 [ms]
[INFO] MatrixAssemblyPI: 575.88 [ms]
[INFO] AdjustPhi: 25.36 [ms]
[INFO] ConstrainPressure: 0.007 [ms]
[INFO] MatrixAssemblyPII: 165.673 [ms]
nonePCG:  Solving for p, Initial residual = 0.941473, Final residual = 9.90187e-05, No Iterations 1537
[INFO] SolveP: 97140.3 [ms]
time step continuity errors : sum local = 9.08086e-09, global = 3.66622e-22, cumulative = 1.44846e-21
[INFO] ContinuityError: 61.214 [ms]
[INFO] CorrectBoundary: 0.946 [ms]
[INFO] PISOStep: 98156.9 [ms]
[INFO] MatrixAssemblyPI: 558.3 [ms]
[INFO] AdjustPhi: 25.032 [ms]
[INFO] ConstrainPressure: 0.004 [ms]
[INFO] MatrixAssemblyPII: 166.688 [ms]
nonePCG:  Solving for p, Initial residual = 0.908932, Final residual = 9.9926e-05, No Iterations 1534
[INFO] SolveP: 97186.2 [ms]
time step continuity errors : sum local = 8.93325e-09, global = 2.24201e-22, cumulative = 1.67266e-21
[INFO] ContinuityError: 59.381 [ms]
[INFO] CorrectBoundary: 2.748 [ms]
[INFO] PISOStep: 98194.5 [ms]
[INFO] TimeStep: 200869 [ms]
ExecutionTime = 1022.82 s  ClockTime = 1028 s

Time = 0.0005

Courant Number mean: 0.0205469 max: 0.477562
[INFO] MatrixAssemblyU: 508.912 [ms]
DILUPBiCGStab:  Solving for Ux, Initial residual = 0.041627, Final residual = 0.00507902, No Iterations 5
DILUPBiCGStab:  Solving for Uy, Initial residual = 0.213998, Final residual = 0.0244207, No Iterations 5
DILUPBiCGStab:  Solving for Uz, Initial residual = 0.783594, Final residual = 0.0645161, No Iterations 5
[INFO] MomentumPredictor: 3930.18 [ms]
[INFO] MatrixAssemblyPI: 574.611 [ms]
[INFO] AdjustPhi: 26.327 [ms]
[INFO] ConstrainPressure: 0.003 [ms]
[INFO] MatrixAssemblyPII: 165.527 [ms]
nonePCG:  Solving for p, Initial residual = 0.938283, Final residual = 9.9204e-05, No Iterations 1533
[INFO] SolveP: 96995.4 [ms]
time step continuity errors : sum local = 1.13216e-08, global = -9.30578e-25, cumulative = 1.67173e-21
[INFO] ContinuityError: 59.985 [ms]
[INFO] CorrectBoundary: 0.772 [ms]
[INFO] PISOStep: 98011.9 [ms]
[INFO] MatrixAssemblyPI: 558.145 [ms]
[INFO] AdjustPhi: 25.185 [ms]
[INFO] ConstrainPressure: 0.003 [ms]
[INFO] MatrixAssemblyPII: 165.466 [ms]
nonePCG:  Solving for p, Initial residual = 0.880463, Final residual = 9.90665e-05, No Iterations 1512
[INFO] SolveP: 95796.4 [ms]
time step continuity errors : sum local = 1.11684e-08, global = 1.38553e-23, cumulative = 1.68559e-21
[INFO] ContinuityError: 60.565 [ms]
[INFO] CorrectBoundary: 0.712 [ms]
[INFO] PISOStep: 96795.3 [ms]
[INFO] TimeStep: 199311 [ms]
ExecutionTime = 1221.03 s  ClockTime = 1228 s

Time = 0.000625

Courant Number mean: 0.023617 max: 0.556183
[INFO] MatrixAssemblyU: 512.311 [ms]
DILUPBiCGStab:  Solving for Ux, Initial residual = 0.0376342, Final residual = 0.00462344, No Iterations 5
DILUPBiCGStab:  Solving for Uy, Initial residual = 0.184907, Final residual = 0.0203094, No Iterations 5
DILUPBiCGStab:  Solving for Uz, Initial residual = 0.756324, Final residual = 0.0562771, No Iterations 5
[INFO] MomentumPredictor: 3922.16 [ms]
[INFO] MatrixAssemblyPI: 575.733 [ms]
[INFO] AdjustPhi: 24.188 [ms]
[INFO] ConstrainPressure: 0.004 [ms]
[INFO] MatrixAssemblyPII: 167.09 [ms]
nonePCG:  Solving for p, Initial residual = 0.954419, Final residual = 9.97896e-05, No Iterations 3094
[INFO] SolveP: 195890 [ms]
time step continuity errors : sum local = 1.25094e-08, global = -9.05504e-23, cumulative = 1.59504e-21
[INFO] ContinuityError: 63.554 [ms]
[INFO] CorrectBoundary: 1.258 [ms]
[INFO] PISOStep: 196933 [ms]
[INFO] MatrixAssemblyPI: 554.741 [ms]
[INFO] AdjustPhi: 29.507 [ms]
[INFO] ConstrainPressure: 0.003 [ms]
[INFO] MatrixAssemblyPII: 166.457 [ms]
nonePCG:  Solving for p, Initial residual = 0.915201, Final residual = 9.97509e-05, No Iterations 3088
[INFO] SolveP: 195678 [ms]
time step continuity errors : sum local = 1.243e-08, global = 2.42403e-22, cumulative = 1.83744e-21
[INFO] ContinuityError: 64.18 [ms]
[INFO] CorrectBoundary: 1.143 [ms]
[INFO] PISOStep: 196691 [ms]
[INFO] TimeStep: 398121 [ms]
ExecutionTime = 1616.95 s  ClockTime = 1626 s

Time = 0.00075

Courant Number mean: 0.0259525 max: 0.483355
[INFO] MatrixAssemblyU: 505.546 [ms]
DILUPBiCGStab:  Solving for Ux, Initial residual = 0.0353975, Final residual = 0.00439578, No Iterations 5
DILUPBiCGStab:  Solving for Uy, Initial residual = 0.171568, Final residual = 0.0174391, No Iterations 5
DILUPBiCGStab:  Solving for Uz, Initial residual = 0.697445, Final residual = 0.0468622, No Iterations 5
[INFO] MomentumPredictor: 3933.75 [ms]
[INFO] MatrixAssemblyPI: 572.951 [ms]
[INFO] AdjustPhi: 27.38 [ms]
[INFO] ConstrainPressure: 0.003 [ms]
[INFO] MatrixAssemblyPII: 166.339 [ms]
nonePCG:  Solving for p, Initial residual = 0.951504, Final residual = 9.96582e-05, No Iterations 3093
[INFO] SolveP: 195440 [ms]
time step continuity errors : sum local = 1.44482e-08, global = -7.53833e-23, cumulative = 1.76206e-21
[INFO] ContinuityError: 74.098 [ms]
[INFO] CorrectBoundary: 0.992 [ms]
[INFO] PISOStep: 196537 [ms]
[INFO] MatrixAssemblyPI: 613.737 [ms]
[INFO] AdjustPhi: 27.721 [ms]
[INFO] ConstrainPressure: 0.004 [ms]
[INFO] MatrixAssemblyPII: 171.065 [ms]
nonePCG:  Solving for p, Initial residual = 0.891312, Final residual = 9.94867e-05, No Iterations 3089
[INFO] SolveP: 195906 [ms]
time step continuity errors : sum local = 1.4651e-08, global = 7.81301e-22, cumulative = 2.54336e-21
[INFO] ContinuityError: 58.997 [ms]
[INFO] CorrectBoundary: 1.587 [ms]
[INFO] PISOStep: 196966 [ms]
[INFO] TimeStep: 398005 [ms]
ExecutionTime = 2012.76 s  ClockTime = 2024 s

Time = 0.000875

Courant Number mean: 0.0281461 max: 0.61245
[INFO] MatrixAssemblyU: 509.862 [ms]
DILUPBiCGStab:  Solving for Ux, Initial residual = 0.0350559, Final residual = 0.004176, No Iterations 5
DILUPBiCGStab:  Solving for Uy, Initial residual = 0.176415, Final residual = 0.0165555, No Iterations 5
DILUPBiCGStab:  Solving for Uz, Initial residual = 0.69522, Final residual = 0.0424026, No Iterations 5
[INFO] MomentumPredictor: 3931.19 [ms]
[INFO] MatrixAssemblyPI: 573.635 [ms]
[INFO] AdjustPhi: 26.455 [ms]
[INFO] ConstrainPressure: 0.004 [ms]
[INFO] MatrixAssemblyPII: 166.357 [ms]
nonePCG:  Solving for p, Initial residual = 0.962336, Final residual = 9.91297e-05, No Iterations 1506
[INFO] SolveP: 95268.7 [ms]
time step continuity errors : sum local = 1.79145e-08, global = 9.29854e-22, cumulative = 3.47321e-21
[INFO] ContinuityError: 59.552 [ms]
[INFO] CorrectBoundary: 0.944 [ms]
[INFO] PISOStep: 96284.1 [ms]
[INFO] MatrixAssemblyPI: 557.874 [ms]
[INFO] AdjustPhi: 25.683 [ms]
[INFO] ConstrainPressure: 0.003 [ms]
[INFO] MatrixAssemblyPII: 166.381 [ms]
nonePCG:  Solving for p, Initial residual = 0.917686, Final residual = 9.88901e-05, No Iterations 1487
[INFO] SolveP: 94664.8 [ms]
time step continuity errors : sum local = 1.67055e-08, global = 3.74506e-22, cumulative = 3.84772e-21
[INFO] ContinuityError: 60.139 [ms]
[INFO] CorrectBoundary: 1.369 [ms]
[INFO] PISOStep: 95663 [ms]
[INFO] TimeStep: 196450 [ms]
ExecutionTime = 2208.11 s  ClockTime = 2220 s

Time = 0.001

Courant Number mean: 0.0298921 max: 0.491037
[INFO] MatrixAssemblyU: 505.173 [ms]
DILUPBiCGStab:  Solving for Ux, Initial residual = 0.0360865, Final residual = 0.00400668, No Iterations 5
DILUPBiCGStab:  Solving for Uy, Initial residual = 0.170509, Final residual = 0.0144737, No Iterations 5
DILUPBiCGStab:  Solving for Uz, Initial residual = 0.687201, Final residual = 0.0426097, No Iterations 5
[INFO] MomentumPredictor: 3938.98 [ms]
[INFO] MatrixAssemblyPI: 574.67 [ms]
[INFO] AdjustPhi: 25.454 [ms]
[INFO] ConstrainPressure: 0.007 [ms]
[INFO] MatrixAssemblyPII: 164.819 [ms]
nonePCG:  Solving for p, Initial residual = 0.960265, Final residual = 9.94465e-05, No Iterations 3073
[INFO] SolveP: 194270 [ms]
time step continuity errors : sum local = 1.87625e-08, global = 3.88251e-22, cumulative = 4.23597e-21
[INFO] ContinuityError: 64.019 [ms]
[INFO] CorrectBoundary: 1.341 [ms]
[INFO] PISOStep: 195296 [ms]
[INFO] MatrixAssemblyPI: 557.756 [ms]
[INFO] AdjustPhi: 26.283 [ms]
[INFO] ConstrainPressure: 0.003 [ms]
[INFO] MatrixAssemblyPII: 166.758 [ms]
nonePCG:  Solving for p, Initial residual = 0.898093, Final residual = 9.83026e-05, No Iterations 3071
[INFO] SolveP: 194734 [ms]
time step continuity errors : sum local = 1.88218e-08, global = 1.90487e-22, cumulative = 4.42646e-21
[INFO] ContinuityError: 63.394 [ms]
[INFO] CorrectBoundary: 1.304 [ms]
[INFO] PISOStep: 195761 [ms]
[INFO] TimeStep: 395563 [ms]
ExecutionTime = 2601.57 s  ClockTime = 2616 s

Time = 0.001125

Courant Number mean: 0.0316953 max: 0.696041
[INFO] MatrixAssemblyU: 502.845 [ms]
DILUPBiCGStab:  Solving for Ux, Initial residual = 0.0374706, Final residual = 0.00382208, No Iterations 5
DILUPBiCGStab:  Solving for Uy, Initial residual = 0.187084, Final residual = 0.0147538, No Iterations 5
DILUPBiCGStab:  Solving for Uz, Initial residual = 0.694039, Final residual = 0.0380994, No Iterations 5
[INFO] MomentumPredictor: 3939.47 [ms]
[INFO] MatrixAssemblyPI: 573.941 [ms]
[INFO] AdjustPhi: 26.816 [ms]
[INFO] ConstrainPressure: 0.003 [ms]
[INFO] MatrixAssemblyPII: 164.975 [ms]
nonePCG:  Solving for p, Initial residual = 0.968109, Final residual = 9.77966e-05, No Iterations 3071
[INFO] SolveP: 194390 [ms]
time step continuity errors : sum local = 2.11391e-08, global = 1.09703e-21, cumulative = 5.52348e-21
[INFO] ContinuityError: 70.271 [ms]
[INFO] CorrectBoundary: 4.6 [ms]
[INFO] PISOStep: 195468 [ms]
[INFO] MatrixAssemblyPI: 603.879 [ms]
[INFO] AdjustPhi: 28.604 [ms]
[INFO] ConstrainPressure: 0.003 [ms]
[INFO] MatrixAssemblyPII: 168.167 [ms]
nonePCG:  Solving for p, Initial residual = 0.918599, Final residual = 9.79568e-05, No Iterations 3069
[INFO] SolveP: 194679 [ms]
time step continuity errors : sum local = 2.11471e-08, global = -3.56334e-22, cumulative = 5.16715e-21
[INFO] ContinuityError: 59.912 [ms]
[INFO] CorrectBoundary: 3.539 [ms]
[INFO] PISOStep: 195728 [ms]
[INFO] TimeStep: 395701 [ms]
ExecutionTime = 2995.1 s  ClockTime = 3012 s

Time = 0.00125

Courant Number mean: 0.0331077 max: 0.507095
[INFO] MatrixAssemblyU: 504.67 [ms]
DILUPBiCGStab:  Solving for Ux, Initial residual = 0.0407833, Final residual = 0.00387841, No Iterations 5
DILUPBiCGStab:  Solving for Uy, Initial residual = 0.185786, Final residual = 0.0130652, No Iterations 5
DILUPBiCGStab:  Solving for Uz, Initial residual = 0.693236, Final residual = 0.0368763, No Iterations 5
[INFO] MomentumPredictor: 3933.01 [ms]
[INFO] MatrixAssemblyPI: 574.652 [ms]
[INFO] AdjustPhi: 26.233 [ms]
[INFO] ConstrainPressure: 0.005 [ms]
[INFO] MatrixAssemblyPII: 162.79 [ms]
nonePCG:  Solving for p, Initial residual = 0.967483, Final residual = 9.90448e-05, No Iterations 3071
[INFO] SolveP: 194408 [ms]
time step continuity errors : sum local = 2.49305e-08, global = 9.40437e-22, cumulative = 6.10759e-21
[INFO] ContinuityError: 58.475 [ms]
[INFO] CorrectBoundary: 1.16 [ms]
[INFO] PISOStep: 195423 [ms]
[INFO] MatrixAssemblyPI: 559.152 [ms]
[INFO] AdjustPhi: 24.276 [ms]
[INFO] ConstrainPressure: 0.004 [ms]
[INFO] MatrixAssemblyPII: 166.418 [ms]
nonePCG:  Solving for p, Initial residual = 0.903731, Final residual = 9.96415e-05, No Iterations 3068
[INFO] SolveP: 194588 [ms]
time step continuity errors : sum local = 2.54182e-08, global = 5.84203e-22, cumulative = 6.69179e-21
[INFO] ContinuityError: 59.635 [ms]
[INFO] CorrectBoundary: 1.612 [ms]
[INFO] PISOStep: 195589 [ms]
[INFO] TimeStep: 395512 [ms]
ExecutionTime = 3388.46 s  ClockTime = 3407 s

Time = 0.001375

Courant Number mean: 0.0347058 max: 0.825583
[INFO] MatrixAssemblyU: 500.469 [ms]
DILUPBiCGStab:  Solving for Ux, Initial residual = 0.0435225, Final residual = 0.00371004, No Iterations 5
DILUPBiCGStab:  Solving for Uy, Initial residual = 0.20941, Final residual = 0.0140914, No Iterations 5
DILUPBiCGStab:  Solving for Uz, Initial residual = 0.706651, Final residual = 0.0361762, No Iterations 5
[INFO] MomentumPredictor: 3937.75 [ms]
[INFO] MatrixAssemblyPI: 574.399 [ms]
[INFO] AdjustPhi: 26.763 [ms]
[INFO] ConstrainPressure: 0.008 [ms]
[INFO] MatrixAssemblyPII: 163.125 [ms]
nonePCG:  Solving for p, Initial residual = 0.973063, Final residual = 9.87257e-05, No Iterations 3070
[INFO] SolveP: 194739 [ms]
time step continuity errors : sum local = 2.884e-08, global = 1.15883e-21, cumulative = 7.85062e-21
[INFO] ContinuityError: 58.166 [ms]
[INFO] CorrectBoundary: 1.205 [ms]
[INFO] PISOStep: 195755 [ms]
[INFO] MatrixAssemblyPI: 558.341 [ms]
[INFO] AdjustPhi: 25.202 [ms]
[INFO] ConstrainPressure: 0.002 [ms]
[INFO] MatrixAssemblyPII: 166.474 [ms]
nonePCG:  Solving for p, Initial residual = 0.919443, Final residual = 9.80117e-05, No Iterations 3068
[INFO] SolveP: 194412 [ms]
time step continuity errors : sum local = 2.86516e-08, global = 3.26265e-22, cumulative = 8.17689e-21
[INFO] ContinuityError: 59.862 [ms]
[INFO] CorrectBoundary: 1.497 [ms]
[INFO] PISOStep: 195410 [ms]
[INFO] TimeStep: 395668 [ms]
ExecutionTime = 3782.01 s  ClockTime = 3803 s

Time = 0.0015

Courant Number mean: 0.0359049 max: 0.59756
[INFO] MatrixAssemblyU: 507.585 [ms]
DILUPBiCGStab:  Solving for Ux, Initial residual = 0.0489526, Final residual = 0.00391311, No Iterations 5
DILUPBiCGStab:  Solving for Uy, Initial residual = 0.213716, Final residual = 0.0129345, No Iterations 5
DILUPBiCGStab:  Solving for Uz, Initial residual = 0.710305, Final residual = 0.0357474, No Iterations 5
[INFO] MomentumPredictor: 3934.15 [ms]
[INFO] MatrixAssemblyPI: 572.151 [ms]
[INFO] AdjustPhi: 28.678 [ms]
[INFO] ConstrainPressure: 0.007 [ms]
[INFO] MatrixAssemblyPII: 166.636 [ms]
nonePCG:  Solving for p, Initial residual = 0.973312, Final residual = 9.89512e-05, No Iterations 3071
[INFO] SolveP: 194937 [ms]
time step continuity errors : sum local = 3.39013e-08, global = -1.535e-22, cumulative = 8.02339e-21
[INFO] ContinuityError: 61.351 [ms]
[INFO] CorrectBoundary: 1.456 [ms]
[INFO] PISOStep: 195963 [ms]
[INFO] MatrixAssemblyPI: 556.851 [ms]
[INFO] AdjustPhi: 26.942 [ms]
[INFO] ConstrainPressure: 0.003 [ms]
[INFO] MatrixAssemblyPII: 166.744 [ms]
nonePCG:  Solving for p, Initial residual = 0.908595, Final residual = 9.84271e-05, No Iterations 3068
[INFO] SolveP: 195187 [ms]
time step continuity errors : sum local = 3.41327e-08, global = 5.79944e-22, cumulative = 8.60333e-21
[INFO] ContinuityError: 59.833 [ms]
[INFO] CorrectBoundary: 1.278 [ms]
[INFO] PISOStep: 196185 [ms]
[INFO] TimeStep: 396652 [ms]
ExecutionTime = 4176.45 s  ClockTime = 4199 s

Time = 0.001625

Courant Number mean: 0.0373991 max: 1.14776
[INFO] MatrixAssemblyU: 501.043 [ms]
DILUPBiCGStab:  Solving for Ux, Initial residual = 0.0535678, Final residual = 0.0038525, No Iterations 5
DILUPBiCGStab:  Solving for Uy, Initial residual = 0.24205, Final residual = 0.0142158, No Iterations 5
DILUPBiCGStab:  Solving for Uz, Initial residual = 0.72225, Final residual = 0.0354793, No Iterations 5
[INFO] MomentumPredictor: 3945.59 [ms]
[INFO] MatrixAssemblyPI: 575.938 [ms]
[INFO] AdjustPhi: 25.352 [ms]
[INFO] ConstrainPressure: 0.006 [ms]
[INFO] MatrixAssemblyPII: 166.686 [ms]
nonePCG:  Solving for p, Initial residual = 0.976875, Final residual = 9.90075e-05, No Iterations 3071
[INFO] SolveP: 194629 [ms]
time step continuity errors : sum local = 3.97435e-08, global = 1.76288e-21, cumulative = 1.03662e-20
[INFO] ContinuityError: 58.625 [ms]
[INFO] CorrectBoundary: 1.264 [ms]
[INFO] PISOStep: 195645 [ms]
[INFO] MatrixAssemblyPI: 557.153 [ms]
[INFO] AdjustPhi: 26.322 [ms]
[INFO] ConstrainPressure: 0.002 [ms]
[INFO] MatrixAssemblyPII: 166.136 [ms]
nonePCG:  Solving for p, Initial residual = 0.920235, Final residual = 9.88755e-05, No Iterations 3068
[INFO] SolveP: 194565 [ms]
time step continuity errors : sum local = 3.97891e-08, global = 3.2914e-22, cumulative = 1.06953e-20
[INFO] ContinuityError: 62.216 [ms]
[INFO] CorrectBoundary: 1.115 [ms]
[INFO] PISOStep: 195572 [ms]
[INFO] TimeStep: 395727 [ms]
ExecutionTime = 4569.92 s  ClockTime = 4595 s

Time = 0.00175

Courant Number mean: 0.0384608 max: 1.02094
[INFO] MatrixAssemblyU: 501.84 [ms]
DILUPBiCGStab:  Solving for Ux, Initial residual = 0.0615128, Final residual = 0.00415089, No Iterations 5
DILUPBiCGStab:  Solving for Uy, Initial residual = 0.252437, Final residual = 0.0135927, No Iterations 5
DILUPBiCGStab:  Solving for Uz, Initial residual = 0.726591, Final residual = 0.0352456, No Iterations 5
[INFO] MomentumPredictor: 3933.27 [ms]
[INFO] MatrixAssemblyPI: 573.972 [ms]
[INFO] AdjustPhi: 25.928 [ms]
[INFO] ConstrainPressure: 0.005 [ms]
[INFO] MatrixAssemblyPII: 166.1 [ms]
nonePCG:  Solving for p, Initial residual = 0.977565, Final residual = 9.89368e-05, No Iterations 3073
[INFO] SolveP: 194665 [ms]
time step continuity errors : sum local = 4.68174e-08, global = 3.05317e-22, cumulative = 1.10007e-20
[INFO] ContinuityError: 58.957 [ms]
[INFO] CorrectBoundary: 1.367 [ms]
[INFO] PISOStep: 195680 [ms]
[INFO] MatrixAssemblyPI: 556.481 [ms]
[INFO] AdjustPhi: 27.533 [ms]
[INFO] ConstrainPressure: 0.006 [ms]
[INFO] MatrixAssemblyPII: 166.182 [ms]
nonePCG:  Solving for p, Initial residual = 0.912677, Final residual = 9.88838e-05, No Iterations 3069
[INFO] SolveP: 194289 [ms]
time step continuity errors : sum local = 4.73116e-08, global = 1.81505e-22, cumulative = 1.11822e-20
[INFO] ContinuityError: 59.718 [ms]
[INFO] CorrectBoundary: 1.135 [ms]
[INFO] PISOStep: 195287 [ms]
[INFO] TimeStep: 395464 [ms]
ExecutionTime = 4963.13 s  ClockTime = 4991 s

Time = 0.001875

Courant Number mean: 0.0399244 max: 1.68239
[INFO] MatrixAssemblyU: 501.311 [ms]
DILUPBiCGStab:  Solving for Ux, Initial residual = 0.0684489, Final residual = 0.00423771, No Iterations 5
DILUPBiCGStab:  Solving for Uy, Initial residual = 0.284437, Final residual = 0.014974, No Iterations 5
DILUPBiCGStab:  Solving for Uz, Initial residual = 0.735167, Final residual = 0.0350324, No Iterations 5
[INFO] MomentumPredictor: 3936.8 [ms]
[INFO] MatrixAssemblyPI: 574.505 [ms]
[INFO] AdjustPhi: 25.504 [ms]
[INFO] ConstrainPressure: 0.004 [ms]
[INFO] MatrixAssemblyPII: 166.842 [ms]
nonePCG:  Solving for p, Initial residual = 0.979674, Final residual = 9.95827e-05, No Iterations 3074
[INFO] SolveP: 194476 [ms]
time step continuity errors : sum local = 5.5554e-08, global = -1.15802e-21, cumulative = 1.00242e-20
[INFO] ContinuityError: 58.658 [ms]
[INFO] CorrectBoundary: 1.426 [ms]
[INFO] PISOStep: 195490 [ms]
[INFO] MatrixAssemblyPI: 559.15 [ms]
[INFO] AdjustPhi: 28.684 [ms]
[INFO] ConstrainPressure: 0.002 [ms]
[INFO] MatrixAssemblyPII: 165.668 [ms]
nonePCG:  Solving for p, Initial residual = 0.920718, Final residual = 9.95267e-05, No Iterations 3070
[INFO] SolveP: 194349 [ms]
time step continuity errors : sum local = 5.57446e-08, global = 5.16193e-22, cumulative = 1.05403e-20
[INFO] ContinuityError: 59.513 [ms]
[INFO] CorrectBoundary: 0.816 [ms]
[INFO] PISOStep: 195352 [ms]
[INFO] TimeStep: 395342 [ms]
ExecutionTime = 5356.2 s  ClockTime = 5386 s

Time = 0.002

Courant Number mean: 0.0409188 max: 1.71627
[INFO] MatrixAssemblyU: 503.032 [ms]
DILUPBiCGStab:  Solving for Ux, Initial residual = 0.0798221, Final residual = 0.00465629, No Iterations 5
DILUPBiCGStab:  Solving for Uy, Initial residual = 0.301133, Final residual = 0.0148152, No Iterations 5
DILUPBiCGStab:  Solving for Uz, Initial residual = 0.738691, Final residual = 0.0348132, No Iterations 5
[INFO] MomentumPredictor: 3936.39 [ms]
[INFO] MatrixAssemblyPI: 573.736 [ms]
[INFO] AdjustPhi: 26.144 [ms]
[INFO] ConstrainPressure: 0.005 [ms]
[INFO] MatrixAssemblyPII: 166.407 [ms]
nonePCG:  Solving for p, Initial residual = 0.980794, Final residual = 9.92648e-05, No Iterations 3076
[INFO] SolveP: 194198 [ms]
time step continuity errors : sum local = 6.55577e-08, global = -5.05588e-22, cumulative = 1.00348e-20
[INFO] ContinuityError: 59.621 [ms]
[INFO] CorrectBoundary: 1.095 [ms]
[INFO] PISOStep: 195215 [ms]
[INFO] MatrixAssemblyPI: 559.238 [ms]
[INFO] AdjustPhi: 25.395 [ms]
[INFO] ConstrainPressure: 0.008 [ms]
[INFO] MatrixAssemblyPII: 163.433 [ms]
nonePCG:  Solving for p, Initial residual = 0.915706, Final residual = 9.91824e-05, No Iterations 3072
[INFO] SolveP: 194436 [ms]
time step continuity errors : sum local = 6.61751e-08, global = 1.99428e-22, cumulative = 1.02342e-20
[INFO] ContinuityError: 59.208 [ms]
[INFO] CorrectBoundary: 1 [ms]
[INFO] PISOStep: 195436 [ms]
[INFO] TimeStep: 395152 [ms]
ExecutionTime = 5749.07 s  ClockTime = 5781 s

Time = 0.002125

Courant Number mean: 0.0424197 max: 2.54795
[INFO] MatrixAssemblyU: 505.556 [ms]
DILUPBiCGStab:  Solving for Ux, Initial residual = 0.0897582, Final residual = 0.00491425, No Iterations 5
DILUPBiCGStab:  Solving for Uy, Initial residual = 0.336111, Final residual = 0.0162651, No Iterations 5
DILUPBiCGStab:  Solving for Uz, Initial residual = 0.744297, Final residual = 0.0346415, No Iterations 5
[INFO] MomentumPredictor: 3934.91 [ms]
[INFO] MatrixAssemblyPI: 573.817 [ms]
[INFO] AdjustPhi: 26.035 [ms]
[INFO] ConstrainPressure: 0.006 [ms]
[INFO] MatrixAssemblyPII: 164.914 [ms]
nonePCG:  Solving for p, Initial residual = 0.981868, Final residual = 9.91958e-05, No Iterations 3078
[INFO] SolveP: 194672 [ms]
time step continuity errors : sum local = 7.78227e-08, global = 9.77624e-22, cumulative = 1.12118e-20
[INFO] ContinuityError: 59.492 [ms]
[INFO] CorrectBoundary: 0.928 [ms]
[INFO] PISOStep: 195689 [ms]
[INFO] MatrixAssemblyPI: 556.867 [ms]
[INFO] AdjustPhi: 25.741 [ms]
[INFO] ConstrainPressure: 0.003 [ms]
[INFO] MatrixAssemblyPII: 166.25 [ms]
nonePCG:  Solving for p, Initial residual = 0.920741, Final residual = 9.97876e-05, No Iterations 3074
[INFO] SolveP: 195159 [ms]
time step continuity errors : sum local = 7.87099e-08, global = 4.75771e-22, cumulative = 1.16876e-20
[INFO] ContinuityError: 67.967 [ms]
[INFO] CorrectBoundary: 0.834 [ms]
[INFO] PISOStep: 196209 [ms]
[INFO] TimeStep: 396400 [ms]
ExecutionTime = 6143.21 s  ClockTime = 6178 s

Time = 0.00225

Courant Number mean: 0.0434264 max: 2.85581
[INFO] MatrixAssemblyU: 514.895 [ms]
DILUPBiCGStab:  Solving for Ux, Initial residual = 0.106055, Final residual = 0.00552217, No Iterations 5
DILUPBiCGStab:  Solving for Uy, Initial residual = 0.359034, Final residual = 0.0165091, No Iterations 5
DILUPBiCGStab:  Solving for Uz, Initial residual = 0.74675, Final residual = 0.034401, No Iterations 5
[INFO] MomentumPredictor: 3948.89 [ms]
[INFO] MatrixAssemblyPI: 573.834 [ms]
[INFO] AdjustPhi: 26.283 [ms]
[INFO] ConstrainPressure: 0.003 [ms]
[INFO] MatrixAssemblyPII: 165.963 [ms]
nonePCG:  Solving for p, Initial residual = 0.983071, Final residual = 9.93587e-05, No Iterations 3080
[INFO] SolveP: 194541 [ms]
time step continuity errors : sum local = 9.29579e-08, global = 2.45176e-21, cumulative = 1.41393e-20
[INFO] ContinuityError: 63.631 [ms]
[INFO] CorrectBoundary: 1.438 [ms]
[INFO] PISOStep: 195579 [ms]
[INFO] MatrixAssemblyPI: 556.086 [ms]
[INFO] AdjustPhi: 27.599 [ms]
[INFO] ConstrainPressure: 0.003 [ms]
[INFO] MatrixAssemblyPII: 165.864 [ms]
nonePCG:  Solving for p, Initial residual = 0.91775, Final residual = 9.88154e-05, No Iterations 3076
[INFO] SolveP: 195227 [ms]
time step continuity errors : sum local = 9.33471e-08, global = 7.53775e-22, cumulative = 1.48931e-20
[INFO] ContinuityError: 58.612 [ms]
[INFO] CorrectBoundary: 1.206 [ms]
[INFO] PISOStep: 196225 [ms]
[INFO] TimeStep: 396342 [ms]
ExecutionTime = 6537.3 s  ClockTime = 6574 s

Time = 0.002375

Courant Number mean: 0.0450474 max: 3.95853
[INFO] MatrixAssemblyU: 513.04 [ms]
DILUPBiCGStab:  Solving for Ux, Initial residual = 0.119843, Final residual = 0.00596963, No Iterations 5
DILUPBiCGStab:  Solving for Uy, Initial residual = 0.395366, Final residual = 0.0180063, No Iterations 5
DILUPBiCGStab:  Solving for Uz, Initial residual = 0.750426, Final residual = 0.034327, No Iterations 5
[INFO] MomentumPredictor: 3928.54 [ms]
[INFO] MatrixAssemblyPI: 574.745 [ms]
[INFO] AdjustPhi: 24.735 [ms]
[INFO] ConstrainPressure: 0.01 [ms]
[INFO] MatrixAssemblyPII: 166.496 [ms]
nonePCG:  Solving for p, Initial residual = 0.983506, Final residual = 9.93591e-05, No Iterations 3081
[INFO] SolveP: 195387 [ms]
time step continuity errors : sum local = 1.11275e-07, global = 2.42982e-21, cumulative = 1.73229e-20
[INFO] ContinuityError: 58.698 [ms]
[INFO] CorrectBoundary: 1.063 [ms]
[INFO] PISOStep: 196401 [ms]
[INFO] MatrixAssemblyPI: 558.534 [ms]
[INFO] AdjustPhi: 24.833 [ms]
[INFO] ConstrainPressure: 0.006 [ms]
[INFO] MatrixAssemblyPII: 166.033 [ms]
nonePCG:  Solving for p, Initial residual = 0.920962, Final residual = 9.86555e-05, No Iterations 3078
[INFO] SolveP: 194816 [ms]
time step continuity errors : sum local = 1.11205e-07, global = 2.95756e-22, cumulative = 1.76187e-20
[INFO] ContinuityError: 65.63 [ms]
[INFO] CorrectBoundary: 0.681 [ms]
[INFO] PISOStep: 195855 [ms]
[INFO] TimeStep: 396759 [ms]
ExecutionTime = 6931.8 s  ClockTime = 6971 s

Time = 0.0025

Courant Number mean: 0.0461741 max: 4.70254
[INFO] MatrixAssemblyU: 505.554 [ms]
DILUPBiCGStab:  Solving for Ux, Initial residual = 0.142782, Final residual = 0.00684467, No Iterations 5
DILUPBiCGStab:  Solving for Uy, Initial residual = 0.422909, Final residual = 0.0185724, No Iterations 5
DILUPBiCGStab:  Solving for Uz, Initial residual = 0.751783, Final residual = 0.0340666, No Iterations 5
[INFO] MomentumPredictor: 3934.38 [ms]
[INFO] MatrixAssemblyPI: 573.603 [ms]
[INFO] AdjustPhi: 26.565 [ms]
[INFO] ConstrainPressure: 0.007 [ms]
[INFO] MatrixAssemblyPII: 166.544 [ms]
nonePCG:  Solving for p, Initial residual = 0.984379, Final residual = 9.91511e-05, No Iterations 3083
[INFO] SolveP: 195203 [ms]
time step continuity errors : sum local = 1.33314e-07, global = 3.06004e-21, cumulative = 2.06787e-20
[INFO] ContinuityError: 74.057 [ms]
[INFO] CorrectBoundary: 1.205 [ms]
[INFO] PISOStep: 196287 [ms]
[INFO] MatrixAssemblyPI: 599.557 [ms]
[INFO] AdjustPhi: 31.067 [ms]
[INFO] ConstrainPressure: 0.003 [ms]
[INFO] MatrixAssemblyPII: 167.593 [ms]
nonePCG:  Solving for p, Initial residual = 0.919102, Final residual = 9.84719e-05, No Iterations 3080
[INFO] SolveP: 194774 [ms]
time step continuity errors : sum local = 1.33655e-07, global = -5.86381e-22, cumulative = 2.00923e-20
[INFO] ContinuityError: 59.546 [ms]
[INFO] CorrectBoundary: 0.912 [ms]
[INFO] PISOStep: 195822 [ms]
[INFO] TimeStep: 396615 [ms]
ExecutionTime = 7326.14 s  ClockTime = 7367 s

End

Finalising parallel run
