/*---------------------------------------------------------------------------*\
| =========                 |                                                 |
| \\      /  F ield         | OpenFOAM: The Open Source CFD Toolbox           |
|  \\    /   O peration     | Version:  2306                                  |
|   \\  /    A nd           | Website:  www.openfoam.com                      |
|    \\/     M anipulation  |                                                 |
\*---------------------------------------------------------------------------*/
Build  : a6e826bd55-20230630 OPENFOAM=2306 version=v2306
Arch   : "LSB;label=32;scalar=64"
Exec   : icoFoam -parallel -case /tmp/lidDrivenCavity/workspace/55f7254d3b58628cbc61eeef00c60425/case
Date   : Jan 09 2024
Time   : 22:21:49
Host   : nla-gpu2.ianm.kit.edu
PID    : 401213
I/O    : uncollated
Case   : /tmp/lidDrivenCavity/workspace/55f7254d3b58628cbc61eeef00c60425/case
nProcs : 32
Hosts  :
(
    (nla-gpu2.ianm.kit.edu 32)
)
Pstream initialized with:
    floatTransfer      : false
    nProcsSimpleSum    : 0
    nonBlockingExchange: 0 (tuning: 0)
    exchange algorithm : -1
    commsType          : nonBlocking
    polling iterations : 0
trapFpe: Floating point exception trapping enabled (FOAM_SIGFPE).
fileModificationChecking : Monitoring run-time modified files using timeStampMaster (fileModificationSkew 5, maxFileModificationPolls 20)
allowSystemOperations : Allowing user-supplied system call operations

// * * * * * * * * * * * * * * * * * * * * * * * * * * * * * * * * * * * * * //
Create time

--> FOAM Warning : 
    From void* Foam::dlLibraryTable::openLibrary(const Foam::fileName&, bool)
    in file db/dynamicLibrary/dlLibraryTable/dlLibraryTable.C at line 188
    Could not load "libpetscFoam.so"
libpetscFoam.so: cannot open shared object file: No such file or directory
Create mesh for time = 0


PISO: Operating solver in PISO mode

Reading transportProperties

Reading field p

Reading field U

Reading/calculating face flux field phi


Starting time loop

Time = 0.00025

Courant Number mean: 8.24341e-18 max: 2.08167e-14
[INFO] MatrixAssemblyU: 67.763 [ms]
DILUPBiCGStab:  Solving for Ux, Initial residual = 1, Final residual = 0.00994539, No Iterations 5
DILUPBiCGStab:  Solving for Uy:  solution singularity
DILUPBiCGStab:  Solving for Uz:  solution singularity
[INFO] MomentumPredictor: 253.986 [ms]
[INFO] MatrixAssemblyPI: 68.634 [ms]
[INFO] AdjustPhi: 4.763 [ms]
[INFO] ConstrainPressure: 0.011 [ms]
[INFO] MatrixAssemblyPII: 19.403 [ms]
GAMG:  Solving for p, Initial residual = 1, Final residual = 8.79905e-05, No Iterations 26
[INFO] SolveP: 1038.51 [ms]
time step continuity errors : sum local = 6.75507e-09, global = -2.17957e-21, cumulative = -2.17957e-21
[INFO] ContinuityError: 5.793 [ms]
[INFO] CorrectBoundary: 0.266 [ms]
[INFO] PISOStep: 1162.03 [ms]
[INFO] MatrixAssemblyPI: 65.016 [ms]
[INFO] AdjustPhi: 3.287 [ms]
[INFO] ConstrainPressure: 0.002 [ms]
[INFO] MatrixAssemblyPII: 18.499 [ms]
GAMG:  Solving for p, Initial residual = 0.7864, Final residual = 9.82108e-05, No Iterations 25
[INFO] SolveP: 873.037 [ms]
time step continuity errors : sum local = 9.45513e-09, global = 4.72333e-22, cumulative = -1.70724e-21
[INFO] ContinuityError: 7.352 [ms]
[INFO] CorrectBoundary: 1.286 [ms]
[INFO] PISOStep: 992.844 [ms]
[INFO] TimeStep: 2484.5 [ms]
ExecutionTime = 3.1 s  ClockTime = 3 s

Time = 0.0005

Courant Number mean: 0.015946 max: 0.41255
[INFO] MatrixAssemblyU: 60.518 [ms]
DILUPBiCGStab:  Solving for Ux, Initial residual = 0.129576, Final residual = 0.00567065, No Iterations 5
DILUPBiCGStab:  Solving for Uy, Initial residual = 0.426969, Final residual = 0.0150071, No Iterations 5
DILUPBiCGStab:  Solving for Uz, Initial residual = 0.985483, Final residual = 0.0384296, No Iterations 5
[INFO] MomentumPredictor: 463.768 [ms]
[INFO] MatrixAssemblyPI: 66.681 [ms]
[INFO] AdjustPhi: 3.823 [ms]
[INFO] ConstrainPressure: 0.003 [ms]
[INFO] MatrixAssemblyPII: 18.854 [ms]
GAMG:  Solving for p, Initial residual = 0.827636, Final residual = 8.71656e-05, No Iterations 23
[INFO] SolveP: 820.241 [ms]
time step continuity errors : sum local = 1.31017e-08, global = 1.20257e-21, cumulative = -5.04671e-22
[INFO] ContinuityError: 6.361 [ms]
[INFO] CorrectBoundary: 1.494 [ms]
[INFO] PISOStep: 940.776 [ms]
[INFO] MatrixAssemblyPI: 64.226 [ms]
[INFO] AdjustPhi: 5.814 [ms]
[INFO] ConstrainPressure: 0.003 [ms]
[INFO] MatrixAssemblyPII: 19.083 [ms]
GAMG:  Solving for p, Initial residual = 0.770591, Final residual = 8.99577e-05, No Iterations 26
[INFO] SolveP: 909.134 [ms]
time step continuity errors : sum local = 1.36955e-08, global = -2.1424e-22, cumulative = -7.1891e-22
[INFO] ContinuityError: 6.157 [ms]
[INFO] CorrectBoundary: 0.641 [ms]
[INFO] PISOStep: 1029.86 [ms]
[INFO] TimeStep: 2502.67 [ms]
ExecutionTime = 5.59 s  ClockTime = 5 s

Time = 0.00075

Courant Number mean: 0.0243229 max: 0.472083
[INFO] MatrixAssemblyU: 59.485 [ms]
DILUPBiCGStab:  Solving for Ux, Initial residual = 0.054777, Final residual = 0.00194191, No Iterations 5
DILUPBiCGStab:  Solving for Uy, Initial residual = 0.182459, Final residual = 0.007977, No Iterations 5
DILUPBiCGStab:  Solving for Uz, Initial residual = 0.817174, Final residual = 0.031079, No Iterations 5
[INFO] MomentumPredictor: 452.985 [ms]
[INFO] MatrixAssemblyPI: 66.862 [ms]
[INFO] AdjustPhi: 3.509 [ms]
[INFO] ConstrainPressure: 0.003 [ms]
[INFO] MatrixAssemblyPII: 18.823 [ms]
GAMG:  Solving for p, Initial residual = 0.850043, Final residual = 9.02415e-05, No Iterations 25
[INFO] SolveP: 868.57 [ms]
time step continuity errors : sum local = 1.22395e-08, global = 8.0526e-22, cumulative = 8.63499e-23
[INFO] ContinuityError: 5.955 [ms]
[INFO] CorrectBoundary: 0.281 [ms]
[INFO] PISOStep: 988.796 [ms]
[INFO] MatrixAssemblyPI: 65.012 [ms]
[INFO] AdjustPhi: 3.828 [ms]
[INFO] ConstrainPressure: 0.002 [ms]
[INFO] MatrixAssemblyPII: 19.425 [ms]
GAMG:  Solving for p, Initial residual = 0.816316, Final residual = 9.29767e-05, No Iterations 23
[INFO] SolveP: 798.519 [ms]
time step continuity errors : sum local = 1.23398e-08, global = 8.12627e-22, cumulative = 8.98977e-22
[INFO] ContinuityError: 6.066 [ms]
[INFO] CorrectBoundary: 0.598 [ms]
[INFO] PISOStep: 917.873 [ms]
[INFO] TimeStep: 2426.73 [ms]
ExecutionTime = 8 s  ClockTime = 8 s

Time = 0.001

Courant Number mean: 0.0291871 max: 0.467785
[INFO] MatrixAssemblyU: 61.123 [ms]
DILUPBiCGStab:  Solving for Ux, Initial residual = 0.0347161, Final residual = 0.00129461, No Iterations 5
DILUPBiCGStab:  Solving for Uy, Initial residual = 0.129217, Final residual = 0.00499179, No Iterations 5
DILUPBiCGStab:  Solving for Uz, Initial residual = 0.660425, Final residual = 0.0232318, No Iterations 5
[INFO] MomentumPredictor: 454.071 [ms]
[INFO] MatrixAssemblyPI: 65.89 [ms]
[INFO] AdjustPhi: 5.255 [ms]
[INFO] ConstrainPressure: 0.002 [ms]
[INFO] MatrixAssemblyPII: 19.425 [ms]
GAMG:  Solving for p, Initial residual = 0.773183, Final residual = 9.08688e-05, No Iterations 32
[INFO] SolveP: 1132.55 [ms]
time step continuity errors : sum local = 1.12531e-08, global = -1.8913e-21, cumulative = -9.92319e-22
[INFO] ContinuityError: 6.119 [ms]
[INFO] CorrectBoundary: 0.466 [ms]
[INFO] PISOStep: 1255.97 [ms]
[INFO] MatrixAssemblyPI: 63.183 [ms]
[INFO] AdjustPhi: 4.304 [ms]
[INFO] ConstrainPressure: 0.002 [ms]
[INFO] MatrixAssemblyPII: 19.608 [ms]
GAMG:  Solving for p, Initial residual = 0.710365, Final residual = 6.41438e-05, No Iterations 29
[INFO] SolveP: 1004.65 [ms]
time step continuity errors : sum local = 8.04004e-09, global = -8.98809e-22, cumulative = -1.89113e-21
[INFO] ContinuityError: 6.11 [ms]
[INFO] CorrectBoundary: 0.274 [ms]
[INFO] PISOStep: 1121.75 [ms]
[INFO] TimeStep: 2900.55 [ms]
ExecutionTime = 10.88 s  ClockTime = 11 s

Time = 0.00125

Courant Number mean: 0.0333277 max: 0.472992
[INFO] MatrixAssemblyU: 61.552 [ms]
DILUPBiCGStab:  Solving for Ux, Initial residual = 0.0271536, Final residual = 0.000948761, No Iterations 5
DILUPBiCGStab:  Solving for Uy, Initial residual = 0.081504, Final residual = 0.00369928, No Iterations 5
DILUPBiCGStab:  Solving for Uz, Initial residual = 0.565332, Final residual = 0.0245793, No Iterations 5
[INFO] MomentumPredictor: 443.92 [ms]
[INFO] MatrixAssemblyPI: 66.764 [ms]
[INFO] AdjustPhi: 3.525 [ms]
[INFO] ConstrainPressure: 0.003 [ms]
[INFO] MatrixAssemblyPII: 19.453 [ms]
GAMG:  Solving for p, Initial residual = 0.777541, Final residual = 7.63984e-05, No Iterations 24
[INFO] SolveP: 839.972 [ms]
time step continuity errors : sum local = 7.81497e-09, global = -6.86444e-22, cumulative = -2.57757e-21
[INFO] ContinuityError: 6.219 [ms]
[INFO] CorrectBoundary: 0.454 [ms]
[INFO] PISOStep: 960.032 [ms]
[INFO] MatrixAssemblyPI: 64.734 [ms]
[INFO] AdjustPhi: 4.058 [ms]
[INFO] ConstrainPressure: 0.002 [ms]
[INFO] MatrixAssemblyPII: 19.392 [ms]
GAMG:  Solving for p, Initial residual = 0.726628, Final residual = 6.93014e-05, No Iterations 27
[INFO] SolveP: 947.465 [ms]
time step continuity errors : sum local = 6.96323e-09, global = -2.53978e-21, cumulative = -5.11735e-21
[INFO] ContinuityError: 6.154 [ms]
[INFO] CorrectBoundary: 0.308 [ms]
[INFO] PISOStep: 1066.47 [ms]
[INFO] TimeStep: 2539.68 [ms]
ExecutionTime = 13.4 s  ClockTime = 13 s

Time = 0.0015

Courant Number mean: 0.0366263 max: 0.475589
[INFO] MatrixAssemblyU: 61.324 [ms]
DILUPBiCGStab:  Solving for Ux, Initial residual = 0.0204471, Final residual = 0.000683912, No Iterations 5
DILUPBiCGStab:  Solving for Uy, Initial residual = 0.0659706, Final residual = 0.00256821, No Iterations 5
DILUPBiCGStab:  Solving for Uz, Initial residual = 0.405895, Final residual = 0.0152122, No Iterations 5
[INFO] MomentumPredictor: 444.001 [ms]
[INFO] MatrixAssemblyPI: 65.702 [ms]
[INFO] AdjustPhi: 4.491 [ms]
[INFO] ConstrainPressure: 0.003 [ms]
[INFO] MatrixAssemblyPII: 19.375 [ms]
GAMG:  Solving for p, Initial residual = 0.686159, Final residual = 6.82035e-05, No Iterations 29
[INFO] SolveP: 1000.4 [ms]
time step continuity errors : sum local = 6.41279e-09, global = -2.12557e-21, cumulative = -7.24292e-21
[INFO] ContinuityError: 6.039 [ms]
[INFO] CorrectBoundary: 0.241 [ms]
[INFO] PISOStep: 1120.05 [ms]
[INFO] MatrixAssemblyPI: 64.525 [ms]
[INFO] AdjustPhi: 4.271 [ms]
[INFO] ConstrainPressure: 0.002 [ms]
[INFO] MatrixAssemblyPII: 19.395 [ms]
GAMG:  Solving for p, Initial residual = 0.625698, Final residual = 9.43631e-05, No Iterations 26
[INFO] SolveP: 900 [ms]
time step continuity errors : sum local = 8.90363e-09, global = -2.35878e-21, cumulative = -9.60171e-21
[INFO] ContinuityError: 6.077 [ms]
[INFO] CorrectBoundary: 0.357 [ms]
[INFO] PISOStep: 1019.38 [ms]
[INFO] TimeStep: 2652.36 [ms]
ExecutionTime = 16.04 s  ClockTime = 16 s

Time = 0.00175

Courant Number mean: 0.0395408 max: 0.47752
[INFO] MatrixAssemblyU: 60.908 [ms]
DILUPBiCGStab:  Solving for Ux, Initial residual = 0.0174684, Final residual = 0.000549686, No Iterations 5
DILUPBiCGStab:  Solving for Uy, Initial residual = 0.0490901, Final residual = 0.00187538, No Iterations 5
DILUPBiCGStab:  Solving for Uz, Initial residual = 0.3387, Final residual = 0.0164886, No Iterations 5
[INFO] MomentumPredictor: 443.978 [ms]
[INFO] MatrixAssemblyPI: 65.494 [ms]
[INFO] AdjustPhi: 5.14 [ms]
[INFO] ConstrainPressure: 0.003 [ms]
[INFO] MatrixAssemblyPII: 19.408 [ms]
GAMG:  Solving for p, Initial residual = 0.681586, Final residual = 9.36955e-05, No Iterations 23
[INFO] SolveP: 808.526 [ms]
time step continuity errors : sum local = 7.36953e-09, global = -3.17061e-21, cumulative = -1.27723e-20
[INFO] ContinuityError: 7.023 [ms]
[INFO] CorrectBoundary: 0.483 [ms]
[INFO] PISOStep: 929.816 [ms]
[INFO] MatrixAssemblyPI: 62.304 [ms]
[INFO] AdjustPhi: 6.819 [ms]
[INFO] ConstrainPressure: 0.003 [ms]
[INFO] MatrixAssemblyPII: 17.852 [ms]
GAMG:  Solving for p, Initial residual = 0.622554, Final residual = 7.47387e-05, No Iterations 21
[INFO] SolveP: 730.475 [ms]
time step continuity errors : sum local = 5.85862e-09, global = -1.56495e-21, cumulative = -1.43373e-20
[INFO] ContinuityError: 5.524 [ms]
[INFO] CorrectBoundary: 0.174 [ms]
[INFO] PISOStep: 849.98 [ms]
[INFO] TimeStep: 2292.29 [ms]
ExecutionTime = 18.32 s  ClockTime = 18 s

Time = 0.002

Courant Number mean: 0.0420654 max: 0.479227
[INFO] MatrixAssemblyU: 62.971 [ms]
DILUPBiCGStab:  Solving for Ux, Initial residual = 0.0143129, Final residual = 0.000425416, No Iterations 5
DILUPBiCGStab:  Solving for Uy, Initial residual = 0.0418327, Final residual = 0.00146392, No Iterations 5
DILUPBiCGStab:  Solving for Uz, Initial residual = 0.263233, Final residual = 0.0114487, No Iterations 5
[INFO] MomentumPredictor: 444.252 [ms]
[INFO] MatrixAssemblyPI: 67.311 [ms]
[INFO] AdjustPhi: 3.365 [ms]
[INFO] ConstrainPressure: 0.003 [ms]
[INFO] MatrixAssemblyPII: 19.439 [ms]
GAMG:  Solving for p, Initial residual = 0.591707, Final residual = 9.71076e-05, No Iterations 33
[INFO] SolveP: 1139.05 [ms]
time step continuity errors : sum local = 7.26393e-09, global = -2.94673e-21, cumulative = -1.7284e-20
[INFO] ContinuityError: 5.725 [ms]
[INFO] CorrectBoundary: 1.101 [ms]
[INFO] PISOStep: 1259.55 [ms]
[INFO] MatrixAssemblyPI: 62.601 [ms]
[INFO] AdjustPhi: 4.94 [ms]
[INFO] ConstrainPressure: 0.003 [ms]
[INFO] MatrixAssemblyPII: 19.424 [ms]
GAMG:  Solving for p, Initial residual = 0.534592, Final residual = 9.68698e-05, No Iterations 37
[INFO] SolveP: 1280.71 [ms]
time step continuity errors : sum local = 7.23078e-09, global = -2.86367e-21, cumulative = -2.01477e-20
[INFO] ContinuityError: 6.323 [ms]
[INFO] CorrectBoundary: 0.252 [ms]
[INFO] PISOStep: 1397.92 [ms]
[INFO] TimeStep: 3171.96 [ms]
ExecutionTime = 21.48 s  ClockTime = 21 s

Time = 0.00225

Courant Number mean: 0.0443508 max: 0.480371
[INFO] MatrixAssemblyU: 61.223 [ms]
DILUPBiCGStab:  Solving for Ux, Initial residual = 0.0125925, Final residual = 0.00035215, No Iterations 5
DILUPBiCGStab:  Solving for Uy, Initial residual = 0.0337177, Final residual = 0.00103777, No Iterations 5
DILUPBiCGStab:  Solving for Uz, Initial residual = 0.233122, Final residual = 0.0126679, No Iterations 5
[INFO] MomentumPredictor: 443.947 [ms]
[INFO] MatrixAssemblyPI: 67.04 [ms]
[INFO] AdjustPhi: 3.652 [ms]
[INFO] ConstrainPressure: 0.002 [ms]
[INFO] MatrixAssemblyPII: 19.523 [ms]
GAMG:  Solving for p, Initial residual = 0.578684, Final residual = 8.98668e-05, No Iterations 18
[INFO] SolveP: 623.43 [ms]
time step continuity errors : sum local = 5.81013e-09, global = -1.2805e-21, cumulative = -2.14282e-20
[INFO] ContinuityError: 5.52 [ms]
[INFO] CorrectBoundary: 0.302 [ms]
[INFO] PISOStep: 743.539 [ms]
[INFO] MatrixAssemblyPI: 63.839 [ms]
[INFO] AdjustPhi: 4.995 [ms]
[INFO] ConstrainPressure: 0.002 [ms]
[INFO] MatrixAssemblyPII: 19.649 [ms]
GAMG:  Solving for p, Initial residual = 0.518518, Final residual = 9.12779e-05, No Iterations 18
[INFO] SolveP: 627.149 [ms]
time step continuity errors : sum local = 5.91856e-09, global = -3.7208e-21, cumulative = -2.5149e-20
[INFO] ContinuityError: 6.024 [ms]
[INFO] CorrectBoundary: 0.285 [ms]
[INFO] PISOStep: 746.032 [ms]
[INFO] TimeStep: 2002.52 [ms]
ExecutionTime = 23.47 s  ClockTime = 23 s

Time = 0.0025

Courant Number mean: 0.0464053 max: 0.481479
[INFO] MatrixAssemblyU: 60.572 [ms]
DILUPBiCGStab:  Solving for Ux, Initial residual = 0.0108433, Final residual = 0.000285333, No Iterations 5
DILUPBiCGStab:  Solving for Uy, Initial residual = 0.0295383, Final residual = 0.000852125, No Iterations 5
DILUPBiCGStab:  Solving for Uz, Initial residual = 0.18498, Final residual = 0.00892663, No Iterations 5
[INFO] MomentumPredictor: 466.977 [ms]
[INFO] MatrixAssemblyPI: 63.53 [ms]
[INFO] AdjustPhi: 6.84 [ms]
[INFO] ConstrainPressure: 0.003 [ms]
[INFO] MatrixAssemblyPII: 17.689 [ms]
GAMG:  Solving for p, Initial residual = 0.502849, Final residual = 7.68946e-05, No Iterations 23
[INFO] SolveP: 799.838 [ms]
time step continuity errors : sum local = 4.8333e-09, global = -2.16618e-23, cumulative = -2.51706e-20
[INFO] ContinuityError: 5.283 [ms]
[INFO] CorrectBoundary: 0.246 [ms]
[INFO] PISOStep: 921.023 [ms]
[INFO] MatrixAssemblyPI: 63.559 [ms]
[INFO] AdjustPhi: 4.757 [ms]
[INFO] ConstrainPressure: 0.003 [ms]
[INFO] MatrixAssemblyPII: 19.443 [ms]
GAMG:  Solving for p, Initial residual = 0.450506, Final residual = 9.13324e-05, No Iterations 39
[INFO] SolveP: 1336.04 [ms]
time step continuity errors : sum local = 5.72976e-09, global = -2.69397e-21, cumulative = -2.78646e-20
[INFO] ContinuityError: 5.672 [ms]
[INFO] CorrectBoundary: 0.317 [ms]
[INFO] PISOStep: 1453.9 [ms]
[INFO] TimeStep: 2909.63 [ms]
ExecutionTime = 26.36 s  ClockTime = 26 s

Time = 0.00275

Courant Number mean: 0.048294 max: 0.482248
[INFO] MatrixAssemblyU: 60.672 [ms]
DILUPBiCGStab:  Solving for Ux, Initial residual = 0.00971247, Final residual = 0.000240573, No Iterations 5
DILUPBiCGStab:  Solving for Uy, Initial residual = 0.0250132, Final residual = 0.000620901, No Iterations 5
DILUPBiCGStab:  Solving for Uz, Initial residual = 0.157795, Final residual = 0.00858884, No Iterations 5
[INFO] MomentumPredictor: 443.973 [ms]
[INFO] MatrixAssemblyPI: 66.491 [ms]
[INFO] AdjustPhi: 3.539 [ms]
[INFO] ConstrainPressure: 0.002 [ms]
[INFO] MatrixAssemblyPII: 19.513 [ms]
GAMG:  Solving for p, Initial residual = 0.478225, Final residual = 5.63539e-05, No Iterations 23
[INFO] SolveP: 793.667 [ms]
time step continuity errors : sum local = 3.20808e-09, global = -2.65628e-21, cumulative = -3.05209e-20
[INFO] ContinuityError: 5.545 [ms]
[INFO] CorrectBoundary: 0.338 [ms]
[INFO] PISOStep: 913.246 [ms]
[INFO] MatrixAssemblyPI: 65.043 [ms]
[INFO] AdjustPhi: 3.732 [ms]
[INFO] ConstrainPressure: 0.002 [ms]
[INFO] MatrixAssemblyPII: 19.571 [ms]
GAMG:  Solving for p, Initial residual = 0.424467, Final residual = 7.76992e-05, No Iterations 22
[INFO] SolveP: 761.837 [ms]
time step continuity errors : sum local = 4.40618e-09, global = -2.07409e-21, cumulative = -3.2595e-20
[INFO] ContinuityError: 5.888 [ms]
[INFO] CorrectBoundary: 0.257 [ms]
[INFO] PISOStep: 880.183 [ms]
[INFO] TimeStep: 2305.25 [ms]
ExecutionTime = 28.65 s  ClockTime = 28 s

Time = 0.003

Courant Number mean: 0.0500279 max: 0.483033
[INFO] MatrixAssemblyU: 61.121 [ms]
DILUPBiCGStab:  Solving for Ux, Initial residual = 0.0086249, Final residual = 0.000201587, No Iterations 5
DILUPBiCGStab:  Solving for Uy, Initial residual = 0.022343, Final residual = 0.000512692, No Iterations 5
DILUPBiCGStab:  Solving for Uz, Initial residual = 0.122401, Final residual = 0.00590383, No Iterations 5
[INFO] MomentumPredictor: 444.139 [ms]
[INFO] MatrixAssemblyPI: 66.789 [ms]
[INFO] AdjustPhi: 4.135 [ms]
[INFO] ConstrainPressure: 0.003 [ms]
[INFO] MatrixAssemblyPII: 19.495 [ms]
GAMG:  Solving for p, Initial residual = 0.421201, Final residual = 9.5126e-05, No Iterations 27
[INFO] SolveP: 929.829 [ms]
time step continuity errors : sum local = 5.24651e-09, global = -1.56554e-21, cumulative = -3.41605e-20
[INFO] ContinuityError: 5.541 [ms]
[INFO] CorrectBoundary: 0.271 [ms]
[INFO] PISOStep: 1050.06 [ms]
[INFO] MatrixAssemblyPI: 64.296 [ms]
[INFO] AdjustPhi: 4.057 [ms]
[INFO] ConstrainPressure: 0.003 [ms]
[INFO] MatrixAssemblyPII: 19.66 [ms]
GAMG:  Solving for p, Initial residual = 0.374873, Final residual = 7.98098e-05, No Iterations 21
[INFO] SolveP: 724.531 [ms]
time step continuity errors : sum local = 4.37219e-09, global = -2.36163e-21, cumulative = -3.65221e-20
[INFO] ContinuityError: 6.437 [ms]
[INFO] CorrectBoundary: 0.273 [ms]
[INFO] PISOStep: 842.58 [ms]
[INFO] TimeStep: 2405.19 [ms]
ExecutionTime = 31.04 s  ClockTime = 31 s

Time = 0.00325

Courant Number mean: 0.0516388 max: 0.483595
[INFO] MatrixAssemblyU: 60.861 [ms]
DILUPBiCGStab:  Solving for Ux, Initial residual = 0.00782688, Final residual = 0.000172202, No Iterations 5
DILUPBiCGStab:  Solving for Uy, Initial residual = 0.0195566, Final residual = 0.000403082, No Iterations 5
DILUPBiCGStab:  Solving for Uz, Initial residual = 0.113783, Final residual = 0.00642557, No Iterations 5
[INFO] MomentumPredictor: 446.681 [ms]
[INFO] MatrixAssemblyPI: 65.6 [ms]
[INFO] AdjustPhi: 4.574 [ms]
[INFO] ConstrainPressure: 0.003 [ms]
[INFO] MatrixAssemblyPII: 19.396 [ms]
GAMG:  Solving for p, Initial residual = 0.391015, Final residual = 8.77847e-05, No Iterations 27
[INFO] SolveP: 964.662 [ms]
time step continuity errors : sum local = 4.53471e-09, global = -1.04168e-21, cumulative = -3.75638e-20
[INFO] ContinuityError: 6.357 [ms]
[INFO] CorrectBoundary: 0.393 [ms]
[INFO] PISOStep: 1085.33 [ms]
[INFO] MatrixAssemblyPI: 64.822 [ms]
[INFO] AdjustPhi: 3.191 [ms]
[INFO] ConstrainPressure: 0.002 [ms]
[INFO] MatrixAssemblyPII: 19.542 [ms]
GAMG:  Solving for p, Initial residual = 0.345056, Final residual = 9.39214e-05, No Iterations 24
[INFO] SolveP: 826.481 [ms]
time step continuity errors : sum local = 4.84107e-09, global = -4.25569e-21, cumulative = -4.18195e-20
[INFO] ContinuityError: 5.669 [ms]
[INFO] CorrectBoundary: 0.417 [ms]
[INFO] PISOStep: 945.268 [ms]
[INFO] TimeStep: 2545.55 [ms]
ExecutionTime = 33.57 s  ClockTime = 33 s

Time = 0.0035

Courant Number mean: 0.0531352 max: 0.484192
[INFO] MatrixAssemblyU: 60.521 [ms]
DILUPBiCGStab:  Solving for Ux, Initial residual = 0.00709549, Final residual = 0.000147667, No Iterations 5
DILUPBiCGStab:  Solving for Uy, Initial residual = 0.0177331, Final residual = 0.000334696, No Iterations 5
DILUPBiCGStab:  Solving for Uz, Initial residual = 0.10061, Final residual = 0.00531136, No Iterations 5
[INFO] MomentumPredictor: 444.44 [ms]
[INFO] MatrixAssemblyPI: 65.332 [ms]
[INFO] AdjustPhi: 5.051 [ms]
[INFO] ConstrainPressure: 0.003 [ms]
[INFO] MatrixAssemblyPII: 19.456 [ms]
GAMG:  Solving for p, Initial residual = 0.34933, Final residual = 9.8622e-05, No Iterations 21
[INFO] SolveP: 726.672 [ms]
time step continuity errors : sum local = 4.909e-09, global = -4.27943e-21, cumulative = -4.60989e-20
[INFO] ContinuityError: 5.535 [ms]
[INFO] CorrectBoundary: 0.363 [ms]
[INFO] PISOStep: 846.538 [ms]
[INFO] MatrixAssemblyPI: 63.894 [ms]
[INFO] AdjustPhi: 4.583 [ms]
[INFO] ConstrainPressure: 0.002 [ms]
[INFO] MatrixAssemblyPII: 19.648 [ms]
GAMG:  Solving for p, Initial residual = 0.309946, Final residual = 9.24236e-05, No Iterations 29
[INFO] SolveP: 995.49 [ms]
time step continuity errors : sum local = 4.59538e-09, global = -3.65938e-21, cumulative = -4.97583e-20
[INFO] ContinuityError: 5.629 [ms]
[INFO] CorrectBoundary: 0.352 [ms]
[INFO] PISOStep: 1113.69 [ms]
[INFO] TimeStep: 2472.49 [ms]
ExecutionTime = 36.03 s  ClockTime = 36 s

Time = 0.00375

Courant Number mean: 0.0545382 max: 0.484635
[INFO] MatrixAssemblyU: 60.579 [ms]
DILUPBiCGStab:  Solving for Ux, Initial residual = 0.00650519, Final residual = 0.000127452, No Iterations 5
DILUPBiCGStab:  Solving for Uy, Initial residual = 0.0158833, Final residual = 0.000287783, No Iterations 5
DILUPBiCGStab:  Solving for Uz, Initial residual = 0.0911872, Final residual = 0.00499078, No Iterations 5
[INFO] MomentumPredictor: 444.106 [ms]
[INFO] MatrixAssemblyPI: 67.022 [ms]
[INFO] AdjustPhi: 3.246 [ms]
[INFO] ConstrainPressure: 0.002 [ms]
[INFO] MatrixAssemblyPII: 18.923 [ms]
GAMG:  Solving for p, Initial residual = 0.317141, Final residual = 5.86187e-05, No Iterations 23
[INFO] SolveP: 802.574 [ms]
time step continuity errors : sum local = 2.81182e-09, global = -5.77443e-21, cumulative = -5.55328e-20
[INFO] ContinuityError: 5.841 [ms]
[INFO] CorrectBoundary: 0.829 [ms]
[INFO] PISOStep: 923.173 [ms]
[INFO] MatrixAssemblyPI: 64.59 [ms]
[INFO] AdjustPhi: 4.43 [ms]
[INFO] ConstrainPressure: 0.002 [ms]
[INFO] MatrixAssemblyPII: 19.499 [ms]
GAMG:  Solving for p, Initial residual = 0.279322, Final residual = 8.50745e-05, No Iterations 27
[INFO] SolveP: 936.791 [ms]
time step continuity errors : sum local = 4.06894e-09, global = -3.70489e-21, cumulative = -5.92376e-20
[INFO] ContinuityError: 6.332 [ms]
[INFO] CorrectBoundary: 0.315 [ms]
[INFO] PISOStep: 1057.22 [ms]
[INFO] TimeStep: 2492.56 [ms]
ExecutionTime = 38.51 s  ClockTime = 38 s

Time = 0.004

Courant Number mean: 0.0558526 max: 0.485095
[INFO] MatrixAssemblyU: 61.2 [ms]
DILUPBiCGStab:  Solving for Ux, Initial residual = 0.00598386, Final residual = 0.000111229, No Iterations 5
DILUPBiCGStab:  Solving for Uy, Initial residual = 0.0145788, Final residual = 0.000244002, No Iterations 5
DILUPBiCGStab:  Solving for Uz, Initial residual = 0.0749083, Final residual = 0.00378649, No Iterations 5
[INFO] MomentumPredictor: 443.842 [ms]
[INFO] MatrixAssemblyPI: 66.699 [ms]
[INFO] AdjustPhi: 3.393 [ms]
[INFO] ConstrainPressure: 0.003 [ms]
[INFO] MatrixAssemblyPII: 19.428 [ms]
GAMG:  Solving for p, Initial residual = 0.285908, Final residual = 7.68964e-05, No Iterations 16
[INFO] SolveP: 555.593 [ms]
time step continuity errors : sum local = 3.54317e-09, global = -3.62882e-21, cumulative = -6.28665e-20
[INFO] ContinuityError: 5.543 [ms]
[INFO] CorrectBoundary: 0.305 [ms]
[INFO] PISOStep: 675.092 [ms]
[INFO] MatrixAssemblyPI: 64.733 [ms]
[INFO] AdjustPhi: 4.212 [ms]
[INFO] ConstrainPressure: 0.003 [ms]
[INFO] MatrixAssemblyPII: 19.618 [ms]
GAMG:  Solving for p, Initial residual = 0.252942, Final residual = 6.1289e-05, No Iterations 16
[INFO] SolveP: 556.308 [ms]
time step continuity errors : sum local = 2.82348e-09, global = -4.72812e-21, cumulative = -6.75946e-20
[INFO] ContinuityError: 5.893 [ms]
[INFO] CorrectBoundary: 0.529 [ms]
[INFO] PISOStep: 675.562 [ms]
[INFO] TimeStep: 1863.45 [ms]
ExecutionTime = 40.36 s  ClockTime = 40 s

Time = 0.00425

Courant Number mean: 0.057092 max: 0.48545
[INFO] MatrixAssemblyU: 60.59 [ms]
DILUPBiCGStab:  Solving for Ux, Initial residual = 0.00553267, Final residual = 9.68985e-05, No Iterations 5
DILUPBiCGStab:  Solving for Uy, Initial residual = 0.0132738, Final residual = 0.00022278, No Iterations 5
DILUPBiCGStab:  Solving for Uz, Initial residual = 0.0617894, Final residual = 0.00313707, No Iterations 5
[INFO] MomentumPredictor: 446.192 [ms]
[INFO] MatrixAssemblyPI: 67.107 [ms]
[INFO] AdjustPhi: 3.109 [ms]
[INFO] ConstrainPressure: 0.002 [ms]
[INFO] MatrixAssemblyPII: 19.469 [ms]
GAMG:  Solving for p, Initial residual = 0.255355, Final residual = 9.69097e-05, No Iterations 25
[INFO] SolveP: 862.805 [ms]
time step continuity errors : sum local = 4.3603e-09, global = -5.07449e-22, cumulative = -6.8102e-20
[INFO] ContinuityError: 5.649 [ms]
[INFO] CorrectBoundary: 0.33 [ms]
[INFO] PISOStep: 982.535 [ms]
[INFO] MatrixAssemblyPI: 64.48 [ms]
[INFO] AdjustPhi: 4.322 [ms]
[INFO] ConstrainPressure: 0.004 [ms]
[INFO] MatrixAssemblyPII: 19.653 [ms]
GAMG:  Solving for p, Initial residual = 0.224352, Final residual = 9.46776e-05, No Iterations 19
[INFO] SolveP: 658.109 [ms]
time step continuity errors : sum local = 4.2683e-09, global = -4.59178e-21, cumulative = -7.26938e-20
[INFO] ContinuityError: 5.593 [ms]
[INFO] CorrectBoundary: 0.332 [ms]
[INFO] PISOStep: 776.513 [ms]
[INFO] TimeStep: 2273.29 [ms]
ExecutionTime = 42.63 s  ClockTime = 42 s

Time = 0.0045

Courant Number mean: 0.0582617 max: 0.485817
[INFO] MatrixAssemblyU: 60.859 [ms]
DILUPBiCGStab:  Solving for Ux, Initial residual = 0.00514254, Final residual = 8.57878e-05, No Iterations 5
DILUPBiCGStab:  Solving for Uy, Initial residual = 0.0123035, Final residual = 0.000193045, No Iterations 5
DILUPBiCGStab:  Solving for Uz, Initial residual = 0.0632092, Final residual = 0.00310961, No Iterations 5
[INFO] MomentumPredictor: 454.988 [ms]
[INFO] MatrixAssemblyPI: 65.776 [ms]
[INFO] AdjustPhi: 5.604 [ms]
[INFO] ConstrainPressure: 0.003 [ms]
[INFO] MatrixAssemblyPII: 19.306 [ms]
GAMG:  Solving for p, Initial residual = 0.23308, Final residual = 7.57001e-05, No Iterations 20
[INFO] SolveP: 713.427 [ms]
time step continuity errors : sum local = 3.27942e-09, global = -4.59096e-21, cumulative = -7.72848e-20
[INFO] ContinuityError: 6.012 [ms]
[INFO] CorrectBoundary: 0.432 [ms]
[INFO] PISOStep: 835.262 [ms]
[INFO] MatrixAssemblyPI: 64.287 [ms]
[INFO] AdjustPhi: 3.497 [ms]
[INFO] ConstrainPressure: 0.002 [ms]
[INFO] MatrixAssemblyPII: 19.681 [ms]
GAMG:  Solving for p, Initial residual = 0.205818, Final residual = 8.48701e-05, No Iterations 21
[INFO] SolveP: 726.406 [ms]
time step continuity errors : sum local = 3.66791e-09, global = -2.76307e-21, cumulative = -8.00479e-20
[INFO] ContinuityError: 5.642 [ms]
[INFO] CorrectBoundary: 0.334 [ms]
[INFO] PISOStep: 843.861 [ms]
[INFO] TimeStep: 2202.1 [ms]
ExecutionTime = 44.81 s  ClockTime = 45 s

Time = 0.00475

Courant Number mean: 0.0593702 max: 0.486125
[INFO] MatrixAssemblyU: 60.542 [ms]
DILUPBiCGStab:  Solving for Ux, Initial residual = 0.00478913, Final residual = 7.55895e-05, No Iterations 5
DILUPBiCGStab:  Solving for Uy, Initial residual = 0.0113381, Final residual = 0.000180364, No Iterations 5
DILUPBiCGStab:  Solving for Uz, Initial residual = 0.0559935, Final residual = 0.00260202, No Iterations 5
[INFO] MomentumPredictor: 444.123 [ms]
[INFO] MatrixAssemblyPI: 66.225 [ms]
[INFO] AdjustPhi: 4.437 [ms]
[INFO] ConstrainPressure: 0.003 [ms]
[INFO] MatrixAssemblyPII: 19.411 [ms]
GAMG:  Solving for p, Initial residual = 0.206481, Final residual = 8.56074e-05, No Iterations 20
[INFO] SolveP: 692.9 [ms]
time step continuity errors : sum local = 3.68163e-09, global = -5.57357e-21, cumulative = -8.56214e-20
[INFO] ContinuityError: 5.653 [ms]
[INFO] CorrectBoundary: 0.541 [ms]
[INFO] PISOStep: 813.783 [ms]
[INFO] MatrixAssemblyPI: 64.793 [ms]
[INFO] AdjustPhi: 3.847 [ms]
[INFO] ConstrainPressure: 0.003 [ms]
[INFO] MatrixAssemblyPII: 19.496 [ms]
GAMG:  Solving for p, Initial residual = 0.181275, Final residual = 6.65676e-05, No Iterations 20
[INFO] SolveP: 695.136 [ms]
time step continuity errors : sum local = 2.85831e-09, global = 4.95979e-22, cumulative = -8.51254e-20
[INFO] ContinuityError: 5.691 [ms]
[INFO] CorrectBoundary: 0.478 [ms]
[INFO] PISOStep: 813.703 [ms]
[INFO] TimeStep: 2139.32 [ms]
ExecutionTime = 46.94 s  ClockTime = 47 s

Time = 0.005

Courant Number mean: 0.0604212 max: 0.486423
[INFO] MatrixAssemblyU: 60.404 [ms]
DILUPBiCGStab:  Solving for Ux, Initial residual = 0.0044868, Final residual = 6.7896e-05, No Iterations 5
DILUPBiCGStab:  Solving for Uy, Initial residual = 0.0105979, Final residual = 0.000159017, No Iterations 5
DILUPBiCGStab:  Solving for Uz, Initial residual = 0.0485379, Final residual = 0.00212055, No Iterations 5
[INFO] MomentumPredictor: 445.452 [ms]
[INFO] MatrixAssemblyPI: 66.593 [ms]
[INFO] AdjustPhi: 4.06 [ms]
[INFO] ConstrainPressure: 0.002 [ms]
[INFO] MatrixAssemblyPII: 19.476 [ms]
GAMG:  Solving for p, Initial residual = 0.187842, Final residual = 9.52359e-05, No Iterations 22
[INFO] SolveP: 761.708 [ms]
time step continuity errors : sum local = 3.93906e-09, global = -3.56072e-21, cumulative = -8.86862e-20
[INFO] ContinuityError: 5.517 [ms]
[INFO] CorrectBoundary: 0.311 [ms]
[INFO] PISOStep: 881.844 [ms]
[INFO] MatrixAssemblyPI: 64.349 [ms]
[INFO] AdjustPhi: 4.54 [ms]
[INFO] ConstrainPressure: 0.003 [ms]
[INFO] MatrixAssemblyPII: 19.612 [ms]
GAMG:  Solving for p, Initial residual = 0.165483, Final residual = 7.84478e-05, No Iterations 21
[INFO] SolveP: 727.771 [ms]
time step continuity errors : sum local = 3.23956e-09, global = -6.26751e-21, cumulative = -9.49537e-20
[INFO] ContinuityError: 5.85 [ms]
[INFO] CorrectBoundary: 0.177 [ms]
[INFO] PISOStep: 846.518 [ms]
[INFO] TimeStep: 2241.61 [ms]
ExecutionTime = 49.17 s  ClockTime = 49 s

End

Finalising parallel run
