/*---------------------------------------------------------------------------*\
| =========                 |                                                 |
| \\      /  F ield         | OpenFOAM: The Open Source CFD Toolbox           |
|  \\    /   O peration     | Version:  2306                                  |
|   \\  /    A nd           | Website:  www.openfoam.com                      |
|    \\/     M anipulation  |                                                 |
\*---------------------------------------------------------------------------*/
Build  : a6e826bd55-20230630 OPENFOAM=2306 version=v2306
Arch   : "LSB;label=32;scalar=64"
Exec   : icoFoam -parallel -case /tmp/lidDrivenCavity/workspace/7648bf4a24494856a6d8ebdba6a13fc6/case
Date   : Dec 17 2023
Time   : 03:10:19
Host   : nla-gpu2.ianm.kit.edu
PID    : 189576
I/O    : uncollated
Case   : /tmp/lidDrivenCavity/workspace/7648bf4a24494856a6d8ebdba6a13fc6/case
nProcs : 16
Hosts  :
(
    (nla-gpu2.ianm.kit.edu 16)
)
Pstream initialized with:
    floatTransfer      : false
    nProcsSimpleSum    : 0
    nonBlockingExchange: 0 (tuning: 0)
    exchange algorithm : -1
    commsType          : nonBlocking
    polling iterations : 0
trapFpe: Floating point exception trapping enabled (FOAM_SIGFPE).
fileModificationChecking : Monitoring run-time modified files using timeStampMaster (fileModificationSkew 5, maxFileModificationPolls 20)
allowSystemOperations : Allowing user-supplied system call operations

// * * * * * * * * * * * * * * * * * * * * * * * * * * * * * * * * * * * * * //
Create time

--> FOAM Warning : 
    From void* Foam::dlLibraryTable::openLibrary(const Foam::fileName&, bool)
    in file db/dynamicLibrary/dlLibraryTable/dlLibraryTable.C at line 188
    Could not load "libpetscFoam.so"
libpetscFoam.so: cannot open shared object file: No such file or directory
Create mesh for time = 0


PISO: Operating solver in PISO mode

Reading transportProperties

Reading field p

Reading field U

Reading/calculating face flux field phi


Starting time loop

Time = 0.000125

Courant Number mean: 8.02505e-18 max: 4.85723e-14
[INFO] MatrixAssemblyU: 581.442 [ms]
DILUPBiCGStab:  Solving for Ux, Initial residual = 1, Final residual = 0.0215184, No Iterations 5
DILUPBiCGStab:  Solving for Uy:  solution singularity
DILUPBiCGStab:  Solving for Uz:  solution singularity
[INFO] MomentumPredictor: 2278.86 [ms]
[INFO] MatrixAssemblyPI: 591.012 [ms]
[INFO] AdjustPhi: 29.575 [ms]
[INFO] ConstrainPressure: 0.02 [ms]
[INFO] MatrixAssemblyPII: 168.631 [ms]
DICPCG:  Solving for p, Initial residual = 1, Final residual = 9.92561e-05, No Iterations 1227
[INFO] SolveP: 133052 [ms]
time step continuity errors : sum local = 2.51789e-09, global = 5.63384e-22, cumulative = 5.63384e-22
[INFO] ContinuityError: 70.158 [ms]
[INFO] CorrectBoundary: 1.716 [ms]
[INFO] PISOStep: 134101 [ms]
[INFO] MatrixAssemblyPI: 557.532 [ms]
[INFO] AdjustPhi: 30.372 [ms]
[INFO] ConstrainPressure: 0.004 [ms]
[INFO] MatrixAssemblyPII: 168.453 [ms]
DICPCG:  Solving for p, Initial residual = 0.822082, Final residual = 9.71573e-05, No Iterations 1224
[INFO] SolveP: 132337 [ms]
time step continuity errors : sum local = 2.96949e-09, global = 2.92573e-22, cumulative = 8.55957e-22
[INFO] ContinuityError: 68.927 [ms]
[INFO] CorrectBoundary: 1.617 [ms]
[INFO] PISOStep: 133351 [ms]
[INFO] TimeStep: 270382 [ms]
ExecutionTime = 271.81 s  ClockTime = 273 s

Time = 0.00025

Courant Number mean: 0.0108529 max: 0.437705
[INFO] MatrixAssemblyU: 499.408 [ms]
DILUPBiCGStab:  Solving for Ux, Initial residual = 0.108167, Final residual = 0.0134444, No Iterations 5
DILUPBiCGStab:  Solving for Uy, Initial residual = 0.484639, Final residual = 0.052171, No Iterations 5
DILUPBiCGStab:  Solving for Uz, Initial residual = 0.990101, Final residual = 0.118572, No Iterations 5
[INFO] MomentumPredictor: 4164.4 [ms]
[INFO] MatrixAssemblyPI: 572.82 [ms]
[INFO] AdjustPhi: 32.373 [ms]
[INFO] ConstrainPressure: 0.005 [ms]
[INFO] MatrixAssemblyPII: 168.234 [ms]
DICPCG:  Solving for p, Initial residual = 0.906411, Final residual = 9.99119e-05, No Iterations 669
[INFO] SolveP: 72523.1 [ms]
time step continuity errors : sum local = 7.85297e-09, global = 1.72002e-22, cumulative = 1.02796e-21
[INFO] ContinuityError: 68.943 [ms]
[INFO] CorrectBoundary: 1.586 [ms]
[INFO] PISOStep: 73555.4 [ms]
[INFO] MatrixAssemblyPI: 558.957 [ms]
[INFO] AdjustPhi: 29.32 [ms]
[INFO] ConstrainPressure: 0.004 [ms]
[INFO] MatrixAssemblyPII: 169.549 [ms]
DICPCG:  Solving for p, Initial residual = 0.857691, Final residual = 9.99427e-05, No Iterations 657
[INFO] SolveP: 71259.8 [ms]
time step continuity errors : sum local = 7.39843e-09, global = 2.49473e-22, cumulative = 1.27743e-21
[INFO] ContinuityError: 71.709 [ms]
[INFO] CorrectBoundary: 1.464 [ms]
[INFO] PISOStep: 72278.6 [ms]
[INFO] TimeStep: 150564 [ms]
ExecutionTime = 421.76 s  ClockTime = 423 s

Time = 0.000375

Courant Number mean: 0.0169458 max: 0.511446
[INFO] MatrixAssemblyU: 497.618 [ms]
DILUPBiCGStab:  Solving for Ux, Initial residual = 0.0536192, Final residual = 0.00541891, No Iterations 5
DILUPBiCGStab:  Solving for Uy, Initial residual = 0.262082, Final residual = 0.0264102, No Iterations 5
DILUPBiCGStab:  Solving for Uz, Initial residual = 0.872459, Final residual = 0.0879898, No Iterations 5
[INFO] MomentumPredictor: 4164.99 [ms]
[INFO] MatrixAssemblyPI: 573.766 [ms]
[INFO] AdjustPhi: 30.11 [ms]
[INFO] ConstrainPressure: 0.005 [ms]
[INFO] MatrixAssemblyPII: 168.175 [ms]
DICPCG:  Solving for p, Initial residual = 0.940942, Final residual = 9.95724e-05, No Iterations 1208
[INFO] SolveP: 130903 [ms]
time step continuity errors : sum local = 8.82223e-09, global = 1.35045e-22, cumulative = 1.41248e-21
[INFO] ContinuityError: 69.316 [ms]
[INFO] CorrectBoundary: 4.855 [ms]
[INFO] PISOStep: 131934 [ms]
[INFO] MatrixAssemblyPI: 559.067 [ms]
[INFO] AdjustPhi: 30.051 [ms]
[INFO] ConstrainPressure: 0.005 [ms]
[INFO] MatrixAssemblyPII: 168.824 [ms]
DICPCG:  Solving for p, Initial residual = 0.908634, Final residual = 9.57965e-05, No Iterations 1208
[INFO] SolveP: 130690 [ms]
time step continuity errors : sum local = 8.42414e-09, global = 5.72002e-22, cumulative = 1.98448e-21
[INFO] ContinuityError: 68.845 [ms]
[INFO] CorrectBoundary: 3.479 [ms]
[INFO] PISOStep: 131708 [ms]
[INFO] TimeStep: 268373 [ms]
ExecutionTime = 689.04 s  ClockTime = 691 s

Time = 0.0005

Courant Number mean: 0.0205558 max: 0.477571
[INFO] MatrixAssemblyU: 497.919 [ms]
DILUPBiCGStab:  Solving for Ux, Initial residual = 0.0416645, Final residual = 0.00504774, No Iterations 5
DILUPBiCGStab:  Solving for Uy, Initial residual = 0.21391, Final residual = 0.0241221, No Iterations 5
DILUPBiCGStab:  Solving for Uz, Initial residual = 0.781785, Final residual = 0.0627267, No Iterations 5
[INFO] MomentumPredictor: 4170.02 [ms]
[INFO] MatrixAssemblyPI: 574.333 [ms]
[INFO] AdjustPhi: 30.294 [ms]
[INFO] ConstrainPressure: 0.005 [ms]
[INFO] MatrixAssemblyPII: 168.151 [ms]
DICPCG:  Solving for p, Initial residual = 0.937569, Final residual = 9.65994e-05, No Iterations 1204
[INFO] SolveP: 130648 [ms]
time step continuity errors : sum local = 1.0431e-08, global = 7.25618e-22, cumulative = 2.7101e-21
[INFO] ContinuityError: 68.122 [ms]
[INFO] CorrectBoundary: 2.236 [ms]
[INFO] PISOStep: 131679 [ms]
[INFO] MatrixAssemblyPI: 558.132 [ms]
[INFO] AdjustPhi: 32.509 [ms]
[INFO] ConstrainPressure: 0.004 [ms]
[INFO] MatrixAssemblyPII: 168.089 [ms]
DICPCG:  Solving for p, Initial residual = 0.879908, Final residual = 9.85655e-05, No Iterations 569
[INFO] SolveP: 61725.1 [ms]
time step continuity errors : sum local = 1.26154e-08, global = 4.17519e-22, cumulative = 3.12762e-21
[INFO] ContinuityError: 69.291 [ms]
[INFO] CorrectBoundary: 1.67 [ms]
[INFO] PISOStep: 62743.8 [ms]
[INFO] TimeStep: 199158 [ms]
ExecutionTime = 887.33 s  ClockTime = 891 s

Time = 0.000625

Courant Number mean: 0.0236277 max: 0.556009
[INFO] MatrixAssemblyU: 495.369 [ms]
DILUPBiCGStab:  Solving for Ux, Initial residual = 0.0374653, Final residual = 0.00452265, No Iterations 5
DILUPBiCGStab:  Solving for Uy, Initial residual = 0.186072, Final residual = 0.0204423, No Iterations 5
DILUPBiCGStab:  Solving for Uz, Initial residual = 0.767337, Final residual = 0.0618433, No Iterations 5
[INFO] MomentumPredictor: 4169.78 [ms]
[INFO] MatrixAssemblyPI: 574.046 [ms]
[INFO] AdjustPhi: 30.536 [ms]
[INFO] ConstrainPressure: 0.005 [ms]
[INFO] MatrixAssemblyPII: 168.277 [ms]
DICPCG:  Solving for p, Initial residual = 0.95407, Final residual = 9.54992e-05, No Iterations 1206
[INFO] SolveP: 131675 [ms]
time step continuity errors : sum local = 1.18973e-08, global = 9.2281e-22, cumulative = 4.05043e-21
[INFO] ContinuityError: 70.055 [ms]
[INFO] CorrectBoundary: 2.15 [ms]
[INFO] PISOStep: 132708 [ms]
[INFO] MatrixAssemblyPI: 557.881 [ms]
[INFO] AdjustPhi: 32.665 [ms]
[INFO] ConstrainPressure: 0.004 [ms]
[INFO] MatrixAssemblyPII: 168.546 [ms]
DICPCG:  Solving for p, Initial residual = 0.914853, Final residual = 9.70436e-05, No Iterations 1204
[INFO] SolveP: 130632 [ms]
time step continuity errors : sum local = 1.20223e-08, global = 5.59623e-22, cumulative = 4.61005e-21
[INFO] ContinuityError: 67.967 [ms]
[INFO] CorrectBoundary: 3.526 [ms]
[INFO] PISOStep: 131650 [ms]
[INFO] TimeStep: 269089 [ms]
ExecutionTime = 1155.3 s  ClockTime = 1160 s

Time = 0.00075

Courant Number mean: 0.0259693 max: 0.483356
[INFO] MatrixAssemblyU: 498.396 [ms]
DILUPBiCGStab:  Solving for Ux, Initial residual = 0.0355244, Final residual = 0.00434074, No Iterations 5
DILUPBiCGStab:  Solving for Uy, Initial residual = 0.172022, Final residual = 0.0172856, No Iterations 5
DILUPBiCGStab:  Solving for Uz, Initial residual = 0.703716, Final residual = 0.0474577, No Iterations 5
[INFO] MomentumPredictor: 4175.66 [ms]
[INFO] MatrixAssemblyPI: 571.56 [ms]
[INFO] AdjustPhi: 32.37 [ms]
[INFO] ConstrainPressure: 0.005 [ms]
[INFO] MatrixAssemblyPII: 168.333 [ms]
DICPCG:  Solving for p, Initial residual = 0.951192, Final residual = 9.9747e-05, No Iterations 1197
[INFO] SolveP: 129759 [ms]
time step continuity errors : sum local = 1.43726e-08, global = 1.04951e-21, cumulative = 5.65956e-21
[INFO] ContinuityError: 68.027 [ms]
[INFO] CorrectBoundary: 2.685 [ms]
[INFO] PISOStep: 130789 [ms]
[INFO] MatrixAssemblyPI: 558.569 [ms]
[INFO] AdjustPhi: 33.287 [ms]
[INFO] ConstrainPressure: 0.004 [ms]
[INFO] MatrixAssemblyPII: 168.706 [ms]
DICPCG:  Solving for p, Initial residual = 0.891003, Final residual = 9.99651e-05, No Iterations 1195
[INFO] SolveP: 129292 [ms]
time step continuity errors : sum local = 1.46351e-08, global = 2.43023e-22, cumulative = 5.90258e-21
[INFO] ContinuityError: 69.839 [ms]
[INFO] CorrectBoundary: 1.849 [ms]
[INFO] PISOStep: 130311 [ms]
[INFO] TimeStep: 265842 [ms]
ExecutionTime = 1420.06 s  ClockTime = 1426 s

Time = 0.000875

Courant Number mean: 0.0281664 max: 0.612313
[INFO] MatrixAssemblyU: 498.706 [ms]
DILUPBiCGStab:  Solving for Ux, Initial residual = 0.0351515, Final residual = 0.00414493, No Iterations 5
DILUPBiCGStab:  Solving for Uy, Initial residual = 0.176834, Final residual = 0.0164639, No Iterations 5
DILUPBiCGStab:  Solving for Uz, Initial residual = 0.696853, Final residual = 0.0425527, No Iterations 5
[INFO] MomentumPredictor: 4170.65 [ms]
[INFO] MatrixAssemblyPI: 573.733 [ms]
[INFO] AdjustPhi: 30.318 [ms]
[INFO] ConstrainPressure: 0.004 [ms]
[INFO] MatrixAssemblyPII: 168.769 [ms]
DICPCG:  Solving for p, Initial residual = 0.962192, Final residual = 9.91671e-05, No Iterations 1164
[INFO] SolveP: 126584 [ms]
time step continuity errors : sum local = 1.61986e-08, global = 1.2089e-21, cumulative = 7.11148e-21
[INFO] ContinuityError: 69.348 [ms]
[INFO] CorrectBoundary: 2.134 [ms]
[INFO] PISOStep: 127615 [ms]
[INFO] MatrixAssemblyPI: 558.005 [ms]
[INFO] AdjustPhi: 33.474 [ms]
[INFO] ConstrainPressure: 0.004 [ms]
[INFO] MatrixAssemblyPII: 168.874 [ms]
DICPCG:  Solving for p, Initial residual = 0.917436, Final residual = 9.87588e-05, No Iterations 1163
[INFO] SolveP: 125890 [ms]
time step continuity errors : sum local = 1.60789e-08, global = 3.31635e-22, cumulative = 7.44312e-21
[INFO] ContinuityError: 73.112 [ms]
[INFO] CorrectBoundary: 2.026 [ms]
[INFO] PISOStep: 126912 [ms]
[INFO] TimeStep: 259263 [ms]
ExecutionTime = 1678.23 s  ClockTime = 1685 s

Time = 0.001

Courant Number mean: 0.0299149 max: 0.491029
[INFO] MatrixAssemblyU: 499.799 [ms]
DILUPBiCGStab:  Solving for Ux, Initial residual = 0.0362645, Final residual = 0.00400883, No Iterations 5
DILUPBiCGStab:  Solving for Uy, Initial residual = 0.170324, Final residual = 0.0142571, No Iterations 5
DILUPBiCGStab:  Solving for Uz, Initial residual = 0.685152, Final residual = 0.0402995, No Iterations 5
[INFO] MomentumPredictor: 4183.27 [ms]
[INFO] MatrixAssemblyPI: 573.571 [ms]
[INFO] AdjustPhi: 31.623 [ms]
[INFO] ConstrainPressure: 0.005 [ms]
[INFO] MatrixAssemblyPII: 168.672 [ms]
DICPCG:  Solving for p, Initial residual = 0.960116, Final residual = 9.77903e-05, No Iterations 1167
[INFO] SolveP: 126521 [ms]
time step continuity errors : sum local = 1.83924e-08, global = 4.34658e-22, cumulative = 7.87777e-21
[INFO] ContinuityError: 71.818 [ms]
[INFO] CorrectBoundary: 2.302 [ms]
[INFO] PISOStep: 127556 [ms]
[INFO] MatrixAssemblyPI: 558.674 [ms]
[INFO] AdjustPhi: 30.59 [ms]
[INFO] ConstrainPressure: 0.004 [ms]
[INFO] MatrixAssemblyPII: 168.822 [ms]
DICPCG:  Solving for p, Initial residual = 0.898011, Final residual = 9.90318e-05, No Iterations 1165
[INFO] SolveP: 126647 [ms]
time step continuity errors : sum local = 1.89045e-08, global = 4.31039e-22, cumulative = 8.30881e-21
[INFO] ContinuityError: 68.357 [ms]
[INFO] CorrectBoundary: 2.239 [ms]
[INFO] PISOStep: 127663 [ms]
[INFO] TimeStep: 259969 [ms]
ExecutionTime = 1937.13 s  ClockTime = 1945 s

Time = 0.001125

Courant Number mean: 0.0317183 max: 0.695903
[INFO] MatrixAssemblyU: 499.323 [ms]
DILUPBiCGStab:  Solving for Ux, Initial residual = 0.0375145, Final residual = 0.00379523, No Iterations 5
DILUPBiCGStab:  Solving for Uy, Initial residual = 0.187233, Final residual = 0.014697, No Iterations 5
DILUPBiCGStab:  Solving for Uz, Initial residual = 0.6954, Final residual = 0.0387858, No Iterations 5
[INFO] MomentumPredictor: 4164.75 [ms]
[INFO] MatrixAssemblyPI: 572.719 [ms]
[INFO] AdjustPhi: 31.403 [ms]
[INFO] ConstrainPressure: 0.005 [ms]
[INFO] MatrixAssemblyPII: 168.302 [ms]
DICPCG:  Solving for p, Initial residual = 0.968061, Final residual = 9.77175e-05, No Iterations 1168
[INFO] SolveP: 126614 [ms]
time step continuity errors : sum local = 2.10969e-08, global = 1.54778e-21, cumulative = 9.85659e-21
[INFO] ContinuityError: 69.547 [ms]
[INFO] CorrectBoundary: 1.994 [ms]
[INFO] PISOStep: 127646 [ms]
[INFO] MatrixAssemblyPI: 556.079 [ms]
[INFO] AdjustPhi: 33.182 [ms]
[INFO] ConstrainPressure: 0.004 [ms]
[INFO] MatrixAssemblyPII: 168.051 [ms]
DICPCG:  Solving for p, Initial residual = 0.918542, Final residual = 9.78822e-05, No Iterations 1167
[INFO] SolveP: 126938 [ms]
time step continuity errors : sum local = 2.11118e-08, global = 1.13791e-21, cumulative = 1.09945e-20
[INFO] ContinuityError: 68.791 [ms]
[INFO] CorrectBoundary: 2.493 [ms]
[INFO] PISOStep: 127954 [ms]
[INFO] TimeStep: 260332 [ms]
ExecutionTime = 2196.42 s  ClockTime = 2205 s

Time = 0.00125

Courant Number mean: 0.0331332 max: 0.507128
[INFO] MatrixAssemblyU: 502.583 [ms]
DILUPBiCGStab:  Solving for Ux, Initial residual = 0.0409106, Final residual = 0.00386467, No Iterations 5
DILUPBiCGStab:  Solving for Uy, Initial residual = 0.186041, Final residual = 0.0130015, No Iterations 5
DILUPBiCGStab:  Solving for Uz, Initial residual = 0.695576, Final residual = 0.0371809, No Iterations 5
[INFO] MomentumPredictor: 4166.1 [ms]
[INFO] MatrixAssemblyPI: 574.004 [ms]
[INFO] AdjustPhi: 32.055 [ms]
[INFO] ConstrainPressure: 0.005 [ms]
[INFO] MatrixAssemblyPII: 168.001 [ms]
DICPCG:  Solving for p, Initial residual = 0.967419, Final residual = 9.92604e-05, No Iterations 1161
[INFO] SolveP: 125901 [ms]
time step continuity errors : sum local = 2.49629e-08, global = 4.84469e-22, cumulative = 1.1479e-20
[INFO] ContinuityError: 69.428 [ms]
[INFO] CorrectBoundary: 2.29 [ms]
[INFO] PISOStep: 126936 [ms]
[INFO] MatrixAssemblyPI: 559.496 [ms]
[INFO] AdjustPhi: 30.232 [ms]
[INFO] ConstrainPressure: 0.004 [ms]
[INFO] MatrixAssemblyPII: 168.767 [ms]
DICPCG:  Solving for p, Initial residual = 0.903695, Final residual = 9.71767e-05, No Iterations 1160
[INFO] SolveP: 127084 [ms]
time step continuity errors : sum local = 2.47723e-08, global = 7.99573e-22, cumulative = 1.22785e-20
[INFO] ContinuityError: 71.374 [ms]
[INFO] CorrectBoundary: 2.437 [ms]
[INFO] PISOStep: 128105 [ms]
[INFO] TimeStep: 259776 [ms]
ExecutionTime = 2455.14 s  ClockTime = 2465 s

Time = 0.001375

Courant Number mean: 0.0347329 max: 0.825469
[INFO] MatrixAssemblyU: 498.063 [ms]
DILUPBiCGStab:  Solving for Ux, Initial residual = 0.0436665, Final residual = 0.00369625, No Iterations 5
DILUPBiCGStab:  Solving for Uy, Initial residual = 0.209815, Final residual = 0.0140365, No Iterations 5
DILUPBiCGStab:  Solving for Uz, Initial residual = 0.707851, Final residual = 0.0365661, No Iterations 5
[INFO] MomentumPredictor: 4180.85 [ms]
[INFO] MatrixAssemblyPI: 573.32 [ms]
[INFO] AdjustPhi: 30.958 [ms]
[INFO] ConstrainPressure: 0.005 [ms]
[INFO] MatrixAssemblyPII: 168.217 [ms]
DICPCG:  Solving for p, Initial residual = 0.97303, Final residual = 9.90319e-05, No Iterations 1163
[INFO] SolveP: 126088 [ms]
time step continuity errors : sum local = 2.89312e-08, global = -1.28503e-21, cumulative = 1.09935e-20
[INFO] ContinuityError: 68.851 [ms]
[INFO] CorrectBoundary: 2.419 [ms]
[INFO] PISOStep: 127119 [ms]
[INFO] MatrixAssemblyPI: 558.316 [ms]
[INFO] AdjustPhi: 30.779 [ms]
[INFO] ConstrainPressure: 0.005 [ms]
[INFO] MatrixAssemblyPII: 168.364 [ms]
DICPCG:  Solving for p, Initial residual = 0.919343, Final residual = 9.91351e-05, No Iterations 1161
[INFO] SolveP: 127274 [ms]
time step continuity errors : sum local = 2.89903e-08, global = 5.97612e-22, cumulative = 1.15911e-20
[INFO] ContinuityError: 70.64 [ms]
[INFO] CorrectBoundary: 1.85 [ms]
[INFO] PISOStep: 128291 [ms]
[INFO] TimeStep: 260157 [ms]
ExecutionTime = 2714.23 s  ClockTime = 2725 s

Time = 0.0015

Courant Number mean: 0.0359343 max: 0.597194
[INFO] MatrixAssemblyU: 498.946 [ms]
DILUPBiCGStab:  Solving for Ux, Initial residual = 0.0491487, Final residual = 0.00390359, No Iterations 5
DILUPBiCGStab:  Solving for Uy, Initial residual = 0.214193, Final residual = 0.0128982, No Iterations 5
DILUPBiCGStab:  Solving for Uz, Initial residual = 0.712462, Final residual = 0.0361512, No Iterations 5
[INFO] MomentumPredictor: 4162.18 [ms]
[INFO] MatrixAssemblyPI: 573.316 [ms]
[INFO] AdjustPhi: 31.026 [ms]
[INFO] ConstrainPressure: 0.004 [ms]
[INFO] MatrixAssemblyPII: 168.409 [ms]
DICPCG:  Solving for p, Initial residual = 0.97328, Final residual = 9.98744e-05, No Iterations 1161
[INFO] SolveP: 126235 [ms]
time step continuity errors : sum local = 3.42431e-08, global = 2.02845e-21, cumulative = 1.36196e-20
[INFO] ContinuityError: 69.538 [ms]
[INFO] CorrectBoundary: 1.215 [ms]
[INFO] PISOStep: 127267 [ms]
[INFO] MatrixAssemblyPI: 559.178 [ms]
[INFO] AdjustPhi: 30.225 [ms]
[INFO] ConstrainPressure: 0.004 [ms]
[INFO] MatrixAssemblyPII: 168.472 [ms]
DICPCG:  Solving for p, Initial residual = 0.908514, Final residual = 9.80674e-05, No Iterations 1160
[INFO] SolveP: 125838 [ms]
time step continuity errors : sum local = 3.40411e-08, global = 8.49178e-22, cumulative = 1.44688e-20
[INFO] ContinuityError: 71.384 [ms]
[INFO] CorrectBoundary: 2.16 [ms]
[INFO] PISOStep: 126857 [ms]
[INFO] TimeStep: 258853 [ms]
ExecutionTime = 2972.01 s  ClockTime = 2984 s

Time = 0.001625

Courant Number mean: 0.0374307 max: 1.14743
[INFO] MatrixAssemblyU: 499.691 [ms]
DILUPBiCGStab:  Solving for Ux, Initial residual = 0.0538137, Final residual = 0.00384593, No Iterations 5
DILUPBiCGStab:  Solving for Uy, Initial residual = 0.242759, Final residual = 0.0141925, No Iterations 5
DILUPBiCGStab:  Solving for Uz, Initial residual = 0.723346, Final residual = 0.0358347, No Iterations 5
[INFO] MomentumPredictor: 4165.58 [ms]
[INFO] MatrixAssemblyPI: 574.169 [ms]
[INFO] AdjustPhi: 29.165 [ms]
[INFO] ConstrainPressure: 0.004 [ms]
[INFO] MatrixAssemblyPII: 167.703 [ms]
DICPCG:  Solving for p, Initial residual = 0.976872, Final residual = 9.93641e-05, No Iterations 1160
[INFO] SolveP: 125921 [ms]
time step continuity errors : sum local = 3.99746e-08, global = -7.37587e-22, cumulative = 1.37312e-20
[INFO] ContinuityError: 68.073 [ms]
[INFO] CorrectBoundary: 1.844 [ms]
[INFO] PISOStep: 126951 [ms]
[INFO] MatrixAssemblyPI: 558.267 [ms]
[INFO] AdjustPhi: 31.677 [ms]
[INFO] ConstrainPressure: 0.004 [ms]
[INFO] MatrixAssemblyPII: 168.496 [ms]
DICPCG:  Solving for p, Initial residual = 0.920106, Final residual = 9.81136e-05, No Iterations 1159
[INFO] SolveP: 125660 [ms]
time step continuity errors : sum local = 3.95821e-08, global = 1.83557e-22, cumulative = 1.39147e-20
[INFO] ContinuityError: 66.084 [ms]
[INFO] CorrectBoundary: 2.51 [ms]
[INFO] PISOStep: 126676 [ms]
[INFO] TimeStep: 258359 [ms]
ExecutionTime = 3229.33 s  ClockTime = 3242 s

Time = 0.00175

Courant Number mean: 0.0384955 max: 1.02074
[INFO] MatrixAssemblyU: 498.301 [ms]
DILUPBiCGStab:  Solving for Ux, Initial residual = 0.0618383, Final residual = 0.00415007, No Iterations 5
DILUPBiCGStab:  Solving for Uy, Initial residual = 0.25321, Final residual = 0.0135749, No Iterations 5
DILUPBiCGStab:  Solving for Uz, Initial residual = 0.728472, Final residual = 0.0356776, No Iterations 5
[INFO] MomentumPredictor: 4158.79 [ms]
[INFO] MatrixAssemblyPI: 575.149 [ms]
[INFO] AdjustPhi: 29.417 [ms]
[INFO] ConstrainPressure: 0.003 [ms]
[INFO] MatrixAssemblyPII: 168.027 [ms]
DICPCG:  Solving for p, Initial residual = 0.97755, Final residual = 9.95971e-05, No Iterations 1163
[INFO] SolveP: 126059 [ms]
time step continuity errors : sum local = 4.72671e-08, global = -2.09597e-21, cumulative = 1.18188e-20
[INFO] ContinuityError: 67.95 [ms]
[INFO] CorrectBoundary: 2.427 [ms]
[INFO] PISOStep: 127090 [ms]
[INFO] MatrixAssemblyPI: 558.255 [ms]
[INFO] AdjustPhi: 29.535 [ms]
[INFO] ConstrainPressure: 0.004 [ms]
[INFO] MatrixAssemblyPII: 168.54 [ms]
DICPCG:  Solving for p, Initial residual = 0.9126, Final residual = 9.91148e-05, No Iterations 1161
[INFO] SolveP: 125873 [ms]
time step continuity errors : sum local = 4.7572e-08, global = -8.67506e-23, cumulative = 1.1732e-20
[INFO] ContinuityError: 69.81 [ms]
[INFO] CorrectBoundary: 1.8 [ms]
[INFO] PISOStep: 126890 [ms]
[INFO] TimeStep: 258705 [ms]
ExecutionTime = 3486.99 s  ClockTime = 3501 s

Time = 0.001875

Courant Number mean: 0.0399625 max: 1.6823
[INFO] MatrixAssemblyU: 499.133 [ms]
DILUPBiCGStab:  Solving for Ux, Initial residual = 0.0688478, Final residual = 0.00423944, No Iterations 5
DILUPBiCGStab:  Solving for Uy, Initial residual = 0.285491, Final residual = 0.0149835, No Iterations 5
DILUPBiCGStab:  Solving for Uz, Initial residual = 0.736018, Final residual = 0.0353434, No Iterations 5
[INFO] MomentumPredictor: 4170.3 [ms]
[INFO] MatrixAssemblyPI: 573.899 [ms]
[INFO] AdjustPhi: 30.814 [ms]
[INFO] ConstrainPressure: 0.005 [ms]
[INFO] MatrixAssemblyPII: 168.069 [ms]
DICPCG:  Solving for p, Initial residual = 0.979678, Final residual = 9.88175e-05, No Iterations 1161
[INFO] SolveP: 126357 [ms]
time step continuity errors : sum local = 5.53447e-08, global = 4.88119e-21, cumulative = 1.66132e-20
[INFO] ContinuityError: 68.164 [ms]
[INFO] CorrectBoundary: 2.011 [ms]
[INFO] PISOStep: 127388 [ms]
[INFO] MatrixAssemblyPI: 558.423 [ms]
[INFO] AdjustPhi: 29.942 [ms]
[INFO] ConstrainPressure: 0.004 [ms]
[INFO] MatrixAssemblyPII: 168.581 [ms]
DICPCG:  Solving for p, Initial residual = 0.920554, Final residual = 9.92773e-05, No Iterations 1159
[INFO] SolveP: 125629 [ms]
time step continuity errors : sum local = 5.58435e-08, global = 6.97779e-22, cumulative = 1.7311e-20
[INFO] ContinuityError: 69.832 [ms]
[INFO] CorrectBoundary: 2.538 [ms]
[INFO] PISOStep: 126646 [ms]
[INFO] TimeStep: 258772 [ms]
ExecutionTime = 3744.71 s  ClockTime = 3760 s

Time = 0.002

Courant Number mean: 0.0409614 max: 1.71645
[INFO] MatrixAssemblyU: 502.809 [ms]
DILUPBiCGStab:  Solving for Ux, Initial residual = 0.0803413, Final residual = 0.00466747, No Iterations 5
DILUPBiCGStab:  Solving for Uy, Initial residual = 0.302247, Final residual = 0.0148169, No Iterations 5
DILUPBiCGStab:  Solving for Uz, Initial residual = 0.740099, Final residual = 0.0351252, No Iterations 5
[INFO] MomentumPredictor: 4152.16 [ms]
[INFO] MatrixAssemblyPI: 572.919 [ms]
[INFO] AdjustPhi: 31.704 [ms]
[INFO] ConstrainPressure: 0.005 [ms]
[INFO] MatrixAssemblyPII: 168.057 [ms]
DICPCG:  Solving for p, Initial residual = 0.980797, Final residual = 9.99108e-05, No Iterations 1163
[INFO] SolveP: 126740 [ms]
time step continuity errors : sum local = 6.6296e-08, global = -2.65577e-21, cumulative = 1.46552e-20
[INFO] ContinuityError: 68.509 [ms]
[INFO] CorrectBoundary: 1.829 [ms]
[INFO] PISOStep: 127772 [ms]
[INFO] MatrixAssemblyPI: 559.922 [ms]
[INFO] AdjustPhi: 28.947 [ms]
[INFO] ConstrainPressure: 0.004 [ms]
[INFO] MatrixAssemblyPII: 168.495 [ms]
DICPCG:  Solving for p, Initial residual = 0.915581, Final residual = 9.93882e-05, No Iterations 1161
[INFO] SolveP: 125560 [ms]
time step continuity errors : sum local = 6.66452e-08, global = 5.55762e-22, cumulative = 1.5211e-20
[INFO] ContinuityError: 68.123 [ms]
[INFO] CorrectBoundary: 2.528 [ms]
[INFO] PISOStep: 126576 [ms]
[INFO] TimeStep: 259071 [ms]
ExecutionTime = 4002.73 s  ClockTime = 4019 s

Time = 0.002125

Courant Number mean: 0.0424677 max: 2.54851
[INFO] MatrixAssemblyU: 501.271 [ms]
DILUPBiCGStab:  Solving for Ux, Initial residual = 0.0903843, Final residual = 0.00492882, No Iterations 5
DILUPBiCGStab:  Solving for Uy, Initial residual = 0.337515, Final residual = 0.016302, No Iterations 5
DILUPBiCGStab:  Solving for Uz, Initial residual = 0.744918, Final residual = 0.0349116, No Iterations 5
[INFO] MomentumPredictor: 4161.57 [ms]
[INFO] MatrixAssemblyPI: 573.832 [ms]
[INFO] AdjustPhi: 30.214 [ms]
[INFO] ConstrainPressure: 0.005 [ms]
[INFO] MatrixAssemblyPII: 167.839 [ms]
DICPCG:  Solving for p, Initial residual = 0.981869, Final residual = 9.69114e-05, No Iterations 1164
[INFO] SolveP: 126158 [ms]
time step continuity errors : sum local = 7.647e-08, global = -2.63033e-21, cumulative = 1.25806e-20
[INFO] ContinuityError: 71.883 [ms]
[INFO] CorrectBoundary: 1.885 [ms]
[INFO] PISOStep: 127193 [ms]
[INFO] MatrixAssemblyPI: 557.963 [ms]
[INFO] AdjustPhi: 31.001 [ms]
[INFO] ConstrainPressure: 0.004 [ms]
[INFO] MatrixAssemblyPII: 166.888 [ms]
DICPCG:  Solving for p, Initial residual = 0.920577, Final residual = 9.9195e-05, No Iterations 1161
[INFO] SolveP: 125731 [ms]
time step continuity errors : sum local = 7.8723e-08, global = 7.84219e-22, cumulative = 1.33649e-20
[INFO] ContinuityError: 67.972 [ms]
[INFO] CorrectBoundary: 3.048 [ms]
[INFO] PISOStep: 126749 [ms]
[INFO] TimeStep: 258673 [ms]
ExecutionTime = 4260.32 s  ClockTime = 4278 s

Time = 0.00225

Courant Number mean: 0.0434813 max: 2.85679
[INFO] MatrixAssemblyU: 501.306 [ms]
DILUPBiCGStab:  Solving for Ux, Initial residual = 0.106862, Final residual = 0.00555236, No Iterations 5
DILUPBiCGStab:  Solving for Uy, Initial residual = 0.360481, Final residual = 0.0165281, No Iterations 5
DILUPBiCGStab:  Solving for Uz, Initial residual = 0.747717, Final residual = 0.0346686, No Iterations 5
[INFO] MomentumPredictor: 4152.83 [ms]
[INFO] MatrixAssemblyPI: 573.419 [ms]
[INFO] AdjustPhi: 31.837 [ms]
[INFO] ConstrainPressure: 0.004 [ms]
[INFO] MatrixAssemblyPII: 168.193 [ms]
DICPCG:  Solving for p, Initial residual = 0.983064, Final residual = 9.99558e-05, No Iterations 1163
[INFO] SolveP: 126210 [ms]
time step continuity errors : sum local = 9.4115e-08, global = 1.44048e-21, cumulative = 1.48053e-20
[INFO] ContinuityError: 70.702 [ms]
[INFO] CorrectBoundary: 1.85 [ms]
[INFO] PISOStep: 127246 [ms]
[INFO] MatrixAssemblyPI: 557.71 [ms]
[INFO] AdjustPhi: 31.242 [ms]
[INFO] ConstrainPressure: 0.004 [ms]
[INFO] MatrixAssemblyPII: 168.849 [ms]
DICPCG:  Solving for p, Initial residual = 0.917557, Final residual = 9.97877e-05, No Iterations 1162
[INFO] SolveP: 126663 [ms]
time step continuity errors : sum local = 9.49013e-08, global = 6.92919e-22, cumulative = 1.54983e-20
[INFO] ContinuityError: 72.275 [ms]
[INFO] CorrectBoundary: 1.895 [ms]
[INFO] PISOStep: 127680 [ms]
[INFO] TimeStep: 259647 [ms]
ExecutionTime = 4518.91 s  ClockTime = 4537 s

Time = 0.002375

Courant Number mean: 0.0451112 max: 3.96021
[INFO] MatrixAssemblyU: 506.154 [ms]
DILUPBiCGStab:  Solving for Ux, Initial residual = 0.120802, Final residual = 0.00600252, No Iterations 5
DILUPBiCGStab:  Solving for Uy, Initial residual = 0.397074, Final residual = 0.0180665, No Iterations 5
DILUPBiCGStab:  Solving for Uz, Initial residual = 0.750866, Final residual = 0.0345415, No Iterations 5
[INFO] MomentumPredictor: 4165.34 [ms]
[INFO] MatrixAssemblyPI: 573.219 [ms]
[INFO] AdjustPhi: 31.197 [ms]
[INFO] ConstrainPressure: 0.005 [ms]
[INFO] MatrixAssemblyPII: 168.09 [ms]
DICPCG:  Solving for p, Initial residual = 0.983498, Final residual = 9.89143e-05, No Iterations 1164
[INFO] SolveP: 126062 [ms]
time step continuity errors : sum local = 1.11627e-07, global = 3.80172e-21, cumulative = 1.93e-20
[INFO] ContinuityError: 67.559 [ms]
[INFO] CorrectBoundary: 1.185 [ms]
[INFO] PISOStep: 127092 [ms]
[INFO] MatrixAssemblyPI: 558.164 [ms]
[INFO] AdjustPhi: 31.044 [ms]
[INFO] ConstrainPressure: 0.005 [ms]
[INFO] MatrixAssemblyPII: 168.651 [ms]
DICPCG:  Solving for p, Initial residual = 0.920743, Final residual = 9.8333e-05, No Iterations 1161
[INFO] SolveP: 127420 [ms]
time step continuity errors : sum local = 1.11734e-07, global = 1.1747e-21, cumulative = 2.04747e-20
[INFO] ContinuityError: 70.025 [ms]
[INFO] CorrectBoundary: 1.57 [ms]
[INFO] PISOStep: 128438 [ms]
[INFO] TimeStep: 260267 [ms]
ExecutionTime = 4778.14 s  ClockTime = 4797 s

Time = 0.0025

Courant Number mean: 0.0462487 max: 4.70511
[INFO] MatrixAssemblyU: 500.043 [ms]
DILUPBiCGStab:  Solving for Ux, Initial residual = 0.144017, Final residual = 0.00690347, No Iterations 5
DILUPBiCGStab:  Solving for Uy, Initial residual = 0.424658, Final residual = 0.0186067, No Iterations 5
DILUPBiCGStab:  Solving for Uz, Initial residual = 0.752541, Final residual = 0.0343349, No Iterations 5
[INFO] MomentumPredictor: 4171.98 [ms]
[INFO] MatrixAssemblyPI: 573.31 [ms]
[INFO] AdjustPhi: 31.34 [ms]
[INFO] ConstrainPressure: 0.005 [ms]
[INFO] MatrixAssemblyPII: 168.205 [ms]
DICPCG:  Solving for p, Initial residual = 0.984373, Final residual = 9.96746e-05, No Iterations 1165
[INFO] SolveP: 126516 [ms]
time step continuity errors : sum local = 1.35152e-07, global = -4.60822e-21, cumulative = 1.58665e-20
[INFO] ContinuityError: 70.13 [ms]
[INFO] CorrectBoundary: 1.831 [ms]
[INFO] PISOStep: 127548 [ms]
[INFO] MatrixAssemblyPI: 558.174 [ms]
[INFO] AdjustPhi: 31.403 [ms]
[INFO] ConstrainPressure: 0.005 [ms]
[INFO] MatrixAssemblyPII: 168.055 [ms]
DICPCG:  Solving for p, Initial residual = 0.918883, Final residual = 9.68758e-05, No Iterations 1165
[INFO] SolveP: 126093 [ms]
time step continuity errors : sum local = 1.32651e-07, global = 1.33786e-21, cumulative = 1.72043e-20
[INFO] ContinuityError: 71.264 [ms]
[INFO] CorrectBoundary: 2.399 [ms]
[INFO] PISOStep: 127113 [ms]
[INFO] TimeStep: 259399 [ms]
ExecutionTime = 5036.44 s  ClockTime = 5057 s

End

Finalising parallel run
