/*---------------------------------------------------------------------------*\
| =========                 |                                                 |
| \\      /  F ield         | OpenFOAM: The Open Source CFD Toolbox           |
|  \\    /   O peration     | Version:  2312                                  |
|   \\  /    A nd           | Website:  www.openfoam.com                      |
|    \\/     M anipulation  |                                                 |
\*---------------------------------------------------------------------------*/
Build  : a46b310f-20240104 OPENFOAM=2312 version=v2312
Arch   : "LSB;label=32;scalar=64"
Exec   : icoFoam -parallel -case /hppfs/scratch/0B/di35yan/lidDriven3D/workspace/3aa01ccd94e9cb1d8e284db6632d8b1e/case
Date   : Feb 19 2024
Time   : 06:23:17
Host   : i20r05c01s02
PID    : 216650
I/O    : uncollated
Case   : /hppfs/scratch/0B/di35yan/lidDriven3D/workspace/3aa01ccd94e9cb1d8e284db6632d8b1e/case
nProcs : 48
Hosts  :
(
    (i20r05c01s02 8)
    (i20r05c01s04 8)
    (i20r05c01s06 8)
    (i20r05c01s10 8)
    (i20r05c02s02 8)
    (i20r05c02s04 8)
)
Pstream initialized with:
    floatTransfer      : false
    nProcsSimpleSum    : 0
    nonBlockingExchange: 0 (tuning: 0)
    exchange algorithm : 0
    commsType          : nonBlocking
    polling iterations : 0
trapFpe: Floating point exception trapping enabled (FOAM_SIGFPE).
fileModificationChecking : Monitoring run-time modified files using timeStampMaster (fileModificationSkew 5, maxFileModificationPolls 20)
allowSystemOperations : Allowing user-supplied system call operations

// * * * * * * * * * * * * * * * * * * * * * * * * * * * * * * * * * * * * * //
Create time

--> FOAM Warning : 
    From void* Foam::dlLibraryTable::openLibrary(const Foam::fileName&, bool)
    in file db/dynamicLibrary/dlLibraryTable/dlLibraryTable.C at line 188
    Could not load "libpetscFoam.so"
libpetscFoam.so: cannot open shared object file: No such file or directory
Create mesh for time = 0


PISO: Operating solver in PISO mode

Reading transportProperties

Reading field p

Reading field U

Reading/calculating face flux field phi


Starting time loop

Time = 0.00025

Courant Number mean: 8.24341e-18 max: 2.08167e-14
[INFO] MatrixAssemblyU: 22.304 [ms]
DILUPBiCGStab:  Solving for Ux, Initial residual = 1, Final residual = 0.00994539, No Iterations 5
DILUPBiCGStab:  Solving for Uy:  solution singularity
DILUPBiCGStab:  Solving for Uz:  solution singularity
[INFO] MomentumPredictor: 75.059 [ms]
[INFO] MatrixAssemblyPI: 16.014 [ms]
[INFO] AdjustPhi: 1.289 [ms]
[INFO] ConstrainPressure: 0.003 [ms]
[INFO] MatrixAssemblyPII: 4.881 [ms]
[OGL LOG][lduLduBase.H:119] Initialising OGL
	OGL commit:  34fc915+
	Branch: fix/cyclic_interfaces 
	Build type: Debug
	Ginkgo version: 1.8.0 ( develop)
	Ginkgo commit: fc86d48b78cebd2b2c5833a2dcf0fe40f615cf19
	MPI is GPU aware: 1
	Forces host buffer based communication: 0
	CPU ranks per GPU: 1
	Matrix format: Ell
	End OGL_INFO
[OGL LOG][Proc: 0]: global_index_init: 0.135 [ms]
[OGL LOG][Proc: 0]p_local_cols: call_init: 0.128 [ms]
[OGL LOG][Proc: 0]p_local_rows: call_init: 0.043 [ms]
[OGL LOG][Proc: 0]p_local_ldu_map: call_init: 0.034 [ms]
[OGL LOG][Proc: 0]p_local_coeffs: call_init: 0.827 [ms]
[OGL LOG][Proc: 0]p_non_local_cols: call_init: 0.008 [ms]
[OGL LOG][Proc: 0]p_non_local_rows: call_init: 0.019 [ms]
[OGL LOG][Proc: 0]p_non_local_ldu_map: call_init: 0.002 [ms]
[OGL LOG][Proc: 0]p_non_local_coeffs: call_init: 0.004 [ms]
[OGL LOG][Proc: 0]p: init_local_sparsity_pattern: 1971.28 [ms]
[OGL LOG][Proc: 0]p: init_non_local_sparsity_pattern: 9.659 [ms]
[OGL LOG][Proc: 0]p: update_local_matrix_data: 3422.24 [ms]
[OGL LOG][Proc: 0]p: update_non_local_matrix_data: 0.266 [ms]
[OGL LOG][Proc: 0]device_partition: call_init: 0.169 [ms]
[OGL LOG][Proc: 0]p_matrix: call_init: 123.19 [ms]
[OGL LOG][Proc: 0]p_rhs: call_init: 1.009 [ms]
[OGL LOG][Proc: 0]p_solution: call_init: 0.529 [ms]
[OGL LOG][Proc: 0]p: init_precond: 0.18 [ms]
[OGL LOG][StoppingCriterion.H:239] Creating stopping criterion with minIter 0 frequency 1
[OGL LOG][Proc: 0]p: generate_solver: 0.303 [ms]
[OGL LOG][Proc: 0]p: solve: 1607.23 [ms]
[OGL LOG][Proc: 0]p: copy_x_back: 0.297 [ms]
[OGL LOG][lduLduBase.H:330] 
Statistics:
	Time per iteration: 997 [mu s]
	Time per residual norm calculation: 45255.000000 [mu s]
	Time per iteration and DOF: 0.124625 [ns]
	Retrieve results bandwidth 4.446000 [GByte/s]
[OGL LOG][Proc: 0]p: solve_multi_gpu: 2884.73 [ms]
nonedpcppGKOCG:  Solving for p, Initial residual = 1, Final residual = 9.8626e-05, No Iterations 1611
[INFO] SolveP: 8294.06 [ms]
time step continuity errors : sum local = 7.57106e-09, global = -3.36685e-22, cumulative = -3.36685e-22
[INFO] ContinuityError: 7.128 [ms]
[INFO] CorrectBoundary: 0.243 [ms]
[INFO] PISOStep: 8331.22 [ms]
[INFO] MatrixAssemblyPI: 16.171 [ms]
[INFO] AdjustPhi: 3.262 [ms]
[INFO] ConstrainPressure: 0.001 [ms]
[INFO] MatrixAssemblyPII: 5.178 [ms]
[OGL LOG][Proc: 0]: global_index_init: 0.082 [ms]
[OGL LOG][Proc: 0]p_local_coeffs: call_update: 0 [ms]
[OGL LOG][Proc: 0]p_non_local_coeffs: call_update: 0 [ms]
[OGL LOG][Proc: 0]p: update_local_matrix_data: 2.899 [ms]
[OGL LOG][Proc: 0]p: update_non_local_matrix_data: 0.145 [ms]
[OGL LOG][Proc: 0]p: regenerate_distributed_matrix: 14.825 [ms]
[OGL LOG][Proc: 0]p_matrix: call_update: 67.522 [ms]
[OGL LOG][Proc: 0]p_rhs: call_update: 3.338 [ms]
[OGL LOG][Proc: 0]p: init_precond: 0.064 [ms]
[OGL LOG][StoppingCriterion.H:239] Creating stopping criterion with minIter 0 frequency 1
[OGL LOG][Proc: 0]p: generate_solver: 0.019 [ms]
[OGL LOG][Proc: 0]p: solve: 856.432 [ms]
[OGL LOG][Proc: 0]p: copy_x_back: 0.271 [ms]
[OGL LOG][lduLduBase.H:330] 
Statistics:
	Time per iteration: 538 [mu s]
	Time per residual norm calculation: 98.000000 [mu s]
	Time per iteration and DOF: 0.067250 [ns]
	Retrieve results bandwidth 4.873000 [GByte/s]
[OGL LOG][Proc: 0]p: solve_multi_gpu: 928.777 [ms]
nonedpcppGKOCG:  Solving for p, Initial residual = 0.786384, Final residual = 9.7028e-05, No Iterations 1591
[INFO] SolveP: 932.967 [ms]
time step continuity errors : sum local = 9.31036e-09, global = -1.84032e-21, cumulative = -2.17701e-21
[INFO] ContinuityError: 4.858 [ms]
[INFO] CorrectBoundary: 0.593 [ms]
[INFO] PISOStep: 968.986 [ms]
[INFO] TimeStep: 9400.91 [ms]
ExecutionTime = 7.93 s  ClockTime = 11 s

Time = 0.0005

Courant Number mean: 0.0159459 max: 0.412549
[INFO] MatrixAssemblyU: 12.861 [ms]
DILUPBiCGStab:  Solving for Ux, Initial residual = 0.129572, Final residual = 0.00585638, No Iterations 5
DILUPBiCGStab:  Solving for Uy, Initial residual = 0.426965, Final residual = 0.015759, No Iterations 5
DILUPBiCGStab:  Solving for Uz, Initial residual = 0.987077, Final residual = 0.0396108, No Iterations 5
[INFO] MomentumPredictor: 133.776 [ms]
[INFO] MatrixAssemblyPI: 14.03 [ms]
[INFO] AdjustPhi: 6.306 [ms]
[INFO] ConstrainPressure: 0.001 [ms]
[INFO] MatrixAssemblyPII: 4.617 [ms]
[OGL LOG][Proc: 0]: global_index_init: 0.091 [ms]
[OGL LOG][Proc: 0]p_local_coeffs: call_update: 0 [ms]
[OGL LOG][Proc: 0]p_non_local_coeffs: call_update: 0 [ms]
[OGL LOG][Proc: 0]p: update_local_matrix_data: 3.103 [ms]
[OGL LOG][Proc: 0]p: update_non_local_matrix_data: 0.151 [ms]
[OGL LOG][Proc: 0]p: regenerate_distributed_matrix: 12.111 [ms]
[OGL LOG][Proc: 0]p_matrix: call_update: 12.378 [ms]
[OGL LOG][Proc: 0]p_rhs: call_update: 0.535 [ms]
[OGL LOG][Proc: 0]p: init_precond: 0.04 [ms]
[OGL LOG][StoppingCriterion.H:239] Creating stopping criterion with minIter 954 frequency 11
[OGL LOG][Proc: 0]p: generate_solver: 0.02 [ms]
[OGL LOG][Proc: 0]p: solve: 698.296 [ms]
[OGL LOG][Proc: 0]p: copy_x_back: 0.296 [ms]
[OGL LOG][lduLduBase.H:330] 
Statistics:
	Time per iteration: 443 [mu s]
	Time per residual norm calculation: 100.000000 [mu s]
	Time per iteration and DOF: 0.055375 [ns]
	Retrieve results bandwidth 4.461000 [GByte/s]
[OGL LOG][Proc: 0]p: solve_multi_gpu: 712.838 [ms]
nonedpcppGKOCG:  Solving for p, Initial residual = 0.829852, Final residual = 9.07127e-05, No Iterations 1574
[INFO] SolveP: 716.962 [ms]
time step continuity errors : sum local = 1.37373e-08, global = -9.0932e-22, cumulative = -3.08633e-21
[INFO] ContinuityError: 2.831 [ms]
[INFO] CorrectBoundary: 0.309 [ms]
[INFO] PISOStep: 751.28 [ms]
[INFO] MatrixAssemblyPI: 13.243 [ms]
[INFO] AdjustPhi: 3.228 [ms]
[INFO] ConstrainPressure: 0.001 [ms]
[INFO] MatrixAssemblyPII: 4.546 [ms]
[OGL LOG][Proc: 0]: global_index_init: 0.077 [ms]
[OGL LOG][Proc: 0]p_local_coeffs: call_update: 0 [ms]
[OGL LOG][Proc: 0]p_non_local_coeffs: call_update: 0 [ms]
[OGL LOG][Proc: 0]p: update_local_matrix_data: 2.969 [ms]
[OGL LOG][Proc: 0]p: update_non_local_matrix_data: 0.132 [ms]
[OGL LOG][Proc: 0]p: regenerate_distributed_matrix: 9.76 [ms]
[OGL LOG][Proc: 0]p_matrix: call_update: 10.021 [ms]
[OGL LOG][Proc: 0]p_rhs: call_update: 0.705 [ms]
[OGL LOG][Proc: 0]p: init_precond: 0.04 [ms]
[OGL LOG][StoppingCriterion.H:239] Creating stopping criterion with minIter 944 frequency 12
[OGL LOG][Proc: 0]p: generate_solver: 0.02 [ms]
[OGL LOG][Proc: 0]p: solve: 692.404 [ms]
[OGL LOG][Proc: 0]p: copy_x_back: 0.292 [ms]
[OGL LOG][lduLduBase.H:330] 
Statistics:
	Time per iteration: 440 [mu s]
	Time per residual norm calculation: 103.000000 [mu s]
	Time per iteration and DOF: 0.055000 [ns]
	Retrieve results bandwidth 4.522000 [GByte/s]
[OGL LOG][Proc: 0]p: solve_multi_gpu: 704.633 [ms]
nonedpcppGKOCG:  Solving for p, Initial residual = 0.772669, Final residual = 8.53291e-05, No Iterations 1573
[INFO] SolveP: 708.6 [ms]
time step continuity errors : sum local = 1.31642e-08, global = -4.10624e-22, cumulative = -3.49695e-21
[INFO] ContinuityError: 5.109 [ms]
[INFO] CorrectBoundary: 0.16 [ms]
[INFO] PISOStep: 741.084 [ms]
[INFO] TimeStep: 1642.64 [ms]
ExecutionTime = 9.58 s  ClockTime = 13 s

Time = 0.00075

Courant Number mean: 0.0243213 max: 0.472143
[INFO] MatrixAssemblyU: 13.038 [ms]
DILUPBiCGStab:  Solving for Ux, Initial residual = 0.0547753, Final residual = 0.00202028, No Iterations 5
DILUPBiCGStab:  Solving for Uy, Initial residual = 0.182542, Final residual = 0.00837848, No Iterations 5
DILUPBiCGStab:  Solving for Uz, Initial residual = 0.80802, Final residual = 0.0274418, No Iterations 5
[INFO] MomentumPredictor: 129.091 [ms]
[INFO] MatrixAssemblyPI: 14.384 [ms]
[INFO] AdjustPhi: 5.507 [ms]
[INFO] ConstrainPressure: 0.001 [ms]
[INFO] MatrixAssemblyPII: 4.675 [ms]
[OGL LOG][Proc: 0]: global_index_init: 0.078 [ms]
[OGL LOG][Proc: 0]p_local_coeffs: call_update: 0 [ms]
[OGL LOG][Proc: 0]p_non_local_coeffs: call_update: 0 [ms]
[OGL LOG][Proc: 0]p: update_local_matrix_data: 2.907 [ms]
[OGL LOG][Proc: 0]p: update_non_local_matrix_data: 0.147 [ms]
[OGL LOG][Proc: 0]p: regenerate_distributed_matrix: 12.585 [ms]
[OGL LOG][Proc: 0]p_matrix: call_update: 12.84 [ms]
[OGL LOG][Proc: 0]p_rhs: call_update: 0.474 [ms]
[OGL LOG][Proc: 0]p: init_precond: 0.039 [ms]
[OGL LOG][StoppingCriterion.H:239] Creating stopping criterion with minIter 943 frequency 12
[OGL LOG][Proc: 0]p: generate_solver: 0.02 [ms]
[OGL LOG][Proc: 0]p: solve: 705.088 [ms]
[OGL LOG][Proc: 0]p: copy_x_back: 0.294 [ms]
[OGL LOG][lduLduBase.H:330] 
Statistics:
	Time per iteration: 444 [mu s]
	Time per residual norm calculation: 100.000000 [mu s]
	Time per iteration and DOF: 0.055500 [ns]
	Retrieve results bandwidth 4.491000 [GByte/s]
[OGL LOG][Proc: 0]p: solve_multi_gpu: 720.285 [ms]
nonedpcppGKOCG:  Solving for p, Initial residual = 0.850389, Final residual = 5.99641e-05, No Iterations 1585
[INFO] SolveP: 724.278 [ms]
time step continuity errors : sum local = 8.14068e-09, global = -1.81833e-21, cumulative = -5.31528e-21
[INFO] ContinuityError: 5.34 [ms]
[INFO] CorrectBoundary: 0.668 [ms]
[INFO] PISOStep: 760.695 [ms]
[INFO] MatrixAssemblyPI: 14.226 [ms]
[INFO] AdjustPhi: 5.851 [ms]
[INFO] ConstrainPressure: 0.001 [ms]
[INFO] MatrixAssemblyPII: 4.577 [ms]
[OGL LOG][Proc: 0]: global_index_init: 0.082 [ms]
[OGL LOG][Proc: 0]p_local_coeffs: call_update: 0 [ms]
[OGL LOG][Proc: 0]p_non_local_coeffs: call_update: 0 [ms]
[OGL LOG][Proc: 0]p: update_local_matrix_data: 3.13 [ms]
[OGL LOG][Proc: 0]p: update_non_local_matrix_data: 0.151 [ms]
[OGL LOG][Proc: 0]p: regenerate_distributed_matrix: 11.759 [ms]
[OGL LOG][Proc: 0]p_matrix: call_update: 12.076 [ms]
[OGL LOG][Proc: 0]p_rhs: call_update: 0.585 [ms]
[OGL LOG][Proc: 0]p: init_precond: 0.04 [ms]
[OGL LOG][StoppingCriterion.H:239] Creating stopping criterion with minIter 951 frequency 12
[OGL LOG][Proc: 0]p: generate_solver: 0.018 [ms]
[OGL LOG][Proc: 0]p: solve: 701.92 [ms]
[OGL LOG][Proc: 0]p: copy_x_back: 0.289 [ms]
[OGL LOG][lduLduBase.H:330] 
Statistics:
	Time per iteration: 446 [mu s]
	Time per residual norm calculation: 100.000000 [mu s]
	Time per iteration and DOF: 0.055750 [ns]
	Retrieve results bandwidth 4.569000 [GByte/s]
[OGL LOG][Proc: 0]p: solve_multi_gpu: 716.537 [ms]
nonedpcppGKOCG:  Solving for p, Initial residual = 0.816407, Final residual = 9.62056e-05, No Iterations 1573
[INFO] SolveP: 721.595 [ms]
time step continuity errors : sum local = 1.27703e-08, global = -1.33782e-21, cumulative = -6.65309e-21
[INFO] ContinuityError: 5.668 [ms]
[INFO] CorrectBoundary: 1.367 [ms]
[INFO] PISOStep: 760.172 [ms]
[INFO] TimeStep: 1666.91 [ms]
ExecutionTime = 11.24 s  ClockTime = 15 s

Time = 0.001

Courant Number mean: 0.029182 max: 0.467728
[INFO] MatrixAssemblyU: 12.583 [ms]
DILUPBiCGStab:  Solving for Ux, Initial residual = 0.0347377, Final residual = 0.00135691, No Iterations 5
DILUPBiCGStab:  Solving for Uy, Initial residual = 0.129259, Final residual = 0.00523734, No Iterations 5
DILUPBiCGStab:  Solving for Uz, Initial residual = 0.612714, Final residual = 0.0171265, No Iterations 5
[INFO] MomentumPredictor: 124.488 [ms]
[INFO] MatrixAssemblyPI: 13.973 [ms]
[INFO] AdjustPhi: 4.889 [ms]
[INFO] ConstrainPressure: 0.001 [ms]
[INFO] MatrixAssemblyPII: 4.523 [ms]
[OGL LOG][Proc: 0]: global_index_init: 0.068 [ms]
[OGL LOG][Proc: 0]p_local_coeffs: call_update: 0 [ms]
[OGL LOG][Proc: 0]p_non_local_coeffs: call_update: 0 [ms]
[OGL LOG][Proc: 0]p: update_local_matrix_data: 3.104 [ms]
[OGL LOG][Proc: 0]p: update_non_local_matrix_data: 0.145 [ms]
[OGL LOG][Proc: 0]p: regenerate_distributed_matrix: 12.04 [ms]
[OGL LOG][Proc: 0]p_matrix: call_update: 12.277 [ms]
[OGL LOG][Proc: 0]p_rhs: call_update: 0.549 [ms]
[OGL LOG][Proc: 0]p: init_precond: 0.037 [ms]
[OGL LOG][StoppingCriterion.H:239] Creating stopping criterion with minIter 943 frequency 12
[OGL LOG][Proc: 0]p: generate_solver: 0.019 [ms]
[OGL LOG][Proc: 0]p: solve: 422.696 [ms]
[OGL LOG][Proc: 0]p: copy_x_back: 0.31 [ms]
[OGL LOG][lduLduBase.H:330] 
Statistics:
	Time per iteration: 445 [mu s]
	Time per residual norm calculation: 133.000000 [mu s]
	Time per iteration and DOF: 0.055625 [ns]
	Retrieve results bandwidth 4.260000 [GByte/s]
[OGL LOG][Proc: 0]p: solve_multi_gpu: 437.307 [ms]
nonedpcppGKOCG:  Solving for p, Initial residual = 0.774763, Final residual = 4.24992e-05, No Iterations 949
[INFO] SolveP: 441.998 [ms]
time step continuity errors : sum local = 5.71143e-09, global = -3.10625e-21, cumulative = -9.75934e-21
[INFO] ContinuityError: 2.81 [ms]
[INFO] CorrectBoundary: 0.112 [ms]
[INFO] PISOStep: 477.81 [ms]
[INFO] MatrixAssemblyPI: 16.008 [ms]
[INFO] AdjustPhi: 1.618 [ms]
[INFO] ConstrainPressure: 0.001 [ms]
[INFO] MatrixAssemblyPII: 4.986 [ms]
[OGL LOG][Proc: 0]: global_index_init: 0.071 [ms]
[OGL LOG][Proc: 0]p_local_coeffs: call_update: 0 [ms]
[OGL LOG][Proc: 0]p_non_local_coeffs: call_update: 0 [ms]
[OGL LOG][Proc: 0]p: update_local_matrix_data: 3.328 [ms]
[OGL LOG][Proc: 0]p: update_non_local_matrix_data: 0.179 [ms]
[OGL LOG][Proc: 0]p: regenerate_distributed_matrix: 11.165 [ms]
[OGL LOG][Proc: 0]p_matrix: call_update: 11.416 [ms]
[OGL LOG][Proc: 0]p_rhs: call_update: 0.503 [ms]
[OGL LOG][Proc: 0]p: init_precond: 0.036 [ms]
[OGL LOG][StoppingCriterion.H:239] Creating stopping criterion with minIter 569 frequency 11
[OGL LOG][Proc: 0]p: generate_solver: 0.015 [ms]
[OGL LOG][Proc: 0]p: solve: 339.981 [ms]
[OGL LOG][Proc: 0]p: copy_x_back: 0.273 [ms]
[OGL LOG][lduLduBase.H:330] 
Statistics:
	Time per iteration: 447 [mu s]
	Time per residual norm calculation: 99.000000 [mu s]
	Time per iteration and DOF: 0.055875 [ns]
	Retrieve results bandwidth 4.837000 [GByte/s]
[OGL LOG][Proc: 0]p: solve_multi_gpu: 353.051 [ms]
nonedpcppGKOCG:  Solving for p, Initial residual = 0.711758, Final residual = 9.60065e-05, No Iterations 760
[INFO] SolveP: 357.828 [ms]
time step continuity errors : sum local = 1.22457e-08, global = -2.52472e-21, cumulative = -1.22841e-20
[INFO] ContinuityError: 5.258 [ms]
[INFO] CorrectBoundary: 0.081 [ms]
[INFO] PISOStep: 392.174 [ms]
[INFO] TimeStep: 1010.96 [ms]
ExecutionTime = 12.25 s  ClockTime = 16 s

Time = 0.00125

Courant Number mean: 0.0333215 max: 0.47302
[INFO] MatrixAssemblyU: 12.738 [ms]
DILUPBiCGStab:  Solving for Ux, Initial residual = 0.0271708, Final residual = 0.000995686, No Iterations 5
DILUPBiCGStab:  Solving for Uy, Initial residual = 0.0816377, Final residual = 0.00383072, No Iterations 5
DILUPBiCGStab:  Solving for Uz, Initial residual = 0.465162, Final residual = 0.0125867, No Iterations 5
[INFO] MomentumPredictor: 124.452 [ms]
[INFO] MatrixAssemblyPI: 14.02 [ms]
[INFO] AdjustPhi: 2.212 [ms]
[INFO] ConstrainPressure: 0.001 [ms]
[INFO] MatrixAssemblyPII: 4.485 [ms]
[OGL LOG][Proc: 0]: global_index_init: 0.062 [ms]
[OGL LOG][Proc: 0]p_local_coeffs: call_update: 0 [ms]
[OGL LOG][Proc: 0]p_non_local_coeffs: call_update: 0 [ms]
[OGL LOG][Proc: 0]p: update_local_matrix_data: 3.1 [ms]
[OGL LOG][Proc: 0]p: update_non_local_matrix_data: 0.133 [ms]
[OGL LOG][Proc: 0]p: regenerate_distributed_matrix: 12.108 [ms]
[OGL LOG][Proc: 0]p_matrix: call_update: 12.422 [ms]
[OGL LOG][Proc: 0]p_rhs: call_update: 0.561 [ms]
[OGL LOG][Proc: 0]p: init_precond: 0.038 [ms]
[OGL LOG][StoppingCriterion.H:239] Creating stopping criterion with minIter 456 frequency 8
[OGL LOG][Proc: 0]p: generate_solver: 0.02 [ms]
[OGL LOG][Proc: 0]p: solve: 333.726 [ms]
[OGL LOG][Proc: 0]p: copy_x_back: 0.267 [ms]
[OGL LOG][lduLduBase.H:330] 
Statistics:
	Time per iteration: 447 [mu s]
	Time per residual norm calculation: 101.000000 [mu s]
	Time per iteration and DOF: 0.055875 [ns]
	Retrieve results bandwidth 4.946000 [GByte/s]
[OGL LOG][Proc: 0]p: solve_multi_gpu: 348.173 [ms]
nonedpcppGKOCG:  Solving for p, Initial residual = 0.777954, Final residual = 9.22808e-05, No Iterations 745
[INFO] SolveP: 352.674 [ms]
time step continuity errors : sum local = 9.57711e-09, global = -2.09578e-21, cumulative = -1.43798e-20
[INFO] ContinuityError: 5.104 [ms]
[INFO] CorrectBoundary: 0.122 [ms]
[INFO] PISOStep: 384.607 [ms]
[INFO] MatrixAssemblyPI: 13.552 [ms]
[INFO] AdjustPhi: 4.414 [ms]
[INFO] ConstrainPressure: 0.001 [ms]
[INFO] MatrixAssemblyPII: 4.588 [ms]
[OGL LOG][Proc: 0]: global_index_init: 0.442 [ms]
[OGL LOG][Proc: 0]p_local_coeffs: call_update: 0 [ms]
[OGL LOG][Proc: 0]p_non_local_coeffs: call_update: 0 [ms]
[OGL LOG][Proc: 0]p: update_local_matrix_data: 2.799 [ms]
[OGL LOG][Proc: 0]p: update_non_local_matrix_data: 0.138 [ms]
[OGL LOG][Proc: 0]p: regenerate_distributed_matrix: 11.528 [ms]
[OGL LOG][Proc: 0]p_matrix: call_update: 11.85 [ms]
[OGL LOG][Proc: 0]p_rhs: call_update: 0.693 [ms]
[OGL LOG][Proc: 0]p: init_precond: 0.039 [ms]
[OGL LOG][StoppingCriterion.H:239] Creating stopping criterion with minIter 447 frequency 8
[OGL LOG][Proc: 0]p: generate_solver: 0.018 [ms]
[OGL LOG][Proc: 0]p: solve: 338.521 [ms]
[OGL LOG][Proc: 0]p: copy_x_back: 0.273 [ms]
[OGL LOG][lduLduBase.H:330] 
Statistics:
	Time per iteration: 454 [mu s]
	Time per residual norm calculation: 100.000000 [mu s]
	Time per iteration and DOF: 0.056750 [ns]
	Retrieve results bandwidth 4.837000 [GByte/s]
[OGL LOG][Proc: 0]p: solve_multi_gpu: 352.993 [ms]
nonedpcppGKOCG:  Solving for p, Initial residual = 0.726942, Final residual = 8.69599e-05, No Iterations 745
[INFO] SolveP: 357.294 [ms]
time step continuity errors : sum local = 8.79794e-09, global = -1.4622e-21, cumulative = -1.5842e-20
[INFO] ContinuityError: 4.754 [ms]
[INFO] CorrectBoundary: 0.463 [ms]
[INFO] PISOStep: 391.783 [ms]
[INFO] TimeStep: 918.443 [ms]
ExecutionTime = 13.16 s  ClockTime = 17 s

Time = 0.0015

Courant Number mean: 0.0366204 max: 0.475534
[INFO] MatrixAssemblyU: 12.665 [ms]
DILUPBiCGStab:  Solving for Ux, Initial residual = 0.0204889, Final residual = 0.000715107, No Iterations 5
DILUPBiCGStab:  Solving for Uy, Initial residual = 0.0660109, Final residual = 0.00267067, No Iterations 5
DILUPBiCGStab:  Solving for Uz, Initial residual = 0.338465, Final residual = 0.009224, No Iterations 5
[INFO] MomentumPredictor: 128.042 [ms]
[INFO] MatrixAssemblyPI: 14.332 [ms]
[INFO] AdjustPhi: 3.309 [ms]
[INFO] ConstrainPressure: 0.002 [ms]
[INFO] MatrixAssemblyPII: 4.532 [ms]
[OGL LOG][Proc: 0]: global_index_init: 0.062 [ms]
[OGL LOG][Proc: 0]p_local_coeffs: call_update: 0 [ms]
[OGL LOG][Proc: 0]p_non_local_coeffs: call_update: 0 [ms]
[OGL LOG][Proc: 0]p: update_local_matrix_data: 3.202 [ms]
[OGL LOG][Proc: 0]p: update_non_local_matrix_data: 0.136 [ms]
[OGL LOG][Proc: 0]p: regenerate_distributed_matrix: 13.142 [ms]
[OGL LOG][Proc: 0]p_matrix: call_update: 13.539 [ms]
[OGL LOG][Proc: 0]p_rhs: call_update: 0.769 [ms]
[OGL LOG][Proc: 0]p: init_precond: 0.04 [ms]
[OGL LOG][StoppingCriterion.H:239] Creating stopping criterion with minIter 447 frequency 8
[OGL LOG][Proc: 0]p: generate_solver: 0.021 [ms]
[OGL LOG][Proc: 0]p: solve: 336.574 [ms]
[OGL LOG][Proc: 0]p: copy_x_back: 0.276 [ms]
[OGL LOG][lduLduBase.H:330] 
Statistics:
	Time per iteration: 451 [mu s]
	Time per residual norm calculation: 99.000000 [mu s]
	Time per iteration and DOF: 0.056375 [ns]
	Retrieve results bandwidth 4.784000 [GByte/s]
[OGL LOG][Proc: 0]p: solve_multi_gpu: 352.787 [ms]
nonedpcppGKOCG:  Solving for p, Initial residual = 0.688434, Final residual = 9.39229e-05, No Iterations 745
[INFO] SolveP: 356.952 [ms]
time step continuity errors : sum local = 9.80699e-09, global = -2.01483e-21, cumulative = -1.78569e-20
[INFO] ContinuityError: 5.299 [ms]
[INFO] CorrectBoundary: 0.361 [ms]
[INFO] PISOStep: 391.424 [ms]
[INFO] MatrixAssemblyPI: 14.548 [ms]
[INFO] AdjustPhi: 4.342 [ms]
[INFO] ConstrainPressure: 0.001 [ms]
[INFO] MatrixAssemblyPII: 4.588 [ms]
[OGL LOG][Proc: 0]: global_index_init: 0.07 [ms]
[OGL LOG][Proc: 0]p_local_coeffs: call_update: 0 [ms]
[OGL LOG][Proc: 0]p_non_local_coeffs: call_update: 0 [ms]
[OGL LOG][Proc: 0]p: update_local_matrix_data: 2.917 [ms]
[OGL LOG][Proc: 0]p: update_non_local_matrix_data: 0.135 [ms]
[OGL LOG][Proc: 0]p: regenerate_distributed_matrix: 11.263 [ms]
[OGL LOG][Proc: 0]p_matrix: call_update: 11.58 [ms]
[OGL LOG][Proc: 0]p_rhs: call_update: 0.509 [ms]
[OGL LOG][Proc: 0]p: init_precond: 0.04 [ms]
[OGL LOG][StoppingCriterion.H:239] Creating stopping criterion with minIter 447 frequency 8
[OGL LOG][Proc: 0]p: generate_solver: 0.017 [ms]
[OGL LOG][Proc: 0]p: solve: 339.147 [ms]
[OGL LOG][Proc: 0]p: copy_x_back: 0.28 [ms]
[OGL LOG][lduLduBase.H:330] 
Statistics:
	Time per iteration: 455 [mu s]
	Time per residual norm calculation: 101.000000 [mu s]
	Time per iteration and DOF: 0.056875 [ns]
	Retrieve results bandwidth 4.716000 [GByte/s]
[OGL LOG][Proc: 0]p: solve_multi_gpu: 352.589 [ms]
nonedpcppGKOCG:  Solving for p, Initial residual = 0.627804, Final residual = 7.8355e-05, No Iterations 745
[INFO] SolveP: 356.608 [ms]
time step continuity errors : sum local = 7.74458e-09, global = -2.88292e-21, cumulative = -2.07398e-20
[INFO] ContinuityError: 2.826 [ms]
[INFO] CorrectBoundary: 0.173 [ms]
[INFO] PISOStep: 389.834 [ms]
[INFO] TimeStep: 925.197 [ms]
ExecutionTime = 14.09 s  ClockTime = 18 s

Time = 0.00175

Courant Number mean: 0.0395363 max: 0.477477
[INFO] MatrixAssemblyU: 12.761 [ms]
DILUPBiCGStab:  Solving for Ux, Initial residual = 0.0175024, Final residual = 0.000568972, No Iterations 5
DILUPBiCGStab:  Solving for Uy, Initial residual = 0.0492485, Final residual = 0.00192992, No Iterations 5
DILUPBiCGStab:  Solving for Uz, Initial residual = 0.26455, Final residual = 0.00847353, No Iterations 5
[INFO] MomentumPredictor: 124.356 [ms]
[INFO] MatrixAssemblyPI: 13.981 [ms]
[INFO] AdjustPhi: 2.504 [ms]
[INFO] ConstrainPressure: 0.002 [ms]
[INFO] MatrixAssemblyPII: 4.502 [ms]
[OGL LOG][Proc: 0]: global_index_init: 0.047 [ms]
[OGL LOG][Proc: 0]p_local_coeffs: call_update: 0 [ms]
[OGL LOG][Proc: 0]p_non_local_coeffs: call_update: 0 [ms]
[OGL LOG][Proc: 0]p: update_local_matrix_data: 3.262 [ms]
[OGL LOG][Proc: 0]p: update_non_local_matrix_data: 0.144 [ms]
[OGL LOG][Proc: 0]p: regenerate_distributed_matrix: 9.98 [ms]
[OGL LOG][Proc: 0]p_matrix: call_update: 10.214 [ms]
[OGL LOG][Proc: 0]p_rhs: call_update: 0.622 [ms]
[OGL LOG][Proc: 0]p: init_precond: 0.039 [ms]
[OGL LOG][StoppingCriterion.H:239] Creating stopping criterion with minIter 447 frequency 8
[OGL LOG][Proc: 0]p: generate_solver: 0.018 [ms]
[OGL LOG][Proc: 0]p: solve: 686.725 [ms]
[OGL LOG][Proc: 0]p: copy_x_back: 0.282 [ms]
[OGL LOG][lduLduBase.H:330] 
Statistics:
	Time per iteration: 453 [mu s]
	Time per residual norm calculation: 98.000000 [mu s]
	Time per iteration and DOF: 0.056625 [ns]
	Retrieve results bandwidth 4.683000 [GByte/s]
[OGL LOG][Proc: 0]p: solve_multi_gpu: 698.932 [ms]
nonedpcppGKOCG:  Solving for p, Initial residual = 0.682859, Final residual = 9.57947e-05, No Iterations 1513
[INFO] SolveP: 703.255 [ms]
time step continuity errors : sum local = 7.54236e-09, global = -3.82208e-21, cumulative = -2.45619e-20
[INFO] ContinuityError: 5.217 [ms]
[INFO] CorrectBoundary: 0.997 [ms]
[INFO] PISOStep: 737.087 [ms]
[INFO] MatrixAssemblyPI: 14.522 [ms]
[INFO] AdjustPhi: 2.051 [ms]
[INFO] ConstrainPressure: 0.001 [ms]
[INFO] MatrixAssemblyPII: 4.532 [ms]
[OGL LOG][Proc: 0]: global_index_init: 0.081 [ms]
[OGL LOG][Proc: 0]p_local_coeffs: call_update: 0 [ms]
[OGL LOG][Proc: 0]p_non_local_coeffs: call_update: 0 [ms]
[OGL LOG][Proc: 0]p: update_local_matrix_data: 2.942 [ms]
[OGL LOG][Proc: 0]p: update_non_local_matrix_data: 0.15 [ms]
[OGL LOG][Proc: 0]p: regenerate_distributed_matrix: 11.067 [ms]
[OGL LOG][Proc: 0]p_matrix: call_update: 11.285 [ms]
[OGL LOG][Proc: 0]p_rhs: call_update: 0.433 [ms]
[OGL LOG][Proc: 0]p: init_precond: 0.043 [ms]
[OGL LOG][StoppingCriterion.H:239] Creating stopping criterion with minIter 907 frequency 12
[OGL LOG][Proc: 0]p: generate_solver: 0.018 [ms]
[OGL LOG][Proc: 0]p: solve: 681.333 [ms]
[OGL LOG][Proc: 0]p: copy_x_back: 0.279 [ms]
[OGL LOG][lduLduBase.H:330] 
Statistics:
	Time per iteration: 450 [mu s]
	Time per residual norm calculation: 100.000000 [mu s]
	Time per iteration and DOF: 0.056250 [ns]
	Retrieve results bandwidth 4.733000 [GByte/s]
[OGL LOG][Proc: 0]p: solve_multi_gpu: 694.752 [ms]
nonedpcppGKOCG:  Solving for p, Initial residual = 0.623653, Final residual = 9.16982e-05, No Iterations 1513
[INFO] SolveP: 698.695 [ms]
time step continuity errors : sum local = 7.17802e-09, global = -1.4645e-21, cumulative = -2.60264e-20
[INFO] ContinuityError: 4.876 [ms]
[INFO] CorrectBoundary: 0.091 [ms]
[INFO] PISOStep: 731.468 [ms]
[INFO] TimeStep: 1607.87 [ms]
ExecutionTime = 15.69 s  ClockTime = 19 s

Time = 0.002

Courant Number mean: 0.0420622 max: 0.479187
[INFO] MatrixAssemblyU: 12.605 [ms]
DILUPBiCGStab:  Solving for Ux, Initial residual = 0.0143585, Final residual = 0.000431381, No Iterations 5
DILUPBiCGStab:  Solving for Uy, Initial residual = 0.0419176, Final residual = 0.00152659, No Iterations 5
DILUPBiCGStab:  Solving for Uz, Initial residual = 0.206256, Final residual = 0.0065558, No Iterations 5
[INFO] MomentumPredictor: 132.714 [ms]
[INFO] MatrixAssemblyPI: 13.75 [ms]
[INFO] AdjustPhi: 3.058 [ms]
[INFO] ConstrainPressure: 0.001 [ms]
[INFO] MatrixAssemblyPII: 4.598 [ms]
[OGL LOG][Proc: 0]: global_index_init: 0.071 [ms]
[OGL LOG][Proc: 0]p_local_coeffs: call_update: 0 [ms]
[OGL LOG][Proc: 0]p_non_local_coeffs: call_update: 0 [ms]
[OGL LOG][Proc: 0]p: update_local_matrix_data: 3.199 [ms]
[OGL LOG][Proc: 0]p: update_non_local_matrix_data: 0.146 [ms]
[OGL LOG][Proc: 0]p: regenerate_distributed_matrix: 11.663 [ms]
[OGL LOG][Proc: 0]p_matrix: call_update: 11.929 [ms]
[OGL LOG][Proc: 0]p_rhs: call_update: 0.505 [ms]
[OGL LOG][Proc: 0]p: init_precond: 0.04 [ms]
[OGL LOG][StoppingCriterion.H:239] Creating stopping criterion with minIter 907 frequency 12
[OGL LOG][Proc: 0]p: generate_solver: 0.02 [ms]
[OGL LOG][Proc: 0]p: solve: 685.96 [ms]
[OGL LOG][Proc: 0]p: copy_x_back: 0.287 [ms]
[OGL LOG][lduLduBase.H:330] 
Statistics:
	Time per iteration: 449 [mu s]
	Time per residual norm calculation: 102.000000 [mu s]
	Time per iteration and DOF: 0.056125 [ns]
	Retrieve results bandwidth 4.601000 [GByte/s]
[OGL LOG][Proc: 0]p: solve_multi_gpu: 700.167 [ms]
nonedpcppGKOCG:  Solving for p, Initial residual = 0.594557, Final residual = 8.60823e-05, No Iterations 1525
[INFO] SolveP: 704.348 [ms]
time step continuity errors : sum local = 6.47758e-09, global = -2.90083e-21, cumulative = -2.89272e-20
[INFO] ContinuityError: 4.886 [ms]
[INFO] CorrectBoundary: 1.138 [ms]
[INFO] PISOStep: 737.637 [ms]
[INFO] MatrixAssemblyPI: 14.009 [ms]
[INFO] AdjustPhi: 3.735 [ms]
[INFO] ConstrainPressure: 0.001 [ms]
[INFO] MatrixAssemblyPII: 4.56 [ms]
[OGL LOG][Proc: 0]: global_index_init: 0.047 [ms]
[OGL LOG][Proc: 0]p_local_coeffs: call_update: 0 [ms]
[OGL LOG][Proc: 0]p_non_local_coeffs: call_update: 0 [ms]
[OGL LOG][Proc: 0]p: update_local_matrix_data: 2.906 [ms]
[OGL LOG][Proc: 0]p: update_non_local_matrix_data: 0.14 [ms]
[OGL LOG][Proc: 0]p: regenerate_distributed_matrix: 11.784 [ms]
[OGL LOG][Proc: 0]p_matrix: call_update: 12.097 [ms]
[OGL LOG][Proc: 0]p_rhs: call_update: 0.785 [ms]
[OGL LOG][Proc: 0]p: init_precond: 0.041 [ms]
[OGL LOG][StoppingCriterion.H:239] Creating stopping criterion with minIter 915 frequency 12
[OGL LOG][Proc: 0]p: generate_solver: 0.02 [ms]
[OGL LOG][Proc: 0]p: solve: 692.292 [ms]
[OGL LOG][Proc: 0]p: copy_x_back: 0.294 [ms]
[OGL LOG][lduLduBase.H:330] 
Statistics:
	Time per iteration: 453 [mu s]
	Time per residual norm calculation: 99.000000 [mu s]
	Time per iteration and DOF: 0.056625 [ns]
	Retrieve results bandwidth 4.491000 [GByte/s]
[OGL LOG][Proc: 0]p: solve_multi_gpu: 706.6 [ms]
nonedpcppGKOCG:  Solving for p, Initial residual = 0.537295, Final residual = 8.09283e-05, No Iterations 1525
[INFO] SolveP: 710.95 [ms]
time step continuity errors : sum local = 6.0775e-09, global = -4.54708e-21, cumulative = -3.34743e-20
[INFO] ContinuityError: 4.588 [ms]
[INFO] CorrectBoundary: 0.53 [ms]
[INFO] PISOStep: 744.636 [ms]
[INFO] TimeStep: 1632.58 [ms]
ExecutionTime = 17.33 s  ClockTime = 21 s

Time = 0.00225

Courant Number mean: 0.0443491 max: 0.480336
[INFO] MatrixAssemblyU: 12.705 [ms]
DILUPBiCGStab:  Solving for Ux, Initial residual = 0.0126344, Final residual = 0.000353458, No Iterations 5
DILUPBiCGStab:  Solving for Uy, Initial residual = 0.0338039, Final residual = 0.00105888, No Iterations 5
DILUPBiCGStab:  Solving for Uz, Initial residual = 0.16694, Final residual = 0.00613129, No Iterations 5
[INFO] MomentumPredictor: 126.916 [ms]
[INFO] MatrixAssemblyPI: 13.971 [ms]
[INFO] AdjustPhi: 2.74 [ms]
[INFO] ConstrainPressure: 0.001 [ms]
[INFO] MatrixAssemblyPII: 4.535 [ms]
[OGL LOG][Proc: 0]: global_index_init: 0.064 [ms]
[OGL LOG][Proc: 0]p_local_coeffs: call_update: 0 [ms]
[OGL LOG][Proc: 0]p_non_local_coeffs: call_update: 0 [ms]
[OGL LOG][Proc: 0]p: update_local_matrix_data: 3.212 [ms]
[OGL LOG][Proc: 0]p: update_non_local_matrix_data: 0.151 [ms]
[OGL LOG][Proc: 0]p: regenerate_distributed_matrix: 13.404 [ms]
[OGL LOG][Proc: 0]p_matrix: call_update: 13.717 [ms]
[OGL LOG][Proc: 0]p_rhs: call_update: 0.596 [ms]
[OGL LOG][Proc: 0]p: init_precond: 0.04 [ms]
[OGL LOG][StoppingCriterion.H:239] Creating stopping criterion with minIter 915 frequency 12
[OGL LOG][Proc: 0]p: generate_solver: 0.016 [ms]
[OGL LOG][Proc: 0]p: solve: 674.118 [ms]
[OGL LOG][Proc: 0]p: copy_x_back: 0.266 [ms]
[OGL LOG][lduLduBase.H:330] 
Statistics:
	Time per iteration: 449 [mu s]
	Time per residual norm calculation: 102.000000 [mu s]
	Time per iteration and DOF: 0.056125 [ns]
	Retrieve results bandwidth 4.964000 [GByte/s]
[OGL LOG][Proc: 0]p: solve_multi_gpu: 689.729 [ms]
nonedpcppGKOCG:  Solving for p, Initial residual = 0.580648, Final residual = 9.86411e-05, No Iterations 1501
[INFO] SolveP: 693.94 [ms]
time step continuity errors : sum local = 6.3997e-09, global = -4.39441e-21, cumulative = -3.78687e-20
[INFO] ContinuityError: 5.115 [ms]
[INFO] CorrectBoundary: 0.145 [ms]
[INFO] PISOStep: 726.267 [ms]
[INFO] MatrixAssemblyPI: 13.297 [ms]
[INFO] AdjustPhi: 4.872 [ms]
[INFO] ConstrainPressure: 0.001 [ms]
[INFO] MatrixAssemblyPII: 4.57 [ms]
[OGL LOG][Proc: 0]: global_index_init: 0.066 [ms]
[OGL LOG][Proc: 0]p_local_coeffs: call_update: 0 [ms]
[OGL LOG][Proc: 0]p_non_local_coeffs: call_update: 0 [ms]
[OGL LOG][Proc: 0]p: update_local_matrix_data: 2.867 [ms]
[OGL LOG][Proc: 0]p: update_non_local_matrix_data: 0.141 [ms]
[OGL LOG][Proc: 0]p: regenerate_distributed_matrix: 10.904 [ms]
[OGL LOG][Proc: 0]p_matrix: call_update: 11.166 [ms]
[OGL LOG][Proc: 0]p_rhs: call_update: 0.584 [ms]
[OGL LOG][Proc: 0]p: init_precond: 0.041 [ms]
[OGL LOG][StoppingCriterion.H:239] Creating stopping criterion with minIter 900 frequency 12
[OGL LOG][Proc: 0]p: generate_solver: 0.017 [ms]
[OGL LOG][Proc: 0]p: solve: 678.029 [ms]
[OGL LOG][Proc: 0]p: copy_x_back: 0.28 [ms]
[OGL LOG][lduLduBase.H:330] 
Statistics:
	Time per iteration: 451 [mu s]
	Time per residual norm calculation: 100.000000 [mu s]
	Time per iteration and DOF: 0.056375 [ns]
	Retrieve results bandwidth 4.716000 [GByte/s]
[OGL LOG][Proc: 0]p: solve_multi_gpu: 691.32 [ms]
nonedpcppGKOCG:  Solving for p, Initial residual = 0.520233, Final residual = 9.30045e-05, No Iterations 1501
[INFO] SolveP: 695.221 [ms]
time step continuity errors : sum local = 6.02891e-09, global = -2.56038e-21, cumulative = -4.04291e-20
[INFO] ContinuityError: 5.049 [ms]
[INFO] CorrectBoundary: 0.77 [ms]
[INFO] PISOStep: 730.302 [ms]
[INFO] TimeStep: 1599.8 [ms]
ExecutionTime = 18.93 s  ClockTime = 22 s

Time = 0.0025

Courant Number mean: 0.0464051 max: 0.481446
[INFO] MatrixAssemblyU: 12.884 [ms]
DILUPBiCGStab:  Solving for Ux, Initial residual = 0.0108731, Final residual = 0.00028158, No Iterations 5
DILUPBiCGStab:  Solving for Uy, Initial residual = 0.0295904, Final residual = 0.000888275, No Iterations 5
DILUPBiCGStab:  Solving for Uz, Initial residual = 0.13505, Final residual = 0.00506085, No Iterations 5
[INFO] MomentumPredictor: 124.142 [ms]
[INFO] MatrixAssemblyPI: 13.957 [ms]
[INFO] AdjustPhi: 2.6 [ms]
[INFO] ConstrainPressure: 0.002 [ms]
[INFO] MatrixAssemblyPII: 4.586 [ms]
[OGL LOG][Proc: 0]: global_index_init: 0.082 [ms]
[OGL LOG][Proc: 0]p_local_coeffs: call_update: 0 [ms]
[OGL LOG][Proc: 0]p_non_local_coeffs: call_update: 0 [ms]
[OGL LOG][Proc: 0]p: update_local_matrix_data: 2.871 [ms]
[OGL LOG][Proc: 0]p: update_non_local_matrix_data: 0.152 [ms]
[OGL LOG][Proc: 0]p: regenerate_distributed_matrix: 13.781 [ms]
[OGL LOG][Proc: 0]p_matrix: call_update: 14.03 [ms]
[OGL LOG][Proc: 0]p_rhs: call_update: 0.529 [ms]
[OGL LOG][Proc: 0]p: init_precond: 0.039 [ms]
[OGL LOG][StoppingCriterion.H:239] Creating stopping criterion with minIter 900 frequency 12
[OGL LOG][Proc: 0]p: generate_solver: 0.019 [ms]
[OGL LOG][Proc: 0]p: solve: 653.331 [ms]
[OGL LOG][Proc: 0]p: copy_x_back: 0.276 [ms]
[OGL LOG][lduLduBase.H:330] 
Statistics:
	Time per iteration: 449 [mu s]
	Time per residual norm calculation: 106.000000 [mu s]
	Time per iteration and DOF: 0.056125 [ns]
	Retrieve results bandwidth 4.784000 [GByte/s]
[OGL LOG][Proc: 0]p: solve_multi_gpu: 669.447 [ms]
nonedpcppGKOCG:  Solving for p, Initial residual = 0.506053, Final residual = 7.11129e-05, No Iterations 1453
[INFO] SolveP: 673.329 [ms]
time step continuity errors : sum local = 4.49322e-09, global = -3.03347e-21, cumulative = -4.34626e-20
[INFO] ContinuityError: 4.735 [ms]
[INFO] CorrectBoundary: 0.086 [ms]
[INFO] PISOStep: 705.226 [ms]
[INFO] MatrixAssemblyPI: 14.623 [ms]
[INFO] AdjustPhi: 6.86 [ms]
[INFO] ConstrainPressure: 0.001 [ms]
[INFO] MatrixAssemblyPII: 4.484 [ms]
[OGL LOG][Proc: 0]: global_index_init: 0.067 [ms]
[OGL LOG][Proc: 0]p_local_coeffs: call_update: 0 [ms]
[OGL LOG][Proc: 0]p_non_local_coeffs: call_update: 0 [ms]
[OGL LOG][Proc: 0]p: update_local_matrix_data: 2.944 [ms]
[OGL LOG][Proc: 0]p: update_non_local_matrix_data: 0.138 [ms]
[OGL LOG][Proc: 0]p: regenerate_distributed_matrix: 11.653 [ms]
[OGL LOG][Proc: 0]p_matrix: call_update: 11.876 [ms]
[OGL LOG][Proc: 0]p_rhs: call_update: 0.793 [ms]
[OGL LOG][Proc: 0]p: init_precond: 0.04 [ms]
[OGL LOG][StoppingCriterion.H:239] Creating stopping criterion with minIter 871 frequency 12
[OGL LOG][Proc: 0]p: generate_solver: 0.019 [ms]
[OGL LOG][Proc: 0]p: solve: 653.323 [ms]
[OGL LOG][Proc: 0]p: copy_x_back: 0.277 [ms]
[OGL LOG][lduLduBase.H:330] 
Statistics:
	Time per iteration: 449 [mu s]
	Time per residual norm calculation: 100.000000 [mu s]
	Time per iteration and DOF: 0.056125 [ns]
	Retrieve results bandwidth 4.767000 [GByte/s]
[OGL LOG][Proc: 0]p: solve_multi_gpu: 667.744 [ms]
nonedpcppGKOCG:  Solving for p, Initial residual = 0.453562, Final residual = 8.8909e-05, No Iterations 1453
[INFO] SolveP: 671.674 [ms]
time step continuity errors : sum local = 5.59501e-09, global = -5.83034e-21, cumulative = -4.92929e-20
[INFO] ContinuityError: 4.192 [ms]
[INFO] CorrectBoundary: 0.085 [ms]
[INFO] PISOStep: 708.222 [ms]
[INFO] TimeStep: 1553.56 [ms]
ExecutionTime = 20.48 s  ClockTime = 24 s

Time = 0.00275

Courant Number mean: 0.0482954 max: 0.482218
[INFO] MatrixAssemblyU: 12.633 [ms]
DILUPBiCGStab:  Solving for Ux, Initial residual = 0.00973643, Final residual = 0.000237983, No Iterations 5
DILUPBiCGStab:  Solving for Uy, Initial residual = 0.0250621, Final residual = 0.000621461, No Iterations 5
DILUPBiCGStab:  Solving for Uz, Initial residual = 0.113448, Final residual = 0.00478845, No Iterations 5
[INFO] MomentumPredictor: 127.43 [ms]
[INFO] MatrixAssemblyPI: 13.979 [ms]
[INFO] AdjustPhi: 2.666 [ms]
[INFO] ConstrainPressure: 0.001 [ms]
[INFO] MatrixAssemblyPII: 4.484 [ms]
[OGL LOG][Proc: 0]: global_index_init: 0.078 [ms]
[OGL LOG][Proc: 0]p_local_coeffs: call_update: 0 [ms]
[OGL LOG][Proc: 0]p_non_local_coeffs: call_update: 0 [ms]
[OGL LOG][Proc: 0]p: update_local_matrix_data: 3.211 [ms]
[OGL LOG][Proc: 0]p: update_non_local_matrix_data: 0.137 [ms]
[OGL LOG][Proc: 0]p: regenerate_distributed_matrix: 11.53 [ms]
[OGL LOG][Proc: 0]p_matrix: call_update: 11.847 [ms]
[OGL LOG][Proc: 0]p_rhs: call_update: 0.559 [ms]
[OGL LOG][Proc: 0]p: init_precond: 0.039 [ms]
[OGL LOG][StoppingCriterion.H:239] Creating stopping criterion with minIter 871 frequency 12
[OGL LOG][Proc: 0]p: generate_solver: 0.02 [ms]
[OGL LOG][Proc: 0]p: solve: 667.018 [ms]
[OGL LOG][Proc: 0]p: copy_x_back: 0.293 [ms]
[OGL LOG][lduLduBase.H:330] 
Statistics:
	Time per iteration: 447 [mu s]
	Time per residual norm calculation: 99.000000 [mu s]
	Time per iteration and DOF: 0.055875 [ns]
	Retrieve results bandwidth 4.507000 [GByte/s]
[OGL LOG][Proc: 0]p: solve_multi_gpu: 680.814 [ms]
nonedpcppGKOCG:  Solving for p, Initial residual = 0.48087, Final residual = 9.23227e-05, No Iterations 1489
[INFO] SolveP: 685.08 [ms]
time step continuity errors : sum local = 5.24965e-09, global = -2.39351e-21, cumulative = -5.16864e-20
[INFO] ContinuityError: 2.778 [ms]
[INFO] CorrectBoundary: 0.149 [ms]
[INFO] PISOStep: 715.181 [ms]
[INFO] MatrixAssemblyPI: 13.572 [ms]
[INFO] AdjustPhi: 7.475 [ms]
[INFO] ConstrainPressure: 0.001 [ms]
[INFO] MatrixAssemblyPII: 4.464 [ms]
[OGL LOG][Proc: 0]: global_index_init: 0.063 [ms]
[OGL LOG][Proc: 0]p_local_coeffs: call_update: 0 [ms]
[OGL LOG][Proc: 0]p_non_local_coeffs: call_update: 0 [ms]
[OGL LOG][Proc: 0]p: update_local_matrix_data: 2.853 [ms]
[OGL LOG][Proc: 0]p: update_non_local_matrix_data: 0.134 [ms]
[OGL LOG][Proc: 0]p: regenerate_distributed_matrix: 11.087 [ms]
[OGL LOG][Proc: 0]p_matrix: call_update: 11.41 [ms]
[OGL LOG][Proc: 0]p_rhs: call_update: 0.791 [ms]
[OGL LOG][Proc: 0]p: init_precond: 0.039 [ms]
[OGL LOG][StoppingCriterion.H:239] Creating stopping criterion with minIter 893 frequency 12
[OGL LOG][Proc: 0]p: generate_solver: 0.018 [ms]
[OGL LOG][Proc: 0]p: solve: 673.468 [ms]
[OGL LOG][Proc: 0]p: copy_x_back: 0.277 [ms]
[OGL LOG][lduLduBase.H:330] 
Statistics:
	Time per iteration: 452 [mu s]
	Time per residual norm calculation: 99.000000 [mu s]
	Time per iteration and DOF: 0.056500 [ns]
	Retrieve results bandwidth 4.767000 [GByte/s]
[OGL LOG][Proc: 0]p: solve_multi_gpu: 687.576 [ms]
nonedpcppGKOCG:  Solving for p, Initial residual = 0.426722, Final residual = 8.65363e-05, No Iterations 1489
[INFO] SolveP: 691.545 [ms]
time step continuity errors : sum local = 4.92402e-09, global = -4.43161e-21, cumulative = -5.6118e-20
[INFO] ContinuityError: 4.978 [ms]
[INFO] CorrectBoundary: 0.079 [ms]
[INFO] PISOStep: 728.736 [ms]
[INFO] TimeStep: 1587.98 [ms]
ExecutionTime = 22.06 s  ClockTime = 26 s

Time = 0.003

Courant Number mean: 0.0500305 max: 0.483011
[INFO] MatrixAssemblyU: 12.837 [ms]
DILUPBiCGStab:  Solving for Ux, Initial residual = 0.00863924, Final residual = 0.000200927, No Iterations 5
DILUPBiCGStab:  Solving for Uy, Initial residual = 0.022374, Final residual = 0.000532796, No Iterations 5
DILUPBiCGStab:  Solving for Uz, Initial residual = 0.0945655, Final residual = 0.00404818, No Iterations 5
[INFO] MomentumPredictor: 125.992 [ms]
[INFO] MatrixAssemblyPI: 13.781 [ms]
[INFO] AdjustPhi: 4.746 [ms]
[INFO] ConstrainPressure: 0.001 [ms]
[INFO] MatrixAssemblyPII: 4.574 [ms]
[OGL LOG][Proc: 0]: global_index_init: 0.077 [ms]
[OGL LOG][Proc: 0]p_local_coeffs: call_update: 0 [ms]
[OGL LOG][Proc: 0]p_non_local_coeffs: call_update: 0 [ms]
[OGL LOG][Proc: 0]p: update_local_matrix_data: 3.029 [ms]
[OGL LOG][Proc: 0]p: update_non_local_matrix_data: 0.147 [ms]
[OGL LOG][Proc: 0]p: regenerate_distributed_matrix: 13.56 [ms]
[OGL LOG][Proc: 0]p_matrix: call_update: 13.814 [ms]
[OGL LOG][Proc: 0]p_rhs: call_update: 0.57 [ms]
[OGL LOG][Proc: 0]p: init_precond: 0.038 [ms]
[OGL LOG][StoppingCriterion.H:239] Creating stopping criterion with minIter 893 frequency 12
[OGL LOG][Proc: 0]p: generate_solver: 0.018 [ms]
[OGL LOG][Proc: 0]p: solve: 673.518 [ms]
[OGL LOG][Proc: 0]p: copy_x_back: 0.263 [ms]
[OGL LOG][lduLduBase.H:330] 
Statistics:
	Time per iteration: 452 [mu s]
	Time per residual norm calculation: 101.000000 [mu s]
	Time per iteration and DOF: 0.056500 [ns]
	Retrieve results bandwidth 5.021000 [GByte/s]
[OGL LOG][Proc: 0]p: solve_multi_gpu: 689.799 [ms]
nonedpcppGKOCG:  Solving for p, Initial residual = 0.425019, Final residual = 9.64158e-05, No Iterations 1489
[INFO] SolveP: 694.104 [ms]
time step continuity errors : sum local = 5.33911e-09, global = -6.23441e-21, cumulative = -6.23524e-20
[INFO] ContinuityError: 4.521 [ms]
[INFO] CorrectBoundary: 1.035 [ms]
[INFO] PISOStep: 729.449 [ms]
[INFO] MatrixAssemblyPI: 14.526 [ms]
[INFO] AdjustPhi: 2.526 [ms]
[INFO] ConstrainPressure: 0.001 [ms]
[INFO] MatrixAssemblyPII: 4.486 [ms]
[OGL LOG][Proc: 0]: global_index_init: 0.06 [ms]
[OGL LOG][Proc: 0]p_local_coeffs: call_update: 0 [ms]
[OGL LOG][Proc: 0]p_non_local_coeffs: call_update: 0 [ms]
[OGL LOG][Proc: 0]p: update_local_matrix_data: 2.926 [ms]
[OGL LOG][Proc: 0]p: update_non_local_matrix_data: 0.154 [ms]
[OGL LOG][Proc: 0]p: regenerate_distributed_matrix: 12.344 [ms]
[OGL LOG][Proc: 0]p_matrix: call_update: 12.704 [ms]
[OGL LOG][Proc: 0]p_rhs: call_update: 0.371 [ms]
[OGL LOG][Proc: 0]p: init_precond: 0.039 [ms]
[OGL LOG][StoppingCriterion.H:239] Creating stopping criterion with minIter 893 frequency 12
[OGL LOG][Proc: 0]p: generate_solver: 0.018 [ms]
[OGL LOG][Proc: 0]p: solve: 666.788 [ms]
[OGL LOG][Proc: 0]p: copy_x_back: 0.284 [ms]
[OGL LOG][lduLduBase.H:330] 
Statistics:
	Time per iteration: 447 [mu s]
	Time per residual norm calculation: 103.000000 [mu s]
	Time per iteration and DOF: 0.055875 [ns]
	Retrieve results bandwidth 4.650000 [GByte/s]
[OGL LOG][Proc: 0]p: solve_multi_gpu: 681.215 [ms]
nonedpcppGKOCG:  Solving for p, Initial residual = 0.378685, Final residual = 9.04408e-05, No Iterations 1489
[INFO] SolveP: 685.165 [ms]
time step continuity errors : sum local = 4.98696e-09, global = -4.87265e-21, cumulative = -6.72251e-20
[INFO] ContinuityError: 4.577 [ms]
[INFO] CorrectBoundary: 0.469 [ms]
[INFO] PISOStep: 718.351 [ms]
[INFO] TimeStep: 1591.45 [ms]
ExecutionTime = 23.66 s  ClockTime = 27 s

Time = 0.00325

Courant Number mean: 0.0516426 max: 0.483578
[INFO] MatrixAssemblyU: 12.892 [ms]
DILUPBiCGStab:  Solving for Ux, Initial residual = 0.00783808, Final residual = 0.000174881, No Iterations 5
DILUPBiCGStab:  Solving for Uy, Initial residual = 0.0195843, Final residual = 0.000402645, No Iterations 5
DILUPBiCGStab:  Solving for Uz, Initial residual = 0.0809885, Final residual = 0.0037663, No Iterations 5
[INFO] MomentumPredictor: 125.085 [ms]
[INFO] MatrixAssemblyPI: 13.924 [ms]
[INFO] AdjustPhi: 2.94 [ms]
[INFO] ConstrainPressure: 0.002 [ms]
[INFO] MatrixAssemblyPII: 4.589 [ms]
[OGL LOG][Proc: 0]: global_index_init: 0.077 [ms]
[OGL LOG][Proc: 0]p_local_coeffs: call_update: 0 [ms]
[OGL LOG][Proc: 0]p_non_local_coeffs: call_update: 0 [ms]
[OGL LOG][Proc: 0]p: update_local_matrix_data: 3.163 [ms]
[OGL LOG][Proc: 0]p: update_non_local_matrix_data: 0.15 [ms]
[OGL LOG][Proc: 0]p: regenerate_distributed_matrix: 11.743 [ms]
[OGL LOG][Proc: 0]p_matrix: call_update: 12.095 [ms]
[OGL LOG][Proc: 0]p_rhs: call_update: 0.392 [ms]
[OGL LOG][Proc: 0]p: init_precond: 0.037 [ms]
[OGL LOG][StoppingCriterion.H:239] Creating stopping criterion with minIter 893 frequency 12
[OGL LOG][Proc: 0]p: generate_solver: 0.019 [ms]
[OGL LOG][Proc: 0]p: solve: 668.602 [ms]
[OGL LOG][Proc: 0]p: copy_x_back: 0.273 [ms]
[OGL LOG][lduLduBase.H:330] 
Statistics:
	Time per iteration: 449 [mu s]
	Time per residual norm calculation: 99.000000 [mu s]
	Time per iteration and DOF: 0.056125 [ns]
	Retrieve results bandwidth 4.837000 [GByte/s]
[OGL LOG][Proc: 0]p: solve_multi_gpu: 682.37 [ms]
nonedpcppGKOCG:  Solving for p, Initial residual = 0.393596, Final residual = 8.23668e-05, No Iterations 1489
[INFO] SolveP: 686.724 [ms]
time step continuity errors : sum local = 4.2498e-09, global = -3.20167e-21, cumulative = -7.04267e-20
[INFO] ContinuityError: 5.047 [ms]
[INFO] CorrectBoundary: 0.187 [ms]
[INFO] PISOStep: 719.591 [ms]
[INFO] MatrixAssemblyPI: 14.218 [ms]
[INFO] AdjustPhi: 3.942 [ms]
[INFO] ConstrainPressure: 0.001 [ms]
[INFO] MatrixAssemblyPII: 4.734 [ms]
[OGL LOG][Proc: 0]: global_index_init: 0.077 [ms]
[OGL LOG][Proc: 0]p_local_coeffs: call_update: 0 [ms]
[OGL LOG][Proc: 0]p_non_local_coeffs: call_update: 0 [ms]
[OGL LOG][Proc: 0]p: update_local_matrix_data: 2.914 [ms]
[OGL LOG][Proc: 0]p: update_non_local_matrix_data: 0.147 [ms]
[OGL LOG][Proc: 0]p: regenerate_distributed_matrix: 11.407 [ms]
[OGL LOG][Proc: 0]p_matrix: call_update: 11.726 [ms]
[OGL LOG][Proc: 0]p_rhs: call_update: 0.898 [ms]
[OGL LOG][Proc: 0]p: init_precond: 0.041 [ms]
[OGL LOG][StoppingCriterion.H:239] Creating stopping criterion with minIter 893 frequency 12
[OGL LOG][Proc: 0]p: generate_solver: 0.018 [ms]
[OGL LOG][Proc: 0]p: solve: 669.56 [ms]
[OGL LOG][Proc: 0]p: copy_x_back: 0.275 [ms]
[OGL LOG][lduLduBase.H:330] 
Statistics:
	Time per iteration: 449 [mu s]
	Time per residual norm calculation: 101.000000 [mu s]
	Time per iteration and DOF: 0.056125 [ns]
	Retrieve results bandwidth 4.802000 [GByte/s]
[OGL LOG][Proc: 0]p: solve_multi_gpu: 683.434 [ms]
nonedpcppGKOCG:  Solving for p, Initial residual = 0.347438, Final residual = 7.78212e-05, No Iterations 1489
[INFO] SolveP: 687.755 [ms]
time step continuity errors : sum local = 4.01929e-09, global = -9.28132e-22, cumulative = -7.13549e-20
[INFO] ContinuityError: 5.324 [ms]
[INFO] CorrectBoundary: 0.699 [ms]
[INFO] PISOStep: 722.574 [ms]
[INFO] TimeStep: 1583.42 [ms]
ExecutionTime = 25.24 s  ClockTime = 29 s

Time = 0.0035

Courant Number mean: 0.0531398 max: 0.484175
[INFO] MatrixAssemblyU: 12.569 [ms]
DILUPBiCGStab:  Solving for Ux, Initial residual = 0.00710032, Final residual = 0.00015397, No Iterations 5
DILUPBiCGStab:  Solving for Uy, Initial residual = 0.0177508, Final residual = 0.000351658, No Iterations 5
DILUPBiCGStab:  Solving for Uz, Initial residual = 0.0698402, Final residual = 0.00328472, No Iterations 5
[INFO] MomentumPredictor: 130.462 [ms]
[INFO] MatrixAssemblyPI: 14.607 [ms]
[INFO] AdjustPhi: 4.504 [ms]
[INFO] ConstrainPressure: 0.001 [ms]
[INFO] MatrixAssemblyPII: 4.503 [ms]
[OGL LOG][Proc: 0]: global_index_init: 0.051 [ms]
[OGL LOG][Proc: 0]p_local_coeffs: call_update: 0 [ms]
[OGL LOG][Proc: 0]p_non_local_coeffs: call_update: 0 [ms]
[OGL LOG][Proc: 0]p: update_local_matrix_data: 3.133 [ms]
[OGL LOG][Proc: 0]p: update_non_local_matrix_data: 0.164 [ms]
[OGL LOG][Proc: 0]p: regenerate_distributed_matrix: 12.054 [ms]
[OGL LOG][Proc: 0]p_matrix: call_update: 12.437 [ms]
[OGL LOG][Proc: 0]p_rhs: call_update: 0.559 [ms]
[OGL LOG][Proc: 0]p: init_precond: 0.038 [ms]
[OGL LOG][StoppingCriterion.H:239] Creating stopping criterion with minIter 893 frequency 12
[OGL LOG][Proc: 0]p: generate_solver: 0.02 [ms]
[OGL LOG][Proc: 0]p: solve: 664.443 [ms]
[OGL LOG][Proc: 0]p: copy_x_back: 0.275 [ms]
[OGL LOG][lduLduBase.H:330] 
Statistics:
	Time per iteration: 446 [mu s]
	Time per residual norm calculation: 100.000000 [mu s]
	Time per iteration and DOF: 0.055750 [ns]
	Retrieve results bandwidth 4.802000 [GByte/s]
[OGL LOG][Proc: 0]p: solve_multi_gpu: 678.921 [ms]
nonedpcppGKOCG:  Solving for p, Initial residual = 0.352445, Final residual = 8.53561e-05, No Iterations 1489
[INFO] SolveP: 683.027 [ms]
time step continuity errors : sum local = 4.26637e-09, global = -2.97201e-21, cumulative = -7.43269e-20
[INFO] ContinuityError: 5.039 [ms]
[INFO] CorrectBoundary: 0.112 [ms]
[INFO] PISOStep: 718.105 [ms]
[INFO] MatrixAssemblyPI: 14.837 [ms]
[INFO] AdjustPhi: 3.585 [ms]
[INFO] ConstrainPressure: 0.001 [ms]
[INFO] MatrixAssemblyPII: 4.446 [ms]
[OGL LOG][Proc: 0]: global_index_init: 0.053 [ms]
[OGL LOG][Proc: 0]p_local_coeffs: call_update: 0 [ms]
[OGL LOG][Proc: 0]p_non_local_coeffs: call_update: 0 [ms]
[OGL LOG][Proc: 0]p: update_local_matrix_data: 2.967 [ms]
[OGL LOG][Proc: 0]p: update_non_local_matrix_data: 0.15 [ms]
[OGL LOG][Proc: 0]p: regenerate_distributed_matrix: 11.723 [ms]
[OGL LOG][Proc: 0]p_matrix: call_update: 12.043 [ms]
[OGL LOG][Proc: 0]p_rhs: call_update: 0.838 [ms]
[OGL LOG][Proc: 0]p: init_precond: 0.042 [ms]
[OGL LOG][StoppingCriterion.H:239] Creating stopping criterion with minIter 893 frequency 12
[OGL LOG][Proc: 0]p: generate_solver: 0.018 [ms]
[OGL LOG][Proc: 0]p: solve: 655.58 [ms]
[OGL LOG][Proc: 0]p: copy_x_back: 0.283 [ms]
[OGL LOG][lduLduBase.H:330] 
Statistics:
	Time per iteration: 440 [mu s]
	Time per residual norm calculation: 103.000000 [mu s]
	Time per iteration and DOF: 0.055000 [ns]
	Retrieve results bandwidth 4.666000 [GByte/s]
[OGL LOG][Proc: 0]p: solve_multi_gpu: 669.82 [ms]
nonedpcppGKOCG:  Solving for p, Initial residual = 0.312874, Final residual = 7.99674e-05, No Iterations 1489
[INFO] SolveP: 673.799 [ms]
time step continuity errors : sum local = 3.98176e-09, global = -5.47217e-21, cumulative = -7.97991e-20
[INFO] ContinuityError: 4.55 [ms]
[INFO] CorrectBoundary: 0.085 [ms]
[INFO] PISOStep: 707.76 [ms]
[INFO] TimeStep: 1572.52 [ms]
ExecutionTime = 26.81 s  ClockTime = 30 s

Time = 0.00375

Courant Number mean: 0.0545434 max: 0.484616
[INFO] MatrixAssemblyU: 12.7 [ms]
DILUPBiCGStab:  Solving for Ux, Initial residual = 0.00650911, Final residual = 0.000136692, No Iterations 5
DILUPBiCGStab:  Solving for Uy, Initial residual = 0.0158991, Final residual = 0.000295117, No Iterations 5
DILUPBiCGStab:  Solving for Uz, Initial residual = 0.0604354, Final residual = 0.00299185, No Iterations 5
[INFO] MomentumPredictor: 113.345 [ms]
[INFO] MatrixAssemblyPI: 13.77 [ms]
[INFO] AdjustPhi: 3.372 [ms]
[INFO] ConstrainPressure: 0.001 [ms]
[INFO] MatrixAssemblyPII: 4.535 [ms]
[OGL LOG][Proc: 0]: global_index_init: 0.058 [ms]
[OGL LOG][Proc: 0]p_local_coeffs: call_update: 0 [ms]
[OGL LOG][Proc: 0]p_non_local_coeffs: call_update: 0 [ms]
[OGL LOG][Proc: 0]p: update_local_matrix_data: 3.225 [ms]
[OGL LOG][Proc: 0]p: update_non_local_matrix_data: 0.158 [ms]
[OGL LOG][Proc: 0]p: regenerate_distributed_matrix: 12.639 [ms]
[OGL LOG][Proc: 0]p_matrix: call_update: 12.967 [ms]
[OGL LOG][Proc: 0]p_rhs: call_update: 0.526 [ms]
[OGL LOG][Proc: 0]p: init_precond: 0.038 [ms]
[OGL LOG][StoppingCriterion.H:239] Creating stopping criterion with minIter 893 frequency 12
[OGL LOG][Proc: 0]p: generate_solver: 0.02 [ms]
[OGL LOG][Proc: 0]p: solve: 658.273 [ms]
[OGL LOG][Proc: 0]p: copy_x_back: 0.296 [ms]
[OGL LOG][lduLduBase.H:330] 
Statistics:
	Time per iteration: 442 [mu s]
	Time per residual norm calculation: 100.000000 [mu s]
	Time per iteration and DOF: 0.055250 [ns]
	Retrieve results bandwidth 4.461000 [GByte/s]
[OGL LOG][Proc: 0]p: solve_multi_gpu: 673.176 [ms]
nonedpcppGKOCG:  Solving for p, Initial residual = 0.319033, Final residual = 7.13284e-05, No Iterations 1489
[INFO] SolveP: 677.388 [ms]
time step continuity errors : sum local = 3.41163e-09, global = -6.92298e-21, cumulative = -8.6722e-20
[INFO] ContinuityError: 4.392 [ms]
[INFO] CorrectBoundary: 0.225 [ms]
[INFO] PISOStep: 711.809 [ms]
[INFO] MatrixAssemblyPI: 13.554 [ms]
[INFO] AdjustPhi: 3.273 [ms]
[INFO] ConstrainPressure: 0.001 [ms]
[INFO] MatrixAssemblyPII: 4.691 [ms]
[OGL LOG][Proc: 0]: global_index_init: 0.081 [ms]
[OGL LOG][Proc: 0]p_local_coeffs: call_update: 0 [ms]
[OGL LOG][Proc: 0]p_non_local_coeffs: call_update: 0 [ms]
[OGL LOG][Proc: 0]p: update_local_matrix_data: 2.959 [ms]
[OGL LOG][Proc: 0]p: update_non_local_matrix_data: 0.136 [ms]
[OGL LOG][Proc: 0]p: regenerate_distributed_matrix: 11.338 [ms]
[OGL LOG][Proc: 0]p_matrix: call_update: 11.649 [ms]
[OGL LOG][Proc: 0]p_rhs: call_update: 0.537 [ms]
[OGL LOG][Proc: 0]p: init_precond: 0.041 [ms]
[OGL LOG][StoppingCriterion.H:239] Creating stopping criterion with minIter 893 frequency 12
[OGL LOG][Proc: 0]p: generate_solver: 0.018 [ms]
[OGL LOG][Proc: 0]p: solve: 650.41 [ms]
[OGL LOG][Proc: 0]p: copy_x_back: 0.263 [ms]
[OGL LOG][lduLduBase.H:330] 
Statistics:
	Time per iteration: 440 [mu s]
	Time per residual norm calculation: 102.000000 [mu s]
	Time per iteration and DOF: 0.055000 [ns]
	Retrieve results bandwidth 5.021000 [GByte/s]
[OGL LOG][Proc: 0]p: solve_multi_gpu: 664.888 [ms]
nonedpcppGKOCG:  Solving for p, Initial residual = 0.281031, Final residual = 9.84012e-05, No Iterations 1477
[INFO] SolveP: 669.443 [ms]
time step continuity errors : sum local = 4.7107e-09, global = -8.32198e-21, cumulative = -9.5044e-20
[INFO] ContinuityError: 4.186 [ms]
[INFO] CorrectBoundary: 0.662 [ms]
[INFO] PISOStep: 702.383 [ms]
[INFO] TimeStep: 1544.5 [ms]
ExecutionTime = 28.36 s  ClockTime = 32 s

Time = 0.004

Courant Number mean: 0.0558583 max: 0.485081
[INFO] MatrixAssemblyU: 12.754 [ms]
DILUPBiCGStab:  Solving for Ux, Initial residual = 0.00598294, Final residual = 0.000123212, No Iterations 5
DILUPBiCGStab:  Solving for Uy, Initial residual = 0.014587, Final residual = 0.00026231, No Iterations 5
DILUPBiCGStab:  Solving for Uz, Initial residual = 0.0533318, Final residual = 0.00263684, No Iterations 5
[INFO] MomentumPredictor: 123.705 [ms]
[INFO] MatrixAssemblyPI: 14.23 [ms]
[INFO] AdjustPhi: 2.409 [ms]
[INFO] ConstrainPressure: 0.002 [ms]
[INFO] MatrixAssemblyPII: 4.729 [ms]
[OGL LOG][Proc: 0]: global_index_init: 0.073 [ms]
[OGL LOG][Proc: 0]p_local_coeffs: call_update: 0 [ms]
[OGL LOG][Proc: 0]p_non_local_coeffs: call_update: 0 [ms]
[OGL LOG][Proc: 0]p: update_local_matrix_data: 3.2 [ms]
[OGL LOG][Proc: 0]p: update_non_local_matrix_data: 0.152 [ms]
[OGL LOG][Proc: 0]p: regenerate_distributed_matrix: 11.891 [ms]
[OGL LOG][Proc: 0]p_matrix: call_update: 12.183 [ms]
[OGL LOG][Proc: 0]p_rhs: call_update: 0.501 [ms]
[OGL LOG][Proc: 0]p: init_precond: 0.037 [ms]
[OGL LOG][StoppingCriterion.H:239] Creating stopping criterion with minIter 886 frequency 12
[OGL LOG][Proc: 0]p: generate_solver: 0.019 [ms]
[OGL LOG][Proc: 0]p: solve: 670.387 [ms]
[OGL LOG][Proc: 0]p: copy_x_back: 0.336 [ms]
[OGL LOG][lduLduBase.H:330] 
Statistics:
	Time per iteration: 450 [mu s]
	Time per residual norm calculation: 107.000000 [mu s]
	Time per iteration and DOF: 0.056250 [ns]
	Retrieve results bandwidth 3.930000 [GByte/s]
[OGL LOG][Proc: 0]p: solve_multi_gpu: 684.764 [ms]
nonedpcppGKOCG:  Solving for p, Initial residual = 0.288846, Final residual = 7.03588e-05, No Iterations 1489
[INFO] SolveP: 689.416 [ms]
time step continuity errors : sum local = 3.24584e-09, global = -3.40604e-21, cumulative = -9.84501e-20
[INFO] ContinuityError: 3.478 [ms]
[INFO] CorrectBoundary: 0.127 [ms]
[INFO] PISOStep: 723.821 [ms]
[INFO] MatrixAssemblyPI: 16.138 [ms]
[INFO] AdjustPhi: 1.633 [ms]
[INFO] ConstrainPressure: 0.002 [ms]
[INFO] MatrixAssemblyPII: 5.075 [ms]
[OGL LOG][Proc: 0]: global_index_init: 0.086 [ms]
[OGL LOG][Proc: 0]p_local_coeffs: call_update: 0 [ms]
[OGL LOG][Proc: 0]p_non_local_coeffs: call_update: 0 [ms]
[OGL LOG][Proc: 0]p: update_local_matrix_data: 3.202 [ms]
[OGL LOG][Proc: 0]p: update_non_local_matrix_data: 0.168 [ms]
[OGL LOG][Proc: 0]p: regenerate_distributed_matrix: 11.889 [ms]
[OGL LOG][Proc: 0]p_matrix: call_update: 12.135 [ms]
[OGL LOG][Proc: 0]p_rhs: call_update: 0.686 [ms]
[OGL LOG][Proc: 0]p: init_precond: 0.035 [ms]
[OGL LOG][StoppingCriterion.H:239] Creating stopping criterion with minIter 893 frequency 12
[OGL LOG][Proc: 0]p: generate_solver: 0.018 [ms]
[OGL LOG][Proc: 0]p: solve: 656.061 [ms]
[OGL LOG][Proc: 0]p: copy_x_back: 0.277 [ms]
[OGL LOG][lduLduBase.H:330] 
Statistics:
	Time per iteration: 440 [mu s]
	Time per residual norm calculation: 100.000000 [mu s]
	Time per iteration and DOF: 0.055000 [ns]
	Retrieve results bandwidth 4.767000 [GByte/s]
[OGL LOG][Proc: 0]p: solve_multi_gpu: 670.374 [ms]
nonedpcppGKOCG:  Solving for p, Initial residual = 0.255762, Final residual = 6.58489e-05, No Iterations 1489
[INFO] SolveP: 674.644 [ms]
time step continuity errors : sum local = 3.02833e-09, global = -3.83344e-21, cumulative = -1.02284e-19
[INFO] ContinuityError: 4.795 [ms]
[INFO] CorrectBoundary: 0.092 [ms]
[INFO] PISOStep: 710.272 [ms]
[INFO] TimeStep: 1572.77 [ms]
ExecutionTime = 29.93 s  ClockTime = 33 s

Time = 0.00425

Courant Number mean: 0.0570981 max: 0.485438
[INFO] MatrixAssemblyU: 12.602 [ms]
DILUPBiCGStab:  Solving for Ux, Initial residual = 0.00553179, Final residual = 0.000110872, No Iterations 5
DILUPBiCGStab:  Solving for Uy, Initial residual = 0.0132817, Final residual = 0.000232001, No Iterations 5
DILUPBiCGStab:  Solving for Uz, Initial residual = 0.0466836, Final residual = 0.0023581, No Iterations 5
[INFO] MomentumPredictor: 125.493 [ms]
[INFO] MatrixAssemblyPI: 13.936 [ms]
[INFO] AdjustPhi: 2.664 [ms]
[INFO] ConstrainPressure: 0.001 [ms]
[INFO] MatrixAssemblyPII: 4.508 [ms]
[OGL LOG][Proc: 0]: global_index_init: 0.057 [ms]
[OGL LOG][Proc: 0]p_local_coeffs: call_update: 0 [ms]
[OGL LOG][Proc: 0]p_non_local_coeffs: call_update: 0 [ms]
[OGL LOG][Proc: 0]p: update_local_matrix_data: 2.97 [ms]
[OGL LOG][Proc: 0]p: update_non_local_matrix_data: 0.138 [ms]
[OGL LOG][Proc: 0]p: regenerate_distributed_matrix: 12.728 [ms]
[OGL LOG][Proc: 0]p_matrix: call_update: 12.964 [ms]
[OGL LOG][Proc: 0]p_rhs: call_update: 0.629 [ms]
[OGL LOG][Proc: 0]p: init_precond: 0.036 [ms]
[OGL LOG][StoppingCriterion.H:239] Creating stopping criterion with minIter 893 frequency 12
[OGL LOG][Proc: 0]p: generate_solver: 0.018 [ms]
[OGL LOG][Proc: 0]p: solve: 399.378 [ms]
[OGL LOG][Proc: 0]p: copy_x_back: 0.284 [ms]
[OGL LOG][lduLduBase.H:330] 
Statistics:
	Time per iteration: 443 [mu s]
	Time per residual norm calculation: 126.000000 [mu s]
	Time per iteration and DOF: 0.055375 [ns]
	Retrieve results bandwidth 4.650000 [GByte/s]
[OGL LOG][Proc: 0]p: solve_multi_gpu: 414.454 [ms]
nonedpcppGKOCG:  Solving for p, Initial residual = 0.257328, Final residual = 9.12809e-05, No Iterations 901
[INFO] SolveP: 418.403 [ms]
time step continuity errors : sum local = 4.24885e-09, global = -4.47126e-21, cumulative = -1.06755e-19
[INFO] ContinuityError: 5.426 [ms]
[INFO] CorrectBoundary: 0.085 [ms]
[INFO] PISOStep: 450.971 [ms]
[INFO] MatrixAssemblyPI: 13.363 [ms]
[INFO] AdjustPhi: 7.481 [ms]
[INFO] ConstrainPressure: 0.002 [ms]
[INFO] MatrixAssemblyPII: 4.473 [ms]
[OGL LOG][Proc: 0]: global_index_init: 0.07 [ms]
[OGL LOG][Proc: 0]p_local_coeffs: call_update: 0 [ms]
[OGL LOG][Proc: 0]p_non_local_coeffs: call_update: 0 [ms]
[OGL LOG][Proc: 0]p: update_local_matrix_data: 2.879 [ms]
[OGL LOG][Proc: 0]p: update_non_local_matrix_data: 0.132 [ms]
[OGL LOG][Proc: 0]p: regenerate_distributed_matrix: 12.398 [ms]
[OGL LOG][Proc: 0]p_matrix: call_update: 12.685 [ms]
[OGL LOG][Proc: 0]p_rhs: call_update: 0.756 [ms]
[OGL LOG][Proc: 0]p: init_precond: 0.04 [ms]
[OGL LOG][StoppingCriterion.H:239] Creating stopping criterion with minIter 540 frequency 10
[OGL LOG][Proc: 0]p: generate_solver: 0.018 [ms]
[OGL LOG][Proc: 0]p: solve: 295.751 [ms]
[OGL LOG][Proc: 0]p: copy_x_back: 0.276 [ms]
[OGL LOG][lduLduBase.H:330] 
Statistics:
	Time per iteration: 447 [mu s]
	Time per residual norm calculation: 100.000000 [mu s]
	Time per iteration and DOF: 0.055875 [ns]
	Retrieve results bandwidth 4.784000 [GByte/s]
[OGL LOG][Proc: 0]p: solve_multi_gpu: 310.58 [ms]
nonedpcppGKOCG:  Solving for p, Initial residual = 0.226327, Final residual = 9.38493e-05, No Iterations 661
[INFO] SolveP: 314.449 [ms]
time step continuity errors : sum local = 4.27319e-09, global = -5.56043e-21, cumulative = -1.12315e-19
[INFO] ContinuityError: 4.625 [ms]
[INFO] CorrectBoundary: 0.142 [ms]
[INFO] PISOStep: 350.823 [ms]
[INFO] TimeStep: 944.645 [ms]
ExecutionTime = 30.87 s  ClockTime = 34 s

Time = 0.0045

Courant Number mean: 0.0582681 max: 0.485812
[INFO] MatrixAssemblyU: 12.782 [ms]
DILUPBiCGStab:  Solving for Ux, Initial residual = 0.00514145, Final residual = 0.000101219, No Iterations 5
DILUPBiCGStab:  Solving for Uy, Initial residual = 0.0123057, Final residual = 0.000208665, No Iterations 5
DILUPBiCGStab:  Solving for Uz, Initial residual = 0.0420086, Final residual = 0.00208568, No Iterations 5
[INFO] MomentumPredictor: 125.444 [ms]
[INFO] MatrixAssemblyPI: 13.966 [ms]
[INFO] AdjustPhi: 2.63 [ms]
[INFO] ConstrainPressure: 0.001 [ms]
[INFO] MatrixAssemblyPII: 4.524 [ms]
[OGL LOG][Proc: 0]: global_index_init: 0.056 [ms]
[OGL LOG][Proc: 0]p_local_coeffs: call_update: 0 [ms]
[OGL LOG][Proc: 0]p_non_local_coeffs: call_update: 0 [ms]
[OGL LOG][Proc: 0]p: update_local_matrix_data: 3.064 [ms]
[OGL LOG][Proc: 0]p: update_non_local_matrix_data: 0.131 [ms]
[OGL LOG][Proc: 0]p: regenerate_distributed_matrix: 13.012 [ms]
[OGL LOG][Proc: 0]p_matrix: call_update: 13.331 [ms]
[OGL LOG][Proc: 0]p_rhs: call_update: 0.726 [ms]
[OGL LOG][Proc: 0]p: init_precond: 0.035 [ms]
[OGL LOG][StoppingCriterion.H:239] Creating stopping criterion with minIter 396 frequency 8
[OGL LOG][Proc: 0]p: generate_solver: 0.02 [ms]
[OGL LOG][Proc: 0]p: solve: 307.394 [ms]
[OGL LOG][Proc: 0]p: copy_x_back: 0.277 [ms]
[OGL LOG][lduLduBase.H:330] 
Statistics:
	Time per iteration: 446 [mu s]
	Time per residual norm calculation: 100.000000 [mu s]
	Time per iteration and DOF: 0.055750 [ns]
	Retrieve results bandwidth 4.767000 [GByte/s]
[OGL LOG][Proc: 0]p: solve_multi_gpu: 323.019 [ms]
nonedpcppGKOCG:  Solving for p, Initial residual = 0.234358, Final residual = 9.73541e-05, No Iterations 689
[INFO] SolveP: 327.036 [ms]
time step continuity errors : sum local = 4.57185e-09, global = -7.53344e-21, cumulative = -1.19849e-19
[INFO] ContinuityError: 2.495 [ms]
[INFO] CorrectBoundary: 0.2 [ms]
[INFO] PISOStep: 356.662 [ms]
[INFO] MatrixAssemblyPI: 13.669 [ms]
[INFO] AdjustPhi: 2.862 [ms]
[INFO] ConstrainPressure: 0.002 [ms]
[INFO] MatrixAssemblyPII: 4.509 [ms]
[OGL LOG][Proc: 0]: global_index_init: 0.052 [ms]
[OGL LOG][Proc: 0]p_local_coeffs: call_update: 0 [ms]
[OGL LOG][Proc: 0]p_non_local_coeffs: call_update: 0 [ms]
[OGL LOG][Proc: 0]p: update_local_matrix_data: 2.924 [ms]
[OGL LOG][Proc: 0]p: update_non_local_matrix_data: 0.14 [ms]
[OGL LOG][Proc: 0]p: regenerate_distributed_matrix: 9.857 [ms]
[OGL LOG][Proc: 0]p_matrix: call_update: 10.12 [ms]
[OGL LOG][Proc: 0]p_rhs: call_update: 0.592 [ms]
[OGL LOG][Proc: 0]p: init_precond: 0.038 [ms]
[OGL LOG][StoppingCriterion.H:239] Creating stopping criterion with minIter 413 frequency 8
[OGL LOG][Proc: 0]p: generate_solver: 0.02 [ms]
[OGL LOG][Proc: 0]p: solve: 298.763 [ms]
[OGL LOG][Proc: 0]p: copy_x_back: 0.272 [ms]
[OGL LOG][lduLduBase.H:330] 
Statistics:
	Time per iteration: 449 [mu s]
	Time per residual norm calculation: 99.000000 [mu s]
	Time per iteration and DOF: 0.056125 [ns]
	Retrieve results bandwidth 4.855000 [GByte/s]
[OGL LOG][Proc: 0]p: solve_multi_gpu: 310.609 [ms]
nonedpcppGKOCG:  Solving for p, Initial residual = 0.207027, Final residual = 9.57647e-05, No Iterations 665
[INFO] SolveP: 314.519 [ms]
time step continuity errors : sum local = 4.24477e-09, global = -7.48407e-21, cumulative = -1.27333e-19
[INFO] ContinuityError: 2.594 [ms]
[INFO] CorrectBoundary: 0.162 [ms]
[INFO] PISOStep: 344.103 [ms]
[INFO] TimeStep: 842.734 [ms]
ExecutionTime = 31.71 s  ClockTime = 35 s

Time = 0.00475

Courant Number mean: 0.0593764 max: 0.48611
[INFO] MatrixAssemblyU: 12.706 [ms]
DILUPBiCGStab:  Solving for Ux, Initial residual = 0.0047832, Final residual = 9.17462e-05, No Iterations 5
DILUPBiCGStab:  Solving for Uy, Initial residual = 0.0113613, Final residual = 0.000189709, No Iterations 5
DILUPBiCGStab:  Solving for Uz, Initial residual = 0.037805, Final residual = 0.00186371, No Iterations 5
[INFO] MomentumPredictor: 129.114 [ms]
[INFO] MatrixAssemblyPI: 13.963 [ms]
[INFO] AdjustPhi: 4.549 [ms]
[INFO] ConstrainPressure: 0.001 [ms]
[INFO] MatrixAssemblyPII: 4.487 [ms]
[OGL LOG][Proc: 0]: global_index_init: 0.05 [ms]
[OGL LOG][Proc: 0]p_local_coeffs: call_update: 0 [ms]
[OGL LOG][Proc: 0]p_non_local_coeffs: call_update: 0 [ms]
[OGL LOG][Proc: 0]p: update_local_matrix_data: 3.171 [ms]
[OGL LOG][Proc: 0]p: update_non_local_matrix_data: 0.153 [ms]
[OGL LOG][Proc: 0]p: regenerate_distributed_matrix: 11.359 [ms]
[OGL LOG][Proc: 0]p_matrix: call_update: 11.623 [ms]
[OGL LOG][Proc: 0]p_rhs: call_update: 0.474 [ms]
[OGL LOG][Proc: 0]p: init_precond: 0.036 [ms]
[OGL LOG][StoppingCriterion.H:239] Creating stopping criterion with minIter 399 frequency 8
[OGL LOG][Proc: 0]p: generate_solver: 0.021 [ms]
[OGL LOG][Proc: 0]p: solve: 658.736 [ms]
[OGL LOG][Proc: 0]p: copy_x_back: 0.287 [ms]
[OGL LOG][lduLduBase.H:330] 
Statistics:
	Time per iteration: 447 [mu s]
	Time per residual norm calculation: 99.000000 [mu s]
	Time per iteration and DOF: 0.055875 [ns]
	Retrieve results bandwidth 4.601000 [GByte/s]
[OGL LOG][Proc: 0]p: solve_multi_gpu: 672.347 [ms]
nonedpcppGKOCG:  Solving for p, Initial residual = 0.206858, Final residual = 9.6887e-05, No Iterations 1473
[INFO] SolveP: 676.691 [ms]
time step continuity errors : sum local = 4.15033e-09, global = -4.2482e-21, cumulative = -1.31581e-19
[INFO] ContinuityError: 5.015 [ms]
[INFO] CorrectBoundary: 1.032 [ms]
[INFO] PISOStep: 712.721 [ms]
[INFO] MatrixAssemblyPI: 14.759 [ms]
[INFO] AdjustPhi: 2.047 [ms]
[INFO] ConstrainPressure: 0.001 [ms]
[INFO] MatrixAssemblyPII: 4.419 [ms]
[OGL LOG][Proc: 0]: global_index_init: 0.069 [ms]
[OGL LOG][Proc: 0]p_local_coeffs: call_update: 0 [ms]
[OGL LOG][Proc: 0]p_non_local_coeffs: call_update: 0 [ms]
[OGL LOG][Proc: 0]p: update_local_matrix_data: 2.88 [ms]
[OGL LOG][Proc: 0]p: update_non_local_matrix_data: 0.154 [ms]
[OGL LOG][Proc: 0]p: regenerate_distributed_matrix: 11.045 [ms]
[OGL LOG][Proc: 0]p_matrix: call_update: 11.313 [ms]
[OGL LOG][Proc: 0]p_rhs: call_update: 0.583 [ms]
[OGL LOG][Proc: 0]p: init_precond: 0.036 [ms]
[OGL LOG][StoppingCriterion.H:239] Creating stopping criterion with minIter 883 frequency 12
[OGL LOG][Proc: 0]p: generate_solver: 0.021 [ms]
[OGL LOG][Proc: 0]p: solve: 649.153 [ms]
[OGL LOG][Proc: 0]p: copy_x_back: 0.285 [ms]
[OGL LOG][lduLduBase.H:330] 
Statistics:
	Time per iteration: 439 [mu s]
	Time per residual norm calculation: 100.000000 [mu s]
	Time per iteration and DOF: 0.054875 [ns]
	Retrieve results bandwidth 4.633000 [GByte/s]
[OGL LOG][Proc: 0]p: solve_multi_gpu: 662.412 [ms]
nonedpcppGKOCG:  Solving for p, Initial residual = 0.181688, Final residual = 7.81014e-05, No Iterations 1477
[INFO] SolveP: 666.33 [ms]
time step continuity errors : sum local = 3.34688e-09, global = -6.77984e-21, cumulative = -1.38361e-19
[INFO] ContinuityError: 2.866 [ms]
[INFO] CorrectBoundary: 0.102 [ms]
[INFO] PISOStep: 697.007 [ms]
[INFO] TimeStep: 1554.27 [ms]
ExecutionTime = 33.26 s  ClockTime = 37 s

Time = 0.005

Courant Number mean: 0.0604275 max: 0.486416
[INFO] MatrixAssemblyU: 12.576 [ms]
DILUPBiCGStab:  Solving for Ux, Initial residual = 0.0044852, Final residual = 8.43705e-05, No Iterations 5
DILUPBiCGStab:  Solving for Uy, Initial residual = 0.0106082, Final residual = 0.000172056, No Iterations 5
DILUPBiCGStab:  Solving for Uz, Initial residual = 0.0343022, Final residual = 0.00161385, No Iterations 5
[INFO] MomentumPredictor: 123.16 [ms]
[INFO] MatrixAssemblyPI: 13.834 [ms]
[INFO] AdjustPhi: 2.747 [ms]
[INFO] ConstrainPressure: 0.001 [ms]
[INFO] MatrixAssemblyPII: 4.498 [ms]
[OGL LOG][Proc: 0]: global_index_init: 0.052 [ms]
[OGL LOG][Proc: 0]p_local_coeffs: call_update: 0 [ms]
[OGL LOG][Proc: 0]p_non_local_coeffs: call_update: 0 [ms]
[OGL LOG][Proc: 0]p: update_local_matrix_data: 2.932 [ms]
[OGL LOG][Proc: 0]p: update_non_local_matrix_data: 0.155 [ms]
[OGL LOG][Proc: 0]p: regenerate_distributed_matrix: 11.225 [ms]
[OGL LOG][Proc: 0]p_matrix: call_update: 11.545 [ms]
[OGL LOG][Proc: 0]p_rhs: call_update: 1.278 [ms]
[OGL LOG][Proc: 0]p: init_precond: 0.04 [ms]
[OGL LOG][StoppingCriterion.H:239] Creating stopping criterion with minIter 886 frequency 12
[OGL LOG][Proc: 0]p: generate_solver: 0.019 [ms]
[OGL LOG][Proc: 0]p: solve: 755.615 [ms]
[OGL LOG][Proc: 0]p: copy_x_back: 0.289 [ms]
[OGL LOG][lduLduBase.H:330] 
Statistics:
	Time per iteration: 511 [mu s]
	Time per residual norm calculation: 102.000000 [mu s]
	Time per iteration and DOF: 0.063875 [ns]
	Retrieve results bandwidth 4.569000 [GByte/s]
[OGL LOG][Proc: 0]p: solve_multi_gpu: 770.088 [ms]
nonedpcppGKOCG:  Solving for p, Initial residual = 0.188739, Final residual = 7.96293e-05, No Iterations 1477
[INFO] SolveP: 773.991 [ms]
time step continuity errors : sum local = 3.29727e-09, global = -3.45855e-21, cumulative = -1.41819e-19
[INFO] ContinuityError: 5.059 [ms]
[INFO] CorrectBoundary: 0.776 [ms]
[INFO] PISOStep: 806.694 [ms]
[INFO] MatrixAssemblyPI: 14.143 [ms]
[INFO] AdjustPhi: 3.533 [ms]
[INFO] ConstrainPressure: 0.001 [ms]
[INFO] MatrixAssemblyPII: 4.587 [ms]
[OGL LOG][Proc: 0]: global_index_init: 0.067 [ms]
[OGL LOG][Proc: 0]p_local_coeffs: call_update: 0 [ms]
[OGL LOG][Proc: 0]p_non_local_coeffs: call_update: 0 [ms]
[OGL LOG][Proc: 0]p: update_local_matrix_data: 2.863 [ms]
[OGL LOG][Proc: 0]p: update_non_local_matrix_data: 0.153 [ms]
[OGL LOG][Proc: 0]p: regenerate_distributed_matrix: 11.299 [ms]
[OGL LOG][Proc: 0]p_matrix: call_update: 11.562 [ms]
[OGL LOG][Proc: 0]p_rhs: call_update: 1.158 [ms]
[OGL LOG][Proc: 0]p: init_precond: 0.038 [ms]
[OGL LOG][StoppingCriterion.H:239] Creating stopping criterion with minIter 886 frequency 10
[OGL LOG][Proc: 0]p: generate_solver: 0.018 [ms]
[OGL LOG][Proc: 0]p: solve: 754.349 [ms]
[OGL LOG][Proc: 0]p: copy_x_back: 0.289 [ms]
[OGL LOG][lduLduBase.H:330] 
Statistics:
	Time per iteration: 512 [mu s]
	Time per residual norm calculation: 103.000000 [mu s]
	Time per iteration and DOF: 0.064000 [ns]
	Retrieve results bandwidth 4.569000 [GByte/s]
[OGL LOG][Proc: 0]p: solve_multi_gpu: 768.694 [ms]
nonedpcppGKOCG:  Solving for p, Initial residual = 0.166481, Final residual = 9.40146e-05, No Iterations 1471
[INFO] SolveP: 772.818 [ms]
time step continuity errors : sum local = 3.8865e-09, global = -2.38464e-21, cumulative = -1.44204e-19
[INFO] ContinuityError: 4.854 [ms]
[INFO] CorrectBoundary: 0.278 [ms]
[INFO] PISOStep: 806.242 [ms]
[INFO] TimeStep: 1751.49 [ms]
ExecutionTime = 35.01 s  ClockTime = 39 s

End

Finalising parallel run
