/*---------------------------------------------------------------------------*\
| =========                 |                                                 |
| \\      /  F ield         | OpenFOAM: The Open Source CFD Toolbox           |
|  \\    /   O peration     | Version:  2306                                  |
|   \\  /    A nd           | Website:  www.openfoam.com                      |
|    \\/     M anipulation  |                                                 |
\*---------------------------------------------------------------------------*/
Build  : a6e826bd55-20230630 OPENFOAM=2306 version=v2306
Arch   : "LSB;label=32;scalar=64"
Exec   : icoFoam -parallel -case /tmp/lidDrivenCavity/workspace/e4b896193c4503d1970edf3e4df9452c/case
Date   : Dec 21 2023
Time   : 01:33:33
Host   : nla-gpu2.ianm.kit.edu
PID    : 391071
I/O    : uncollated
Case   : /tmp/lidDrivenCavity/workspace/e4b896193c4503d1970edf3e4df9452c/case
nProcs : 8
Hosts  :
(
    (nla-gpu2.ianm.kit.edu 8)
)
Pstream initialized with:
    floatTransfer      : false
    nProcsSimpleSum    : 0
    nonBlockingExchange: 0 (tuning: 0)
    exchange algorithm : -1
    commsType          : nonBlocking
    polling iterations : 0
trapFpe: Floating point exception trapping enabled (FOAM_SIGFPE).
fileModificationChecking : Monitoring run-time modified files using timeStampMaster (fileModificationSkew 5, maxFileModificationPolls 20)
allowSystemOperations : Allowing user-supplied system call operations

// * * * * * * * * * * * * * * * * * * * * * * * * * * * * * * * * * * * * * //
Create time

--> FOAM Warning : 
    From void* Foam::dlLibraryTable::openLibrary(const Foam::fileName&, bool)
    in file db/dynamicLibrary/dlLibraryTable/dlLibraryTable.C at line 188
    Could not load "libpetscFoam.so"
libpetscFoam.so: cannot open shared object file: No such file or directory
Create mesh for time = 0


PISO: Operating solver in PISO mode

Reading transportProperties

Reading field p

Reading field U

Reading/calculating face flux field phi


Starting time loop

Time = 0.000166

Courant Number mean: 8.14055e-18 max: 3.11001e-14
[INFO] MatrixAssemblyU: 347.146 [ms]
DILUPBiCGStab:  Solving for Ux, Initial residual = 1, Final residual = 0.0159896, No Iterations 5
DILUPBiCGStab:  Solving for Uy:  solution singularity
DILUPBiCGStab:  Solving for Uz:  solution singularity
[INFO] MomentumPredictor: 1581.55 [ms]
[INFO] MatrixAssemblyPI: 353.297 [ms]
[INFO] AdjustPhi: 18.303 [ms]
[INFO] ConstrainPressure: 0.011 [ms]
[INFO] MatrixAssemblyPII: 98.722 [ms]
DICPCG:  Solving for p, Initial residual = 1, Final residual = 9.7203e-05, No Iterations 970
[INFO] SolveP: 75822.6 [ms]
time step continuity errors : sum local = 3.93436e-09, global = 1.57648e-21, cumulative = 1.57648e-21
[INFO] ContinuityError: 47.82 [ms]
[INFO] CorrectBoundary: 1.07 [ms]
[INFO] PISOStep: 76454.9 [ms]
[INFO] MatrixAssemblyPI: 336.761 [ms]
[INFO] AdjustPhi: 19.548 [ms]
[INFO] ConstrainPressure: 0.004 [ms]
[INFO] MatrixAssemblyPII: 99.4 [ms]
DICPCG:  Solving for p, Initial residual = 0.80968, Final residual = 9.93792e-05, No Iterations 972
[INFO] SolveP: 75026.2 [ms]
time step continuity errors : sum local = 4.9085e-09, global = 4.37229e-22, cumulative = 2.01371e-21
[INFO] ContinuityError: 47.545 [ms]
[INFO] CorrectBoundary: 1.083 [ms]
[INFO] PISOStep: 75642.3 [ms]
[INFO] TimeStep: 154076 [ms]
ExecutionTime = 155.29 s  ClockTime = 156 s

Time = 0.000332

Courant Number mean: 0.0128497 max: 0.426563
[INFO] MatrixAssemblyU: 260.962 [ms]
DILUPBiCGStab:  Solving for Ux, Initial residual = 0.116942, Final residual = 0.00923005, No Iterations 5
DILUPBiCGStab:  Solving for Uy, Initial residual = 0.459871, Final residual = 0.0300226, No Iterations 5
DILUPBiCGStab:  Solving for Uz, Initial residual = 0.995304, Final residual = 0.071849, No Iterations 5
[INFO] MomentumPredictor: 2959.44 [ms]
[INFO] MatrixAssemblyPI: 343.371 [ms]
[INFO] AdjustPhi: 18.576 [ms]
[INFO] ConstrainPressure: 0.004 [ms]
[INFO] MatrixAssemblyPII: 97.76 [ms]
DICPCG:  Solving for p, Initial residual = 0.87822, Final residual = 9.49704e-05, No Iterations 960
[INFO] SolveP: 74044.3 [ms]
time step continuity errors : sum local = 9.02274e-09, global = 1.1652e-21, cumulative = 3.17891e-21
[INFO] ContinuityError: 47.538 [ms]
[INFO] CorrectBoundary: 0.903 [ms]
[INFO] PISOStep: 74666.2 [ms]
[INFO] MatrixAssemblyPI: 336.256 [ms]
[INFO] AdjustPhi: 21.303 [ms]
[INFO] ConstrainPressure: 0.003 [ms]
[INFO] MatrixAssemblyPII: 99.957 [ms]
DICPCG:  Solving for p, Initial residual = 0.826382, Final residual = 9.80295e-05, No Iterations 958
[INFO] SolveP: 74287.6 [ms]
time step continuity errors : sum local = 9.48544e-09, global = 9.91564e-23, cumulative = 3.27806e-21
[INFO] ContinuityError: 47.285 [ms]
[INFO] CorrectBoundary: 1.143 [ms]
[INFO] PISOStep: 74905.6 [ms]
[INFO] TimeStep: 152836 [ms]
ExecutionTime = 307.4 s  ClockTime = 308 s

Time = 0.000498

Courant Number mean: 0.0198261 max: 0.491802
[INFO] MatrixAssemblyU: 262.201 [ms]
DILUPBiCGStab:  Solving for Ux, Initial residual = 0.0544588, Final residual = 0.0034887, No Iterations 5
DILUPBiCGStab:  Solving for Uy, Initial residual = 0.226395, Final residual = 0.0156806, No Iterations 5
DILUPBiCGStab:  Solving for Uz, Initial residual = 0.854701, Final residual = 0.0552579, No Iterations 5
[INFO] MomentumPredictor: 2956.91 [ms]
[INFO] MatrixAssemblyPI: 343.8 [ms]
[INFO] AdjustPhi: 19.536 [ms]
[INFO] ConstrainPressure: 0.004 [ms]
[INFO] MatrixAssemblyPII: 97.926 [ms]
DICPCG:  Solving for p, Initial residual = 0.913828, Final residual = 9.5695e-05, No Iterations 423
[INFO] SolveP: 32629.1 [ms]
time step continuity errors : sum local = 1.04672e-08, global = 7.50341e-22, cumulative = 4.0284e-21
[INFO] ContinuityError: 47.19 [ms]
[INFO] CorrectBoundary: 0.944 [ms]
[INFO] PISOStep: 33250.8 [ms]
[INFO] MatrixAssemblyPI: 336.792 [ms]
[INFO] AdjustPhi: 19.106 [ms]
[INFO] ConstrainPressure: 0.003 [ms]
[INFO] MatrixAssemblyPII: 98.804 [ms]
DICPCG:  Solving for p, Initial residual = 0.882776, Final residual = 9.83917e-05, No Iterations 422
[INFO] SolveP: 32688.3 [ms]
time step continuity errors : sum local = 1.02767e-08, global = 1.05651e-21, cumulative = 5.08491e-21
[INFO] ContinuityError: 49.721 [ms]
[INFO] CorrectBoundary: 1.326 [ms]
[INFO] PISOStep: 33308.7 [ms]
[INFO] TimeStep: 69823.5 [ms]
ExecutionTime = 376.9 s  ClockTime = 378 s

Time = 0.000664

Courant Number mean: 0.0239197 max: 0.47201
[INFO] MatrixAssemblyU: 260.292 [ms]
DILUPBiCGStab:  Solving for Ux, Initial residual = 0.0384994, Final residual = 0.00279712, No Iterations 5
DILUPBiCGStab:  Solving for Uy, Initial residual = 0.174092, Final residual = 0.0125978, No Iterations 5
DILUPBiCGStab:  Solving for Uz, Initial residual = 0.731267, Final residual = 0.0388821, No Iterations 5
[INFO] MomentumPredictor: 2952.07 [ms]
[INFO] MatrixAssemblyPI: 343.227 [ms]
[INFO] AdjustPhi: 19.535 [ms]
[INFO] ConstrainPressure: 0.005 [ms]
[INFO] MatrixAssemblyPII: 98.781 [ms]
DICPCG:  Solving for p, Initial residual = 0.89037, Final residual = 9.68153e-05, No Iterations 422
[INFO] SolveP: 32751.4 [ms]
time step continuity errors : sum local = 1.1586e-08, global = 4.38574e-22, cumulative = 5.52349e-21
[INFO] ContinuityError: 47.292 [ms]
[INFO] CorrectBoundary: 1.067 [ms]
[INFO] PISOStep: 33375.3 [ms]
[INFO] MatrixAssemblyPI: 336.493 [ms]
[INFO] AdjustPhi: 19.105 [ms]
[INFO] ConstrainPressure: 0.003 [ms]
[INFO] MatrixAssemblyPII: 99.534 [ms]
DICPCG:  Solving for p, Initial residual = 0.830317, Final residual = 9.83876e-05, No Iterations 420
[INFO] SolveP: 32631 [ms]
time step continuity errors : sum local = 1.13883e-08, global = 3.69228e-22, cumulative = 5.89272e-21
[INFO] ContinuityError: 47.181 [ms]
[INFO] CorrectBoundary: 0.875 [ms]
[INFO] PISOStep: 33246.4 [ms]
[INFO] TimeStep: 69878.6 [ms]
ExecutionTime = 446.45 s  ClockTime = 448 s

Time = 0.00083

Courant Number mean: 0.0274473 max: 0.504963
[INFO] MatrixAssemblyU: 262.654 [ms]
DILUPBiCGStab:  Solving for Ux, Initial residual = 0.0323962, Final residual = 0.00238067, No Iterations 5
DILUPBiCGStab:  Solving for Uy, Initial residual = 0.129668, Final residual = 0.0105541, No Iterations 5
DILUPBiCGStab:  Solving for Uz, Initial residual = 0.677357, Final residual = 0.0336619, No Iterations 5
[INFO] MomentumPredictor: 2948.68 [ms]
[INFO] MatrixAssemblyPI: 344.78 [ms]
[INFO] AdjustPhi: 18.609 [ms]
[INFO] ConstrainPressure: 0.004 [ms]
[INFO] MatrixAssemblyPII: 98.046 [ms]
DICPCG:  Solving for p, Initial residual = 0.910559, Final residual = 9.87515e-05, No Iterations 890
[INFO] SolveP: 68930.5 [ms]
time step continuity errors : sum local = 1.0898e-08, global = 2.97832e-22, cumulative = 6.19055e-21
[INFO] ContinuityError: 48.522 [ms]
[INFO] CorrectBoundary: 0.92 [ms]
[INFO] PISOStep: 69556.2 [ms]
[INFO] MatrixAssemblyPI: 340.388 [ms]
[INFO] AdjustPhi: 18.955 [ms]
[INFO] ConstrainPressure: 0.004 [ms]
[INFO] MatrixAssemblyPII: 99.228 [ms]
DICPCG:  Solving for p, Initial residual = 0.872768, Final residual = 9.6072e-05, No Iterations 890
[INFO] SolveP: 68796.5 [ms]
time step continuity errors : sum local = 1.04661e-08, global = 1.9806e-22, cumulative = 6.38861e-21
[INFO] ContinuityError: 50.613 [ms]
[INFO] CorrectBoundary: 1.013 [ms]
[INFO] PISOStep: 69418.8 [ms]
[INFO] TimeStep: 142231 [ms]
ExecutionTime = 588.03 s  ClockTime = 590 s

Time = 0.000996

Courant Number mean: 0.0301894 max: 0.478381
[INFO] MatrixAssemblyU: 261.692 [ms]
DILUPBiCGStab:  Solving for Ux, Initial residual = 0.027071, Final residual = 0.00213839, No Iterations 5
DILUPBiCGStab:  Solving for Uy, Initial residual = 0.111909, Final residual = 0.00833953, No Iterations 5
DILUPBiCGStab:  Solving for Uz, Initial residual = 0.580175, Final residual = 0.0257748, No Iterations 5
[INFO] MomentumPredictor: 2955.15 [ms]
[INFO] MatrixAssemblyPI: 343.097 [ms]
[INFO] AdjustPhi: 20.745 [ms]
[INFO] ConstrainPressure: 0.004 [ms]
[INFO] MatrixAssemblyPII: 98.526 [ms]
DICPCG:  Solving for p, Initial residual = 0.887926, Final residual = 9.65203e-05, No Iterations 888
[INFO] SolveP: 69253.5 [ms]
time step continuity errors : sum local = 1.08675e-08, global = 8.78852e-22, cumulative = 7.26746e-21
[INFO] ContinuityError: 46.864 [ms]
[INFO] CorrectBoundary: 0.876 [ms]
[INFO] PISOStep: 69877.3 [ms]
[INFO] MatrixAssemblyPI: 336.274 [ms]
[INFO] AdjustPhi: 19.954 [ms]
[INFO] ConstrainPressure: 0.004 [ms]
[INFO] MatrixAssemblyPII: 98.757 [ms]
DICPCG:  Solving for p, Initial residual = 0.824844, Final residual = 9.75828e-05, No Iterations 423
[INFO] SolveP: 32947.8 [ms]
time step continuity errors : sum local = 1.2965e-08, global = 2.61305e-22, cumulative = 7.52876e-21
[INFO] ContinuityError: 49.742 [ms]
[INFO] CorrectBoundary: 0.932 [ms]
[INFO] PISOStep: 33565.5 [ms]
[INFO] TimeStep: 106704 [ms]
ExecutionTime = 694.25 s  ClockTime = 697 s

Time = 0.001162

Courant Number mean: 0.0326685 max: 0.511854
[INFO] MatrixAssemblyU: 259.627 [ms]
DILUPBiCGStab:  Solving for Ux, Initial residual = 0.024697, Final residual = 0.00198667, No Iterations 5
DILUPBiCGStab:  Solving for Uy, Initial residual = 0.0982158, Final residual = 0.00765427, No Iterations 5
DILUPBiCGStab:  Solving for Uz, Initial residual = 0.566842, Final residual = 0.0267793, No Iterations 5
[INFO] MomentumPredictor: 2957.26 [ms]
[INFO] MatrixAssemblyPI: 343.253 [ms]
[INFO] AdjustPhi: 19.906 [ms]
[INFO] ConstrainPressure: 0.004 [ms]
[INFO] MatrixAssemblyPII: 98.112 [ms]
DICPCG:  Solving for p, Initial residual = 0.905825, Final residual = 9.85368e-05, No Iterations 889
[INFO] SolveP: 68994.2 [ms]
time step continuity errors : sum local = 1.08232e-08, global = 9.96628e-22, cumulative = 8.52539e-21
[INFO] ContinuityError: 47.343 [ms]
[INFO] CorrectBoundary: 1.004 [ms]
[INFO] PISOStep: 69616.5 [ms]
[INFO] MatrixAssemblyPI: 336.929 [ms]
[INFO] AdjustPhi: 20.287 [ms]
[INFO] ConstrainPressure: 0.004 [ms]
[INFO] MatrixAssemblyPII: 98.883 [ms]
DICPCG:  Solving for p, Initial residual = 0.860769, Final residual = 9.98399e-05, No Iterations 888
[INFO] SolveP: 68795.6 [ms]
time step continuity errors : sum local = 1.08495e-08, global = 4.05465e-22, cumulative = 8.93086e-21
[INFO] ContinuityError: 49.305 [ms]
[INFO] CorrectBoundary: 0.938 [ms]
[INFO] PISOStep: 69415.3 [ms]
[INFO] TimeStep: 142293 [ms]
ExecutionTime = 835.89 s  ClockTime = 839 s

Time = 0.001328

Courant Number mean: 0.0347554 max: 0.481318
[INFO] MatrixAssemblyU: 261.131 [ms]
DILUPBiCGStab:  Solving for Ux, Initial residual = 0.0221792, Final residual = 0.00183162, No Iterations 5
DILUPBiCGStab:  Solving for Uy, Initial residual = 0.0875561, Final residual = 0.00648568, No Iterations 5
DILUPBiCGStab:  Solving for Uz, Initial residual = 0.518345, Final residual = 0.021072, No Iterations 5
[INFO] MomentumPredictor: 2958.88 [ms]
[INFO] MatrixAssemblyPI: 342.718 [ms]
[INFO] AdjustPhi: 19.76 [ms]
[INFO] ConstrainPressure: 0.004 [ms]
[INFO] MatrixAssemblyPII: 98.268 [ms]
DICPCG:  Solving for p, Initial residual = 0.883933, Final residual = 9.93546e-05, No Iterations 887
[INFO] SolveP: 68662.1 [ms]
time step continuity errors : sum local = 1.10925e-08, global = 7.37011e-22, cumulative = 9.66787e-21
[INFO] ContinuityError: 47.662 [ms]
[INFO] CorrectBoundary: 0.922 [ms]
[INFO] PISOStep: 69283.4 [ms]
[INFO] MatrixAssemblyPI: 336.835 [ms]
[INFO] AdjustPhi: 20.238 [ms]
[INFO] ConstrainPressure: 0.004 [ms]
[INFO] MatrixAssemblyPII: 99.73 [ms]
DICPCG:  Solving for p, Initial residual = 0.817935, Final residual = 9.80932e-05, No Iterations 885
[INFO] SolveP: 68560.2 [ms]
time step continuity errors : sum local = 1.11052e-08, global = 1.28333e-22, cumulative = 9.7962e-21
[INFO] ContinuityError: 52.731 [ms]
[INFO] CorrectBoundary: 1.028 [ms]
[INFO] PISOStep: 69183.2 [ms]
[INFO] TimeStep: 141731 [ms]
ExecutionTime = 976.95 s  ClockTime = 981 s

Time = 0.001494

Courant Number mean: 0.0367034 max: 0.517988
[INFO] MatrixAssemblyU: 261.122 [ms]
DILUPBiCGStab:  Solving for Ux, Initial residual = 0.020597, Final residual = 0.00171539, No Iterations 5
DILUPBiCGStab:  Solving for Uy, Initial residual = 0.082181, Final residual = 0.00611391, No Iterations 5
DILUPBiCGStab:  Solving for Uz, Initial residual = 0.510384, Final residual = 0.0192605, No Iterations 5
[INFO] MomentumPredictor: 2957.4 [ms]
[INFO] MatrixAssemblyPI: 342.601 [ms]
[INFO] AdjustPhi: 19.911 [ms]
[INFO] ConstrainPressure: 0.004 [ms]
[INFO] MatrixAssemblyPII: 98.125 [ms]
DICPCG:  Solving for p, Initial residual = 0.901851, Final residual = 9.89086e-05, No Iterations 802
[INFO] SolveP: 62510.5 [ms]
time step continuity errors : sum local = 1.08206e-08, global = 1.26018e-21, cumulative = 1.10564e-20
[INFO] ContinuityError: 47.801 [ms]
[INFO] CorrectBoundary: 0.905 [ms]
[INFO] PISOStep: 63134.4 [ms]
[INFO] MatrixAssemblyPI: 336.771 [ms]
[INFO] AdjustPhi: 19.599 [ms]
[INFO] ConstrainPressure: 0.004 [ms]
[INFO] MatrixAssemblyPII: 104.353 [ms]
DICPCG:  Solving for p, Initial residual = 0.851795, Final residual = 9.88906e-05, No Iterations 808
[INFO] SolveP: 64565.1 [ms]
time step continuity errors : sum local = 1.07158e-08, global = 1.36842e-21, cumulative = 1.24248e-20
[INFO] ContinuityError: 53.054 [ms]
[INFO] CorrectBoundary: 0.99 [ms]
[INFO] PISOStep: 65196.5 [ms]
[INFO] TimeStep: 131593 [ms]
ExecutionTime = 1107.95 s  ClockTime = 1113 s

Time = 0.00166

Courant Number mean: 0.0383971 max: 0.483664
[INFO] MatrixAssemblyU: 261.471 [ms]
DILUPBiCGStab:  Solving for Ux, Initial residual = 0.0193876, Final residual = 0.00162949, No Iterations 5
DILUPBiCGStab:  Solving for Uy, Initial residual = 0.0738306, Final residual = 0.00530305, No Iterations 5
DILUPBiCGStab:  Solving for Uz, Initial residual = 0.491293, Final residual = 0.0190721, No Iterations 5
[INFO] MomentumPredictor: 2956.84 [ms]
[INFO] MatrixAssemblyPI: 342.723 [ms]
[INFO] AdjustPhi: 19.189 [ms]
[INFO] ConstrainPressure: 0.004 [ms]
[INFO] MatrixAssemblyPII: 98.966 [ms]
DICPCG:  Solving for p, Initial residual = 0.882871, Final residual = 9.77085e-05, No Iterations 862
[INFO] SolveP: 66897.9 [ms]
time step continuity errors : sum local = 1.10305e-08, global = 1.72656e-21, cumulative = 1.41514e-20
[INFO] ContinuityError: 48.515 [ms]
[INFO] CorrectBoundary: 0.868 [ms]
[INFO] PISOStep: 67523.6 [ms]
[INFO] MatrixAssemblyPI: 336.677 [ms]
[INFO] AdjustPhi: 19.669 [ms]
[INFO] ConstrainPressure: 0.004 [ms]
[INFO] MatrixAssemblyPII: 99.538 [ms]
DICPCG:  Solving for p, Initial residual = 0.813595, Final residual = 9.99525e-05, No Iterations 859
[INFO] SolveP: 66930.3 [ms]
time step continuity errors : sum local = 1.14277e-08, global = 4.54835e-22, cumulative = 1.46062e-20
[INFO] ContinuityError: 50.087 [ms]
[INFO] CorrectBoundary: 0.885 [ms]
[INFO] PISOStep: 67550.1 [ms]
[INFO] TimeStep: 138337 [ms]
ExecutionTime = 1245.62 s  ClockTime = 1251 s

Time = 0.001826

Courant Number mean: 0.0400191 max: 0.524603
[INFO] MatrixAssemblyU: 263.118 [ms]
DILUPBiCGStab:  Solving for Ux, Initial residual = 0.018205, Final residual = 0.00152229, No Iterations 5
DILUPBiCGStab:  Solving for Uy, Initial residual = 0.0721959, Final residual = 0.00512211, No Iterations 5
DILUPBiCGStab:  Solving for Uz, Initial residual = 0.493041, Final residual = 0.0175483, No Iterations 5
[INFO] MomentumPredictor: 2952.79 [ms]
[INFO] MatrixAssemblyPI: 344.658 [ms]
[INFO] AdjustPhi: 19.01 [ms]
[INFO] ConstrainPressure: 0.004 [ms]
[INFO] MatrixAssemblyPII: 98.312 [ms]
DICPCG:  Solving for p, Initial residual = 0.901866, Final residual = 9.83562e-05, No Iterations 822
[INFO] SolveP: 63920.5 [ms]
time step continuity errors : sum local = 1.10479e-08, global = 5.70302e-22, cumulative = 1.51765e-20
[INFO] ContinuityError: 47.455 [ms]
[INFO] CorrectBoundary: 1.004 [ms]
[INFO] PISOStep: 64544.1 [ms]
[INFO] MatrixAssemblyPI: 341.078 [ms]
[INFO] AdjustPhi: 19.337 [ms]
[INFO] ConstrainPressure: 0.004 [ms]
[INFO] MatrixAssemblyPII: 98.995 [ms]
DICPCG:  Solving for p, Initial residual = 0.847227, Final residual = 9.74387e-05, No Iterations 820
[INFO] SolveP: 64016.3 [ms]
time step continuity errors : sum local = 1.08555e-08, global = 1.08322e-21, cumulative = 1.62597e-20
[INFO] ContinuityError: 51.453 [ms]
[INFO] CorrectBoundary: 1.553 [ms]
[INFO] PISOStep: 64642.9 [ms]
[INFO] TimeStep: 132449 [ms]
ExecutionTime = 1377.47 s  ClockTime = 1384 s

Time = 0.001992

Courant Number mean: 0.0414504 max: 0.48674
[INFO] MatrixAssemblyU: 261.87 [ms]
DILUPBiCGStab:  Solving for Ux, Initial residual = 0.0176271, Final residual = 0.00147311, No Iterations 5
DILUPBiCGStab:  Solving for Uy, Initial residual = 0.0656919, Final residual = 0.00449865, No Iterations 5
DILUPBiCGStab:  Solving for Uz, Initial residual = 0.475487, Final residual = 0.0168002, No Iterations 5
[INFO] MomentumPredictor: 2960.64 [ms]
[INFO] MatrixAssemblyPI: 343.043 [ms]
[INFO] AdjustPhi: 21.291 [ms]
[INFO] ConstrainPressure: 0.004 [ms]
[INFO] MatrixAssemblyPII: 98.72 [ms]
DICPCG:  Solving for p, Initial residual = 0.884439, Final residual = 9.70561e-05, No Iterations 819
[INFO] SolveP: 63960.3 [ms]
time step continuity errors : sum local = 1.1333e-08, global = 1.12596e-23, cumulative = 1.6271e-20
[INFO] ContinuityError: 46.813 [ms]
[INFO] CorrectBoundary: 0.976 [ms]
[INFO] PISOStep: 64583.6 [ms]
[INFO] MatrixAssemblyPI: 336.351 [ms]
[INFO] AdjustPhi: 22.432 [ms]
[INFO] ConstrainPressure: 0.004 [ms]
[INFO] MatrixAssemblyPII: 98.528 [ms]
DICPCG:  Solving for p, Initial residual = 0.813763, Final residual = 9.66328e-05, No Iterations 817
[INFO] SolveP: 63210.1 [ms]
time step continuity errors : sum local = 1.14115e-08, global = 1.62734e-21, cumulative = 1.78983e-20
[INFO] ContinuityError: 50.212 [ms]
[INFO] CorrectBoundary: 0.966 [ms]
[INFO] PISOStep: 63833.4 [ms]
[INFO] TimeStep: 131686 [ms]
ExecutionTime = 1508.57 s  ClockTime = 1515 s

Time = 0.002158

Courant Number mean: 0.0428489 max: 0.532223
[INFO] MatrixAssemblyU: 260.42 [ms]
DILUPBiCGStab:  Solving for Ux, Initial residual = 0.0166794, Final residual = 0.00136969, No Iterations 5
DILUPBiCGStab:  Solving for Uy, Initial residual = 0.065809, Final residual = 0.00444328, No Iterations 5
DILUPBiCGStab:  Solving for Uz, Initial residual = 0.485306, Final residual = 0.0175064, No Iterations 5
[INFO] MomentumPredictor: 2961.45 [ms]
[INFO] MatrixAssemblyPI: 341.99 [ms]
[INFO] AdjustPhi: 20.912 [ms]
[INFO] ConstrainPressure: 0.004 [ms]
[INFO] MatrixAssemblyPII: 98.107 [ms]
DICPCG:  Solving for p, Initial residual = 0.90266, Final residual = 9.72416e-05, No Iterations 854
[INFO] SolveP: 66102.1 [ms]
time step continuity errors : sum local = 1.13606e-08, global = 2.56602e-22, cumulative = 1.81549e-20
[INFO] ContinuityError: 47.406 [ms]
[INFO] CorrectBoundary: 1.06 [ms]
[INFO] PISOStep: 66726.5 [ms]
[INFO] MatrixAssemblyPI: 336.545 [ms]
[INFO] AdjustPhi: 22.208 [ms]
[INFO] ConstrainPressure: 0.004 [ms]
[INFO] MatrixAssemblyPII: 99.429 [ms]
DICPCG:  Solving for p, Initial residual = 0.844411, Final residual = 9.87164e-05, No Iterations 854
[INFO] SolveP: 66122.6 [ms]
time step continuity errors : sum local = 1.14551e-08, global = 4.94598e-22, cumulative = 1.86495e-20
[INFO] ContinuityError: 48.71 [ms]
[INFO] CorrectBoundary: 0.983 [ms]
[INFO] PISOStep: 66742.8 [ms]
[INFO] TimeStep: 136738 [ms]
ExecutionTime = 1644.67 s  ClockTime = 1652 s

Time = 0.002324

Courant Number mean: 0.0440908 max: 0.489783
[INFO] MatrixAssemblyU: 261.125 [ms]
DILUPBiCGStab:  Solving for Ux, Initial residual = 0.016453, Final residual = 0.00134572, No Iterations 5
DILUPBiCGStab:  Solving for Uy, Initial residual = 0.0606831, Final residual = 0.0039395, No Iterations 5
DILUPBiCGStab:  Solving for Uz, Initial residual = 0.474027, Final residual = 0.0164784, No Iterations 5
[INFO] MomentumPredictor: 2960.19 [ms]
[INFO] MatrixAssemblyPI: 342.154 [ms]
[INFO] AdjustPhi: 23.979 [ms]
[INFO] ConstrainPressure: 0.005 [ms]
[INFO] MatrixAssemblyPII: 98.105 [ms]
DICPCG:  Solving for p, Initial residual = 0.886812, Final residual = 9.90593e-05, No Iterations 862
[INFO] SolveP: 67169.8 [ms]
time step continuity errors : sum local = 1.20456e-08, global = 2.17507e-21, cumulative = 2.08246e-20
[INFO] ContinuityError: 47.771 [ms]
[INFO] CorrectBoundary: 0.939 [ms]
[INFO] PISOStep: 67795.6 [ms]
[INFO] MatrixAssemblyPI: 336.646 [ms]
[INFO] AdjustPhi: 22.042 [ms]
[INFO] ConstrainPressure: 0.004 [ms]
[INFO] MatrixAssemblyPII: 99.579 [ms]
DICPCG:  Solving for p, Initial residual = 0.814988, Final residual = 9.83066e-05, No Iterations 861
[INFO] SolveP: 67189.7 [ms]
time step continuity errors : sum local = 1.2073e-08, global = 1.01371e-21, cumulative = 2.18383e-20
[INFO] ContinuityError: 48.811 [ms]
[INFO] CorrectBoundary: 0.924 [ms]
[INFO] PISOStep: 67810.4 [ms]
[INFO] TimeStep: 138874 [ms]
ExecutionTime = 1782.88 s  ClockTime = 1791 s

Time = 0.00249

Courant Number mean: 0.0453264 max: 0.540959
[INFO] MatrixAssemblyU: 261.477 [ms]
DILUPBiCGStab:  Solving for Ux, Initial residual = 0.015703, Final residual = 0.00124793, No Iterations 5
DILUPBiCGStab:  Solving for Uy, Initial residual = 0.0615289, Final residual = 0.00393117, No Iterations 5
DILUPBiCGStab:  Solving for Uz, Initial residual = 0.483089, Final residual = 0.015664, No Iterations 5
[INFO] MomentumPredictor: 2961.84 [ms]
[INFO] MatrixAssemblyPI: 343.364 [ms]
[INFO] AdjustPhi: 20.775 [ms]
[INFO] ConstrainPressure: 0.004 [ms]
[INFO] MatrixAssemblyPII: 98.111 [ms]
DICPCG:  Solving for p, Initial residual = 0.903477, Final residual = 9.72288e-05, No Iterations 825
[INFO] SolveP: 64248.5 [ms]
time step continuity errors : sum local = 1.18702e-08, global = -4.84471e-22, cumulative = 2.13538e-20
[INFO] ContinuityError: 47.063 [ms]
[INFO] CorrectBoundary: 0.887 [ms]
[INFO] PISOStep: 64871.4 [ms]
[INFO] MatrixAssemblyPI: 337.238 [ms]
[INFO] AdjustPhi: 21.659 [ms]
[INFO] ConstrainPressure: 0.004 [ms]
[INFO] MatrixAssemblyPII: 101.35 [ms]
DICPCG:  Solving for p, Initial residual = 0.842234, Final residual = 9.97483e-05, No Iterations 822
[INFO] SolveP: 63901.8 [ms]
time step continuity errors : sum local = 1.21119e-08, global = 9.71139e-23, cumulative = 2.14509e-20
[INFO] ContinuityError: 50.278 [ms]
[INFO] CorrectBoundary: 1.129 [ms]
[INFO] PISOStep: 64525.8 [ms]
[INFO] TimeStep: 132667 [ms]
ExecutionTime = 1914.95 s  ClockTime = 1924 s

Time = 0.002656

Courant Number mean: 0.0464241 max: 0.492841
[INFO] MatrixAssemblyU: 261.255 [ms]
DILUPBiCGStab:  Solving for Ux, Initial residual = 0.0156895, Final residual = 0.00124171, No Iterations 5
DILUPBiCGStab:  Solving for Uy, Initial residual = 0.0574819, Final residual = 0.00351684, No Iterations 5
DILUPBiCGStab:  Solving for Uz, Initial residual = 0.478437, Final residual = 0.0159445, No Iterations 5
[INFO] MomentumPredictor: 2958.81 [ms]
[INFO] MatrixAssemblyPI: 342.783 [ms]
[INFO] AdjustPhi: 20.27 [ms]
[INFO] ConstrainPressure: 0.004 [ms]
[INFO] MatrixAssemblyPII: 98.734 [ms]
DICPCG:  Solving for p, Initial residual = 0.889812, Final residual = 9.78906e-05, No Iterations 853
[INFO] SolveP: 66202.8 [ms]
time step continuity errors : sum local = 1.24318e-08, global = 1.01388e-21, cumulative = 2.24648e-20
[INFO] ContinuityError: 47.818 [ms]
[INFO] CorrectBoundary: 0.875 [ms]
[INFO] PISOStep: 66828 [ms]
[INFO] MatrixAssemblyPI: 337.042 [ms]
[INFO] AdjustPhi: 20.43 [ms]
[INFO] ConstrainPressure: 0.004 [ms]
[INFO] MatrixAssemblyPII: 99.409 [ms]
DICPCG:  Solving for p, Initial residual = 0.817013, Final residual = 9.80858e-05, No Iterations 854
[INFO] SolveP: 66070.2 [ms]
time step continuity errors : sum local = 1.25649e-08, global = 9.51915e-23, cumulative = 2.256e-20
[INFO] ContinuityError: 49.491 [ms]
[INFO] CorrectBoundary: 0.875 [ms]
[INFO] PISOStep: 66690.9 [ms]
[INFO] TimeStep: 136785 [ms]
ExecutionTime = 2051.09 s  ClockTime = 2060 s

Time = 0.002822

Courant Number mean: 0.0475349 max: 0.551108
[INFO] MatrixAssemblyU: 263.206 [ms]
DILUPBiCGStab:  Solving for Ux, Initial residual = 0.0151231, Final residual = 0.00115124, No Iterations 5
DILUPBiCGStab:  Solving for Uy, Initial residual = 0.0588198, Final residual = 0.00355221, No Iterations 5
DILUPBiCGStab:  Solving for Uz, Initial residual = 0.48868, Final residual = 0.0153902, No Iterations 5
[INFO] MomentumPredictor: 2958.35 [ms]
[INFO] MatrixAssemblyPI: 343.956 [ms]
[INFO] AdjustPhi: 18.644 [ms]
[INFO] ConstrainPressure: 0.004 [ms]
[INFO] MatrixAssemblyPII: 98.429 [ms]
DICPCG:  Solving for p, Initial residual = 0.905044, Final residual = 9.70874e-05, No Iterations 858
[INFO] SolveP: 66692.9 [ms]
time step continuity errors : sum local = 1.24363e-08, global = 1.15289e-21, cumulative = 2.37129e-20
[INFO] ContinuityError: 47.719 [ms]
[INFO] CorrectBoundary: 0.966 [ms]
[INFO] PISOStep: 67315.6 [ms]
[INFO] MatrixAssemblyPI: 342.548 [ms]
[INFO] AdjustPhi: 19.514 [ms]
[INFO] ConstrainPressure: 0.003 [ms]
[INFO] MatrixAssemblyPII: 98.735 [ms]
DICPCG:  Solving for p, Initial residual = 0.840712, Final residual = 9.9799e-05, No Iterations 856
[INFO] SolveP: 66378.1 [ms]
time step continuity errors : sum local = 1.27302e-08, global = 1.9765e-21, cumulative = 2.56894e-20
[INFO] ContinuityError: 49.832 [ms]
[INFO] CorrectBoundary: 1.106 [ms]
[INFO] PISOStep: 67002.8 [ms]
[INFO] TimeStep: 137586 [ms]
ExecutionTime = 2188.06 s  ClockTime = 2198 s

Time = 0.002988

Courant Number mean: 0.0485182 max: 0.496193
[INFO] MatrixAssemblyU: 261.979 [ms]
DILUPBiCGStab:  Solving for Ux, Initial residual = 0.015248, Final residual = 0.00115665, No Iterations 5
DILUPBiCGStab:  Solving for Uy, Initial residual = 0.0557874, Final residual = 0.00321771, No Iterations 5
DILUPBiCGStab:  Solving for Uz, Initial residual = 0.485572, Final residual = 0.0158897, No Iterations 5
[INFO] MomentumPredictor: 2954.37 [ms]
[INFO] MatrixAssemblyPI: 342.786 [ms]
[INFO] AdjustPhi: 21.769 [ms]
[INFO] ConstrainPressure: 0.004 [ms]
[INFO] MatrixAssemblyPII: 98.556 [ms]
DICPCG:  Solving for p, Initial residual = 0.894562, Final residual = 9.62709e-05, No Iterations 859
[INFO] SolveP: 67077.7 [ms]
time step continuity errors : sum local = 1.28261e-08, global = 2.53289e-22, cumulative = 2.59427e-20
[INFO] ContinuityError: 47.036 [ms]
[INFO] CorrectBoundary: 0.919 [ms]
[INFO] PISOStep: 67701.9 [ms]
[INFO] MatrixAssemblyPI: 337.284 [ms]
[INFO] AdjustPhi: 20.693 [ms]
[INFO] ConstrainPressure: 0.004 [ms]
[INFO] MatrixAssemblyPII: 98.791 [ms]
DICPCG:  Solving for p, Initial residual = 0.820317, Final residual = 9.84491e-05, No Iterations 857
[INFO] SolveP: 68497.3 [ms]
time step continuity errors : sum local = 1.32158e-08, global = 1.45511e-21, cumulative = 2.73978e-20
[INFO] ContinuityError: 49.635 [ms]
[INFO] CorrectBoundary: 0.931 [ms]
[INFO] PISOStep: 69117.6 [ms]
[INFO] TimeStep: 140083 [ms]
ExecutionTime = 2327.51 s  ClockTime = 2338 s

Time = 0.003154

Courant Number mean: 0.0495313 max: 0.562845
[INFO] MatrixAssemblyU: 262.242 [ms]
DILUPBiCGStab:  Solving for Ux, Initial residual = 0.0148436, Final residual = 0.00107288, No Iterations 5
DILUPBiCGStab:  Solving for Uy, Initial residual = 0.0574233, Final residual = 0.00327814, No Iterations 5
DILUPBiCGStab:  Solving for Uz, Initial residual = 0.497693, Final residual = 0.0153899, No Iterations 5
[INFO] MomentumPredictor: 2963.13 [ms]
[INFO] MatrixAssemblyPI: 342.609 [ms]
[INFO] AdjustPhi: 19.937 [ms]
[INFO] ConstrainPressure: 0.004 [ms]
[INFO] MatrixAssemblyPII: 98.56 [ms]
DICPCG:  Solving for p, Initial residual = 0.907806, Final residual = 9.46756e-05, No Iterations 820
[INFO] SolveP: 63521.3 [ms]
time step continuity errors : sum local = 1.27928e-08, global = 1.11747e-21, cumulative = 2.85153e-20
[INFO] ContinuityError: 46.824 [ms]
[INFO] CorrectBoundary: 1.1 [ms]
[INFO] PISOStep: 64143.2 [ms]
[INFO] MatrixAssemblyPI: 336.441 [ms]
[INFO] AdjustPhi: 23.608 [ms]
[INFO] ConstrainPressure: 0.004 [ms]
[INFO] MatrixAssemblyPII: 98.464 [ms]
DICPCG:  Solving for p, Initial residual = 0.840676, Final residual = 9.65057e-05, No Iterations 820
[INFO] SolveP: 63434.7 [ms]
time step continuity errors : sum local = 1.30002e-08, global = -2.25174e-22, cumulative = 2.82901e-20
[INFO] ContinuityError: 47.892 [ms]
[INFO] CorrectBoundary: 1.27 [ms]
[INFO] PISOStep: 64057.7 [ms]
[INFO] TimeStep: 131473 [ms]
ExecutionTime = 2458.41 s  ClockTime = 2469 s

Time = 0.00332

Courant Number mean: 0.0504213 max: 0.49979
[INFO] MatrixAssemblyU: 260.495 [ms]
DILUPBiCGStab:  Solving for Ux, Initial residual = 0.0150775, Final residual = 0.00108526, No Iterations 5
DILUPBiCGStab:  Solving for Uy, Initial residual = 0.0551394, Final residual = 0.00299104, No Iterations 5
DILUPBiCGStab:  Solving for Uz, Initial residual = 0.494728, Final residual = 0.0153795, No Iterations 5
[INFO] MomentumPredictor: 2956.99 [ms]
[INFO] MatrixAssemblyPI: 342.862 [ms]
[INFO] AdjustPhi: 18.488 [ms]
[INFO] ConstrainPressure: 0.004 [ms]
[INFO] MatrixAssemblyPII: 98.257 [ms]
DICPCG:  Solving for p, Initial residual = 0.900152, Final residual = 9.74867e-05, No Iterations 862
[INFO] SolveP: 66670.3 [ms]
time step continuity errors : sum local = 1.36905e-08, global = 1.76741e-21, cumulative = 3.00575e-20
[INFO] ContinuityError: 47.293 [ms]
[INFO] CorrectBoundary: 0.994 [ms]
[INFO] PISOStep: 67290.9 [ms]
[INFO] MatrixAssemblyPI: 336.371 [ms]
[INFO] AdjustPhi: 21.737 [ms]
[INFO] ConstrainPressure: 0.003 [ms]
[INFO] MatrixAssemblyPII: 99.147 [ms]
DICPCG:  Solving for p, Initial residual = 0.82498, Final residual = 9.9528e-05, No Iterations 860
[INFO] SolveP: 66732.8 [ms]
time step continuity errors : sum local = 1.40706e-08, global = -5.38898e-22, cumulative = 2.95186e-20
[INFO] ContinuityError: 48.165 [ms]
[INFO] CorrectBoundary: 1.064 [ms]
[INFO] PISOStep: 67351.8 [ms]
[INFO] TimeStep: 137907 [ms]
ExecutionTime = 2595.68 s  ClockTime = 2607 s

End

Finalising parallel run
