/*---------------------------------------------------------------------------*\
| =========                 |                                                 |
| \\      /  F ield         | OpenFOAM: The Open Source CFD Toolbox           |
|  \\    /   O peration     | Version:  2306                                  |
|   \\  /    A nd           | Website:  www.openfoam.com                      |
|    \\/     M anipulation  |                                                 |
\*---------------------------------------------------------------------------*/
Build  : a6e826bd55-20230630 OPENFOAM=2306 version=v2306
Arch   : "LSB;label=32;scalar=64"
Exec   : pimpleFoam -parallel -case /home/greole/data/code/exasim_project/micro_benchmarks/WindsorBody/workspace/2c7adf2266807e86052b82c5022941cf/case
Date   : Aug 31 2023
Time   : 04:12:01
Host   : nla-gpu2.ianm.kit.edu
PID    : 92146
I/O    : uncollated
Case   : /home/greole/data/code/exasim_project/micro_benchmarks/WindsorBody/workspace/2c7adf2266807e86052b82c5022941cf/case
nProcs : 32
Hosts  :
(
    (nla-gpu2.ianm.kit.edu 32)
)
Pstream initialized with:
    floatTransfer      : false
    nProcsSimpleSum    : 0
    nonBlockingExchange: 0 (tuning: 0)
    exchange algorithm : -1
    commsType          : nonBlocking
    polling iterations : 0
trapFpe: Floating point exception trapping enabled (FOAM_SIGFPE).
fileModificationChecking : Monitoring run-time modified files using timeStampMaster (fileModificationSkew 5, maxFileModificationPolls 20)
allowSystemOperations : Allowing user-supplied system call operations

// * * * * * * * * * * * * * * * * * * * * * * * * * * * * * * * * * * * * * //
Create time

--> FOAM Warning : 
    From void* Foam::dlLibraryTable::openLibrary(const Foam::fileName&, bool)
    in file db/dynamicLibrary/dlLibraryTable/dlLibraryTable.C at line 188
    Could not load "libpetscFoam.so"
libpetscFoam.so: cannot open shared object file: No such file or directory
Create mesh for time = 0


PIMPLE: max iterations = 30
    field p	: relTol 0.1, tolerance 0
    field U	: relTol 0.001, tolerance 0

Reading field p

Reading field U

Reading/calculating face flux field phi

Selecting incompressible transport model Newtonian
Selecting turbulence model type LES
Selecting LES turbulence model kOmegaSSTDDES
Selecting LES delta type maxDeltaxyz
Selecting patchDistMethod meshWave
LES
{
    LESModel        kOmegaSSTDDES;
    delta           maxDeltaxyz;
    turbulence      on;
    printCoeffs     on;
    alphaK1         0.85;
    alphaK2         1;
    alphaOmega1     0.5;
    alphaOmega2     0.856;
    gamma1          0.5555555555555556;
    gamma2          0.44;
    beta1           0.075;
    beta2           0.0828;
    betaStar        0.09;
    a1              0.31;
    b1              1;
    c1              10;
    F3              false;
    decayControl    false;
    kInf            0;
    omegaInf        0;
    useSigma        false;
    kappa           0.41;
    CDESkom         0.82;
    CDESkeps        0.6;
    Ctrans          60;
    Cd1             20;
    Cd2             3;
}

No MRF models present

Creating finite volume options from "system/fvOptions"

Selecting finite volume options type velocityDampingConstraint
    Source: velocityDamping
    - selecting all cells
    - selected 25228544 cell(s) with volume 111.3033220642923
Courant Number mean: 0.00426084852695275 max: 6.125474307821542

Starting time loop

--> FOAM Warning : 
    From bool Foam::functionObjectList::read()
    in file db/functionObjects/functionObjectList/functionObjectList.C at line 1035
    Reading "system/controlDict" at line 2 to 19
    Entry 'lref' is not a dictionary
--> FOAM Warning : 
    From bool Foam::functionObjectList::read()
    in file db/functionObjects/functionObjectList/functionObjectList.C at line 1035
    Reading "system/controlDict" at line 2 to 19
    Entry 'Aref' is not a dictionary
--> FOAM Warning : 
    From bool Foam::functionObjectList::read()
    in file db/functionObjects/functionObjectList/functionObjectList.C at line 1035
    Reading "system/controlDict" at line 2 to 19
    Entry 'yawAngle' is not a dictionary
--> FOAM Warning : 
    From bool Foam::functionObjectList::read()
    in file db/functionObjects/functionObjectList/functionObjectList.C at line 1035
    Reading "system/controlDict" at line 2 to 19
    Entry 'lDomain' is not a dictionary
--> FOAM Warning : 
    From bool Foam::functionObjectList::read()
    in file db/functionObjects/functionObjectList/functionObjectList.C at line 1035
    Reading "system/controlDict" at line 2 to 19
    Entry 'bDomain' is not a dictionary
--> FOAM Warning : 
    From bool Foam::functionObjectList::read()
    in file db/functionObjects/functionObjectList/functionObjectList.C at line 1035
    Reading "system/controlDict" at line 2 to 19
    Entry 'hDomain' is not a dictionary
--> FOAM Warning : 
    From bool Foam::functionObjectList::read()
    in file db/functionObjects/functionObjectList/functionObjectList.C at line 1035
    Reading "system/controlDict" at line 2 to 19
    Entry 'xCenter' is not a dictionary
--> FOAM Warning : 
    From bool Foam::functionObjectList::read()
    in file db/functionObjects/functionObjectList/functionObjectList.C at line 1035
    Reading "system/controlDict" at line 2 to 19
    Entry 'yCenter' is not a dictionary
--> FOAM Warning : 
    From bool Foam::functionObjectList::read()
    in file db/functionObjects/functionObjectList/functionObjectList.C at line 1035
    Reading "system/controlDict" at line 2 to 19
    Entry 'zCenter' is not a dictionary
--> FOAM Warning : 
    From bool Foam::functionObjectList::read()
    in file db/functionObjects/functionObjectList/functionObjectList.C at line 1035
    Reading "system/controlDict" at line 2 to 19
    Entry 'inletPatch' is not a dictionary
--> FOAM Warning : 
    From bool Foam::functionObjectList::read()
    in file db/functionObjects/functionObjectList/functionObjectList.C at line 1035
    Reading "system/controlDict" at line 2 to 19
    Entry 'outletPatch' is not a dictionary
--> FOAM Warning : 
    From bool Foam::functionObjectList::read()
    in file db/functionObjects/functionObjectList/functionObjectList.C at line 1035
    Reading "system/controlDict" at line 2 to 19
    Entry 'wallPatches' is not a dictionary
--> FOAM Warning : 
    From bool Foam::functionObjectList::read()
    in file db/functionObjects/functionObjectList/functionObjectList.C at line 1035
    Reading "system/controlDict" at line 2 to 19
    Entry 'forcesWallPatches' is not a dictionary
--> FOAM Warning : 
    From bool Foam::functionObjectList::read()
    in file db/functionObjects/functionObjectList/functionObjectList.C at line 1035
    Reading "system/controlDict" at line 2 to 19
    Entry 'symmPatches' is not a dictionary
--> FOAM Warning : 
    From bool Foam::functionObjectList::read()
    in file db/functionObjects/functionObjectList/functionObjectList.C at line 1035
    Reading "system/controlDict" at line 2 to 19
    Entry 'Uinf' is not a dictionary
--> FOAM Warning : 
    From bool Foam::functionObjectList::read()
    in file db/functionObjects/functionObjectList/functionObjectList.C at line 1035
    Reading "system/controlDict" at line 2 to 19
    Entry 'UinfMag' is not a dictionary
--> FOAM Warning : 
    From bool Foam::functionObjectList::read()
    in file db/functionObjects/functionObjectList/functionObjectList.C at line 1035
    Reading "system/controlDict" at line 2 to 19
    Entry 'nu' is not a dictionary
--> FOAM Warning : 
    From bool Foam::functionObjectList::read()
    in file db/functionObjects/functionObjectList/functionObjectList.C at line 1035
    Reading "system/controlDict" at line 2 to 19
    Entry 'pref' is not a dictionary
--> FOAM Warning : 
    From bool Foam::functionObjectList::read()
    in file db/functionObjects/functionObjectList/functionObjectList.C at line 1035
    Reading "system/controlDict" at line 2 to 19
    Entry 'viscRatio' is not a dictionary
--> FOAM Warning : 
    From bool Foam::functionObjectList::read()
    in file db/functionObjects/functionObjectList/functionObjectList.C at line 1035
    Reading "system/controlDict" at line 2 to 19
    Entry 'Tu' is not a dictionary
--> FOAM Warning : 
    From bool Foam::functionObjectList::read()
    in file db/functionObjects/functionObjectList/functionObjectList.C at line 1035
    Reading "system/controlDict" at line 2 to 19
    Entry 'LESturbModel' is not a dictionary
--> FOAM Warning : 
    From bool Foam::functionObjectList::read()
    in file db/functionObjects/functionObjectList/functionObjectList.C at line 1035
    Reading "system/controlDict" at line 2 to 19
    Entry 'RASturbModel' is not a dictionary
--> FOAM Warning : 
    From bool Foam::functionObjectList::read()
    in file db/functionObjects/functionObjectList/functionObjectList.C at line 1035
    Reading "system/controlDict" at line 2 to 19
    Entry 'deltaTurb' is not a dictionary
--> FOAM Warning : 
    From bool Foam::functionObjectList::read()
    in file db/functionObjects/functionObjectList/functionObjectList.C at line 1035
    Reading "system/controlDict" at line 2 to 19
    Entry 'dt' is not a dictionary
--> FOAM Warning : 
    From bool Foam::functionObjectList::read()
    in file db/functionObjects/functionObjectList/functionObjectList.C at line 1035
    Reading "system/controlDict" at line 2 to 19
    Entry 'tAvg' is not a dictionary
--> FOAM Warning : 
    From bool Foam::functionObjectList::read()
    in file db/functionObjects/functionObjectList/functionObjectList.C at line 1035
    Reading "system/controlDict" at line 2 to 19
    Entry 'tEnd' is not a dictionary
--> FOAM Warning : 
    From bool Foam::functionObjectList::read()
    in file db/functionObjects/functionObjectList/functionObjectList.C at line 1035
    Reading "system/controlDict" at line 2 to 19
    Entry 'writeInterval_' is not a dictionary
--> FOAM Warning : 
    From bool Foam::functionObjectList::read()
    in file db/functionObjects/functionObjectList/functionObjectList.C at line 1035
    Reading "system/controlDict" at line 2 to 19
    Entry 'nCores' is not a dictionary
--> FOAM Warning : 
    From bool Foam::functionObjectList::read()
    in file db/functionObjects/functionObjectList/functionObjectList.C at line 1035
    Reading "system/controlDict" at line 2 to 19
    Entry 'interpScheme' is not a dictionary
--> FOAM Warning : 
    From bool Foam::functionObjectList::read()
    in file db/functionObjects/functionObjectList/functionObjectList.C at line 1035
    Reading "system/controlDict" at line 2 to 19
    Entry 'probeField' is not a dictionary
wallShearStress wallShearStress:
    processing wall patches: 
        Windsor_Body
        CFDWT_Floor
        Windsor_Pins
        Windsor_Base
        Windsor_Body_2
        CFDWT_Floor_2
        Windsor_Pins_2
        Windsor_Base_2
        Windsor_Body_3
        CFDWT_Floor_3
        Windsor_Pins_3
        Windsor_Base_3
        Windsor_Body_4
        CFDWT_Floor_4
        Windsor_Pins_4
        Windsor_Base_4

pressure calc_cp:
    Operating mode: staticCoeff
    Not including hydrostatic effects

forceCoeffs forceCoeffsAll:
    rho: rhoInf
    Freestream density (rhoInf) set to 1
    Not including porosity effects
    magUInf: 40
    lRef   : 0.6375
    Aref   : 0.1124
    rhoInf : 1
    Selecting all coefficients
    - Drag force: Cd
    - Drag force front: Cd(f)
    - Drag force rear: Cd(r)
    - Lift force: Cl
    - Lift force front: Cl(f)
    - Lift force rear: Cl(r)
    - Pitch moment: CmPitch
    - Roll moment: CmRoll
    - Yaw moment: CmYaw
    - Side force: Cs
    - Side force front: Cs(f)
    - Side force rear: Cs(r)


forceCoeffs dragCoeffBase:
    rho: rhoInf
    Freestream density (rhoInf) set to 1
    Not including porosity effects
    magUInf: 40
    lRef   : 0.6375
    Aref   : 0.1124
    rhoInf : 1
    Selecting coefficients:
    - Drag force: Cd


Courant Number mean: 0.00426084852695275 max: 6.125474307821542
Time = 5e-06

PIMPLE: iteration 1
velocityDampingConstraint velocityDamping damped 0 (0%) of cells, with max limit 300
[INFO] MatrixAssemblyU: 2996.308 [ms]
smoothSolver:  Solving for Ux, Initial residual = 0.9999999989864492, Final residual = 0.004513019609314054, No Iterations 1
smoothSolver:  Solving for Uy, Initial residual = 1, Final residual = 0.01636615161403721, No Iterations 1
smoothSolver:  Solving for Uz, Initial residual = 1, Final residual = 0.01391160832291675, No Iterations 1
[INFO] MomentumPredictor: 390.112 [ms]
[INFO] MatrixAssemblyPI: 328.787 [ms]
[INFO] MatrixAssemblyPII: 214.413 [ms]
[OGL LOG][lduLduBase.H:119] Initialising OGL
	OGL commit:  4647ee1+
	Branch: PersistentDeviceIdGuard 
	Build type: Release
	Ginkgo version: 1.5.0 ( develop)
	Ginkgo commit: 4292ffdee
	MPI is GPU aware: 1
	Forces host buffer based communication: 0
	CPU ranks per GPU: 1
	Matrix format: Coo
	End OGL_INFO
[OGL LOG][Proc: 0]: global_index_init: 10.978 [ms]
[OGL LOG][Proc: 0]p_local_cols: call_init: 0.027 [ms]
[OGL LOG][Proc: 0]p_local_rows: call_init: 0.003 [ms]
[OGL LOG][Proc: 0]p_local_ldu_map: call_init: 0.002 [ms]
[OGL LOG][Proc: 0]p_local_coeffs: call_init: 0.005 [ms]
[OGL LOG][Proc: 0]p_non_local_cols: call_init: 0.003 [ms]
[OGL LOG][Proc: 0]p_non_local_rows: call_init: 0.003 [ms]
[OGL LOG][Proc: 0]p_non_local_ldu_map: call_init: 0.002 [ms]
[OGL LOG][Proc: 0]p_non_local_coeffs: call_init: 0.002 [ms]
[OGL LOG][Proc: 0]p: init_local_sparsity_pattern: 245.001 [ms]
[OGL LOG][Proc: 0]p: init_non_local_sparsity_pattern: 15.08 [ms]
[OGL LOG][Proc: 0]p: update_local_matrix_data: 34.971 [ms]
[OGL LOG][Proc: 0]p: update_non_local_matrix_data: 0.163 [ms]
[OGL LOG][Proc: 0]device_partition: call_init: 35.53 [ms]
[OGL LOG][Proc: 0]p_matrix: call_init: 184.383 [ms]
[OGL LOG][Proc: 0]p_rhs: call_init: 0.9320000000000001 [ms]
[OGL LOG][Proc: 0]p_solution: call_init: 2.312 [ms]
[OGL LOG][Preconditioner.H:121] Generate preconditioner BJ MaxBlockSize 1
[OGL LOG][Proc: 0]p: init_precond: 6.77 [ms]
[OGL LOG][StoppingCriterion.H:373] Creating stopping criterion with minIter 1 frequency 1
[OGL LOG][Proc: 0]p: generate_solver: 0.006 [ms]
[OGL LOG][Proc: 0]p: solve: 6143.365 [ms]
[OGL LOG][Proc: 0]p: copy_x_back: 4.559 [ms]
[OGL LOG][lduLduBase.H:336] 
Statistics:
	Time per iteration: 3403 [mu s]
	Time per residual norm calculation: 1427.000000 [mu s]
	Time per iteration and DOF: 0.134887 [ns]
	Retrieve results bandwidth 1.652000 [GByte/s]
[OGL LOG][Proc: 0]p: solve_multi_gpu: 6378.805 [ms]
BJhipGKOCG:  Solving for p, Initial residual = 1.000000000000086, Final residual = 0.009987782077389673, No Iterations 1805
[INFO] SolveP: 7043.897 [ms]
time step continuity errors : sum local = 1.79334170151245e-08, global = -9.155671996035959e-11, cumulative = -9.155671996035959e-11
[INFO] PIMPLEStep: 11099.289 [ms]
PIMPLE: iteration 2
velocityDampingConstraint velocityDamping damped 0 (0%) of cells, with max limit 300
[INFO] MatrixAssemblyU: 2921.58 [ms]
smoothSolver:  Solving for Ux, Initial residual = 0.08477151625283283, Final residual = 0.0004626705280825373, No Iterations 1
smoothSolver:  Solving for Uy, Initial residual = 0.1297003220382418, Final residual = 0.001002514840485894, No Iterations 1
smoothSolver:  Solving for Uz, Initial residual = 0.05519687112721948, Final residual = 0.0003193168496130188, No Iterations 1
[INFO] MomentumPredictor: 389.147 [ms]
[INFO] MatrixAssemblyPI: 302.318 [ms]
[INFO] MatrixAssemblyPII: 216.403 [ms]
[OGL LOG][Proc: 0]: global_index_init: 0.034 [ms]
[OGL LOG][Proc: 0]p_local_coeffs: call_update: 0.001 [ms]
[OGL LOG][Proc: 0]p_non_local_coeffs: call_update: 0 [ms]
[OGL LOG][Proc: 0]p: update_local_matrix_data: 40.989 [ms]
[OGL LOG][Proc: 0]p: update_non_local_matrix_data: 0.137 [ms]
[OGL LOG][Proc: 0]p_matrix: call_update: 14.697 [ms]
[OGL LOG][Proc: 0]p_rhs: call_update: 2.859 [ms]
[OGL LOG][Preconditioner.H:121] Generate preconditioner BJ MaxBlockSize 1
[OGL LOG][Proc: 0]p: init_precond: 0.9530000000000001 [ms]
[OGL LOG][StoppingCriterion.H:373] Creating stopping criterion with minIter 1083 frequency 19
[OGL LOG][Proc: 0]p: generate_solver: 0.001 [ms]
[OGL LOG][Proc: 0]p: solve: 2746.149 [ms]
[OGL LOG][Proc: 0]p: copy_x_back: 4.444 [ms]
[OGL LOG][lduLduBase.H:336] 
Statistics:
	Time per iteration: 1925 [mu s]
	Time per residual norm calculation: 333.000000 [mu s]
	Time per iteration and DOF: 0.076302 [ns]
	Retrieve results bandwidth 1.695000 [GByte/s]
[OGL LOG][Proc: 0]p: solve_multi_gpu: 2770.079 [ms]
BJhipGKOCG:  Solving for p, Initial residual = 0.2360196931729233, Final residual = 0.002096150607981002, No Iterations 1426
[INFO] SolveP: 2820.308 [ms]
time step continuity errors : sum local = 1.690998603075068e-08, global = 1.586501692110625e-10, cumulative = 6.709344925070291e-11
[INFO] PIMPLEStep: 6775.466 [ms]
PIMPLE: iteration 3
velocityDampingConstraint velocityDamping damped 0 (0%) of cells, with max limit 300
[INFO] MatrixAssemblyU: 2911.07 [ms]
smoothSolver:  Solving for Ux, Initial residual = 0.03812766960767176, Final residual = 0.0002093268124995377, No Iterations 1
smoothSolver:  Solving for Uy, Initial residual = 0.0603808578312006, Final residual = 0.0004707665644511119, No Iterations 1
smoothSolver:  Solving for Uz, Initial residual = 0.024627099148061, Final residual = 0.0001428347740132342, No Iterations 1
[INFO] MomentumPredictor: 385.1 [ms]
[INFO] MatrixAssemblyPI: 302.467 [ms]
[INFO] MatrixAssemblyPII: 213.294 [ms]
[OGL LOG][Proc: 0]: global_index_init: 0.077 [ms]
[OGL LOG][Proc: 0]p_local_coeffs: call_update: 0 [ms]
[OGL LOG][Proc: 0]p_non_local_coeffs: call_update: 0 [ms]
[OGL LOG][Proc: 0]p: update_local_matrix_data: 40.56 [ms]
[OGL LOG][Proc: 0]p: update_non_local_matrix_data: 0.101 [ms]
[OGL LOG][Proc: 0]p_matrix: call_update: 8.872999999999999 [ms]
[OGL LOG][Proc: 0]p_rhs: call_update: 6.807 [ms]
[OGL LOG][Preconditioner.H:121] Generate preconditioner BJ MaxBlockSize 1
[OGL LOG][Proc: 0]p: init_precond: 0.866 [ms]
[OGL LOG][StoppingCriterion.H:373] Creating stopping criterion with minIter 855 frequency 10
[OGL LOG][Proc: 0]p: generate_solver: 0.001 [ms]
[OGL LOG][Proc: 0]p: solve: 2861.487 [ms]
[OGL LOG][Proc: 0]p: copy_x_back: 4.553 [ms]
[OGL LOG][lduLduBase.H:336] 
Statistics:
	Time per iteration: 1958 [mu s]
	Time per residual norm calculation: 339.000000 [mu s]
	Time per iteration and DOF: 0.077611 [ns]
	Retrieve results bandwidth 1.654000 [GByte/s]
[OGL LOG][Proc: 0]p: solve_multi_gpu: 2883.534 [ms]
BJhipGKOCG:  Solving for p, Initial residual = 0.09498039690249105, Final residual = 0.0008235359682400681, No Iterations 1461
[INFO] SolveP: 2933.294 [ms]
time step continuity errors : sum local = 7.33168309063049e-09, global = 2.879771696030361e-11, cumulative = 9.589116621100652e-11
[INFO] PIMPLEStep: 6874.957 [ms]
PIMPLE: iteration 4
velocityDampingConstraint velocityDamping damped 0 (0%) of cells, with max limit 300
[INFO] MatrixAssemblyU: 2922.378 [ms]
smoothSolver:  Solving for Ux, Initial residual = 0.01767857408869112, Final residual = 9.640455638783853e-05, No Iterations 1
smoothSolver:  Solving for Uy, Initial residual = 0.02733683538602527, Final residual = 0.0002119245238509704, No Iterations 1
smoothSolver:  Solving for Uz, Initial residual = 0.01091098557376089, Final residual = 6.258299244735951e-05, No Iterations 1
[INFO] MomentumPredictor: 388.35 [ms]
[INFO] MatrixAssemblyPI: 302.51 [ms]
[INFO] MatrixAssemblyPII: 216.166 [ms]
[OGL LOG][Proc: 0]: global_index_init: 0.051 [ms]
[OGL LOG][Proc: 0]p_local_coeffs: call_update: 0 [ms]
[OGL LOG][Proc: 0]p_non_local_coeffs: call_update: 0 [ms]
[OGL LOG][Proc: 0]p: update_local_matrix_data: 41.893 [ms]
[OGL LOG][Proc: 0]p: update_non_local_matrix_data: 0.138 [ms]
[OGL LOG][Proc: 0]p_matrix: call_update: 9.028 [ms]
[OGL LOG][Proc: 0]p_rhs: call_update: 4.526 [ms]
[OGL LOG][Preconditioner.H:121] Generate preconditioner BJ MaxBlockSize 1
[OGL LOG][Proc: 0]p: init_precond: 0.899 [ms]
[OGL LOG][StoppingCriterion.H:373] Creating stopping criterion with minIter 876 frequency 10
[OGL LOG][Proc: 0]p: generate_solver: 0.001 [ms]
[OGL LOG][Proc: 0]p: solve: 2830.598 [ms]
[OGL LOG][Proc: 0]p: copy_x_back: 4.627 [ms]
[OGL LOG][lduLduBase.H:336] 
Statistics:
	Time per iteration: 1924 [mu s]
	Time per residual norm calculation: 326.000000 [mu s]
	Time per iteration and DOF: 0.076263 [ns]
	Retrieve results bandwidth 1.628000 [GByte/s]
[OGL LOG][Proc: 0]p: solve_multi_gpu: 2850.68 [ms]
BJhipGKOCG:  Solving for p, Initial residual = 0.04001234154938839, Final residual = 0.0003597048704654284, No Iterations 1471
[INFO] SolveP: 2902.529 [ms]
time step continuity errors : sum local = 3.3867218804442e-09, global = 9.192662486914234e-12, cumulative = 1.050838286979207e-10
[INFO] PIMPLEStep: 6857.084 [ms]
PIMPLE: iteration 5
velocityDampingConstraint velocityDamping damped 0 (0%) of cells, with max limit 300
[INFO] MatrixAssemblyU: 2927.219 [ms]
smoothSolver:  Solving for Ux, Initial residual = 0.007517116308806244, Final residual = 4.023412211768743e-05, No Iterations 1
smoothSolver:  Solving for Uy, Initial residual = 0.01129892180669852, Final residual = 8.596024153757378e-05, No Iterations 1
smoothSolver:  Solving for Uz, Initial residual = 0.004499790683435084, Final residual = 2.51501988358755e-05, No Iterations 1
[INFO] MomentumPredictor: 384.605 [ms]
[INFO] MatrixAssemblyPI: 302.339 [ms]
[INFO] MatrixAssemblyPII: 215.188 [ms]
[OGL LOG][Proc: 0]: global_index_init: 0.033 [ms]
[OGL LOG][Proc: 0]p_local_coeffs: call_update: 0 [ms]
[OGL LOG][Proc: 0]p_non_local_coeffs: call_update: 0 [ms]
[OGL LOG][Proc: 0]p: update_local_matrix_data: 41.034 [ms]
[OGL LOG][Proc: 0]p: update_non_local_matrix_data: 0.122 [ms]
[OGL LOG][Proc: 0]p_matrix: call_update: 8.460000000000001 [ms]
[OGL LOG][Proc: 0]p_rhs: call_update: 7.689 [ms]
[OGL LOG][Preconditioner.H:121] Generate preconditioner BJ MaxBlockSize 1
[OGL LOG][Proc: 0]p: init_precond: 0.903 [ms]
[OGL LOG][StoppingCriterion.H:373] Creating stopping criterion with minIter 882 frequency 10
[OGL LOG][Proc: 0]p: generate_solver: 0.001 [ms]
[OGL LOG][Proc: 0]p: solve: 2814.923 [ms]
[OGL LOG][Proc: 0]p: copy_x_back: 4.679 [ms]
[OGL LOG][lduLduBase.H:336] 
Statistics:
	Time per iteration: 1926 [mu s]
	Time per residual norm calculation: 337.000000 [mu s]
	Time per iteration and DOF: 0.076342 [ns]
	Retrieve results bandwidth 1.610000 [GByte/s]
[OGL LOG][Proc: 0]p: solve_multi_gpu: 2837.66 [ms]
BJhipGKOCG:  Solving for p, Initial residual = 0.01753602584813469, Final residual = 0.0001748596079587706, No Iterations 1461
[INFO] SolveP: 2888.101 [ms]
time step continuity errors : sum local = 1.666969155979217e-09, global = 5.57994180422124e-12, cumulative = 1.10663770502142e-10
[INFO] PIMPLEStep: 6844.628 [ms]
PIMPLE: iteration 6
velocityDampingConstraint velocityDamping damped 0 (0%) of cells, with max limit 300
[INFO] MatrixAssemblyU: 2904.218 [ms]
smoothSolver:  Solving for Ux, Initial residual = 0.002773834544628022, Final residual = 1.439674221420069e-05, No Iterations 1
smoothSolver:  Solving for Uy, Initial residual = 0.004053136637055654, Final residual = 2.957939787694715e-05, No Iterations 1
smoothSolver:  Solving for Uz, Initial residual = 0.00162853206225147, Final residual = 8.675179893894681e-06, No Iterations 1
[INFO] MomentumPredictor: 387.319 [ms]
[INFO] MatrixAssemblyPI: 301.925 [ms]
[INFO] MatrixAssemblyPII: 214.482 [ms]
[OGL LOG][Proc: 0]: global_index_init: 0.091 [ms]
[OGL LOG][Proc: 0]p_local_coeffs: call_update: 0 [ms]
[OGL LOG][Proc: 0]p_non_local_coeffs: call_update: 0 [ms]
[OGL LOG][Proc: 0]p: update_local_matrix_data: 41.34 [ms]
[OGL LOG][Proc: 0]p: update_non_local_matrix_data: 0.139 [ms]
[OGL LOG][Proc: 0]p_matrix: call_update: 8.954000000000001 [ms]
[OGL LOG][Proc: 0]p_rhs: call_update: 8.894 [ms]
[OGL LOG][Preconditioner.H:121] Generate preconditioner BJ MaxBlockSize 1
[OGL LOG][Proc: 0]p: init_precond: 0.878 [ms]
[OGL LOG][StoppingCriterion.H:373] Creating stopping criterion with minIter 876 frequency 10
[OGL LOG][Proc: 0]p: generate_solver: 0.001 [ms]
[OGL LOG][Proc: 0]p: solve: 2804.553 [ms]
[OGL LOG][Proc: 0]p: copy_x_back: 4.202 [ms]
[OGL LOG][lduLduBase.H:336] 
Statistics:
	Time per iteration: 1946 [mu s]
	Time per residual norm calculation: 333.000000 [mu s]
	Time per iteration and DOF: 0.077135 [ns]
	Retrieve results bandwidth 1.792000 [GByte/s]
[OGL LOG][Proc: 0]p: solve_multi_gpu: 2829.102 [ms]
BJhipGKOCG:  Solving for p, Initial residual = 0.008934521799186192, Final residual = 8.747927422056937e-05, No Iterations 1441
[INFO] SolveP: 2879.98 [ms]
time step continuity errors : sum local = 8.32231741183372e-10, global = 5.069644546349244e-12, cumulative = 1.157334150484912e-10
[INFO] PIMPLEStep: 6815.666 [ms]
PIMPLE: iteration 7
velocityDampingConstraint velocityDamping damped 0 (0%) of cells, with max limit 300
[INFO] MatrixAssemblyU: 2904.893 [ms]
smoothSolver:  Solving for Ux, Initial residual = 0.0008135764516076084, Final residual = 4.061781436910053e-06, No Iterations 1
smoothSolver:  Solving for Uy, Initial residual = 0.001145748760440873, Final residual = 7.757437705845249e-06, No Iterations 1
smoothSolver:  Solving for Uz, Initial residual = 0.0004732437364105392, Final residual = 2.337165167706363e-06, No Iterations 1
[INFO] MomentumPredictor: 386.222 [ms]
[INFO] MatrixAssemblyPI: 302.909 [ms]
[INFO] MatrixAssemblyPII: 215.766 [ms]
[OGL LOG][Proc: 0]: global_index_init: 0.106 [ms]
[OGL LOG][Proc: 0]p_local_coeffs: call_update: 0 [ms]
[OGL LOG][Proc: 0]p_non_local_coeffs: call_update: 0 [ms]
[OGL LOG][Proc: 0]p: update_local_matrix_data: 41.123 [ms]
[OGL LOG][Proc: 0]p: update_non_local_matrix_data: 0.182 [ms]
[OGL LOG][Proc: 0]p_matrix: call_update: 9.003 [ms]
[OGL LOG][Proc: 0]p_rhs: call_update: 4.677 [ms]
[OGL LOG][Preconditioner.H:121] Generate preconditioner BJ MaxBlockSize 1
[OGL LOG][Proc: 0]p: init_precond: 0.968 [ms]
[OGL LOG][StoppingCriterion.H:373] Creating stopping criterion with minIter 864 frequency 10
[OGL LOG][Proc: 0]p: generate_solver: 0.001 [ms]
[OGL LOG][Proc: 0]p: solve: 2668.044 [ms]
[OGL LOG][Proc: 0]p: copy_x_back: 4.142 [ms]
[OGL LOG][lduLduBase.H:336] 
Statistics:
	Time per iteration: 1946 [mu s]
	Time per residual norm calculation: 335.000000 [mu s]
	Time per iteration and DOF: 0.077135 [ns]
	Retrieve results bandwidth 1.818000 [GByte/s]
[OGL LOG][Proc: 0]p: solve_multi_gpu: 2688.486 [ms]
BJhipGKOCG:  Solving for p, Initial residual = 0.005492800998663941, Final residual = 5.35283677769179e-05, No Iterations 1371
[INFO] SolveP: 2739.052 [ms]
time step continuity errors : sum local = 5.069692636691744e-10, global = 6.23822141625497e-12, cumulative = 1.219716364647462e-10
[INFO] PIMPLEStep: 6674.38 [ms]
PIMPLE: iteration 8
velocityDampingConstraint velocityDamping damped 0 (0%) of cells, with max limit 300
[INFO] MatrixAssemblyU: 2897.316 [ms]
smoothSolver:  Solving for Ux, Initial residual = 0.0001415521976333834, Final residual = 7.673179631617954e-07, No Iterations 1
smoothSolver:  Solving for Uy, Initial residual = 0.0002104132719626239, Final residual = 1.389339813298891e-06, No Iterations 1
smoothSolver:  Solving for Uz, Initial residual = 9.222805176225536e-05, Final residual = 4.783845863690981e-07, No Iterations 1
[INFO] MomentumPredictor: 389.739 [ms]
[INFO] MatrixAssemblyPI: 303.041 [ms]
[INFO] MatrixAssemblyPII: 217.08 [ms]
[OGL LOG][Proc: 0]: global_index_init: 0.034 [ms]
[OGL LOG][Proc: 0]p_local_coeffs: call_update: 0 [ms]
[OGL LOG][Proc: 0]p_non_local_coeffs: call_update: 0 [ms]
[OGL LOG][Proc: 0]p: update_local_matrix_data: 41.36 [ms]
[OGL LOG][Proc: 0]p: update_non_local_matrix_data: 0.136 [ms]
[OGL LOG][Proc: 0]p_matrix: call_update: 11.104 [ms]
[OGL LOG][Proc: 0]p_rhs: call_update: 6.963 [ms]
[OGL LOG][Preconditioner.H:121] Generate preconditioner BJ MaxBlockSize 1
[OGL LOG][Proc: 0]p: init_precond: 0.9340000000000001 [ms]
[OGL LOG][StoppingCriterion.H:373] Creating stopping criterion with minIter 822 frequency 10
[OGL LOG][Proc: 0]p: generate_solver: 0.001 [ms]
[OGL LOG][Proc: 0]p: solve: 2167.123 [ms]
[OGL LOG][Proc: 0]p: copy_x_back: 4.25 [ms]
[OGL LOG][lduLduBase.H:336] 
Statistics:
	Time per iteration: 1933 [mu s]
	Time per residual norm calculation: 336.000000 [mu s]
	Time per iteration and DOF: 0.076620 [ns]
	Retrieve results bandwidth 1.772000 [GByte/s]
[OGL LOG][Proc: 0]p: solve_multi_gpu: 2191.449 [ms]
BJhipGKOCG:  Solving for p, Initial residual = 0.003325337674635578, Final residual = 3.187035175665072e-05, No Iterations 1121
[INFO] SolveP: 2242.238 [ms]
time step continuity errors : sum local = 3.007639886459733e-10, global = 4.501903124114777e-12, cumulative = 1.26473539588861e-10
[INFO] PIMPLEStep: 6174.815 [ms]
PIMPLE: iteration 9
velocityDampingConstraint velocityDamping damped 0 (0%) of cells, with max limit 300
[INFO] MatrixAssemblyU: 2894.508 [ms]
smoothSolver:  Solving for Ux, Initial residual = 5.335378891850602e-05, Final residual = 5.720458307734979e-07, No Iterations 1
smoothSolver:  Solving for Uy, Initial residual = 0.0001450959716245078, Final residual = 1.385599736517913e-06, No Iterations 1
smoothSolver:  Solving for Uz, Initial residual = 5.061486184566511e-05, Final residual = 4.224942526532398e-07, No Iterations 1
[INFO] MomentumPredictor: 391.643 [ms]
[INFO] MatrixAssemblyPI: 302.531 [ms]
[INFO] MatrixAssemblyPII: 216.56 [ms]
[OGL LOG][Proc: 0]: global_index_init: 0.035 [ms]
[OGL LOG][Proc: 0]p_local_coeffs: call_update: 0 [ms]
[OGL LOG][Proc: 0]p_non_local_coeffs: call_update: 0 [ms]
[OGL LOG][Proc: 0]p: update_local_matrix_data: 40.484 [ms]
[OGL LOG][Proc: 0]p: update_non_local_matrix_data: 0.111 [ms]
[OGL LOG][Proc: 0]p_matrix: call_update: 10.567 [ms]
[OGL LOG][Proc: 0]p_rhs: call_update: 4.99 [ms]
[OGL LOG][Preconditioner.H:121] Generate preconditioner BJ MaxBlockSize 1
[OGL LOG][Proc: 0]p: init_precond: 0.963 [ms]
[OGL LOG][StoppingCriterion.H:373] Creating stopping criterion with minIter 672 frequency 9
[OGL LOG][Proc: 0]p: generate_solver: 0.001 [ms]
[OGL LOG][Proc: 0]p: solve: 1332.647 [ms]
[OGL LOG][Proc: 0]p: copy_x_back: 4.367 [ms]
[OGL LOG][lduLduBase.H:336] 
Statistics:
	Time per iteration: 1971 [mu s]
	Time per residual norm calculation: 366.000000 [mu s]
	Time per iteration and DOF: 0.078126 [ns]
	Retrieve results bandwidth 1.725000 [GByte/s]
[OGL LOG][Proc: 0]p: solve_multi_gpu: 1354.538 [ms]
BJhipGKOCG:  Solving for p, Initial residual = 0.001936426842704215, Final residual = 1.720395083885029e-05, No Iterations 676
[INFO] SolveP: 1404.443 [ms]
time step continuity errors : sum local = 1.620464296454265e-10, global = 4.529764115324133e-12, cumulative = 1.310033037041851e-10
DILUPBiCGStab:  Solving for omega, Initial residual = 5.92552027960537e-05, Final residual = 2.574479288649374e-09, No Iterations 1
DILUPBiCGStab:  Solving for k, Initial residual = 0.999999687194374, Final residual = 2.126728510344395e-07, No Iterations 1
[INFO] PIMPLEStep: 7837.736 [ms]
PIMPLE: converged in 9 iterations
[INFO] TimeStep: 66006.289 [ms]
ExecutionTime = 91.63 s  ClockTime = 89 s

--> FOAM Warning : 
    From virtual bool Foam::functionObjects::fieldSelection::checkSelection()
    in file functionObjects/fieldSelections/fieldSelection/fieldSelection.C at line 166
    Field nuTilda not found
--> FOAM Warning : 
    From virtual bool Foam::functionObjects::fieldSelection::checkSelection()
    in file functionObjects/fieldSelections/fieldSelection/fieldSelection.C at line 166
    Field gammaInt not found
--> FOAM Warning : 
    From virtual bool Foam::functionObjects::fieldSelection::checkSelection()
    in file functionObjects/fieldSelections/fieldSelection/fieldSelection.C at line 166
    Field ReThetat not found
--> FOAM Warning : 
    From virtual bool Foam::functionObjects::fieldSelection::checkSelection()
    in file functionObjects/fieldSelections/fieldSelection/fieldSelection.C at line 166
    Field epsilon not found
--> FOAM Warning : 
    From virtual bool Foam::functionObjects::solverFieldSelection::updateSelection()
    in file functionObjects/fieldSelections/solverFieldSelection/solverFieldSelection.C at line 85
    Valid solver fields are: 4(U k omega p)Courant Number mean: 0.004346669827978597 max: 11.32492302346262
Time = 1e-05

PIMPLE: iteration 1
velocityDampingConstraint velocityDamping damped 0 (0%) of cells, with max limit 300
[INFO] MatrixAssemblyU: 2916.739 [ms]
smoothSolver:  Solving for Ux, Initial residual = 0.1810296927829174, Final residual = 0.0006305562415353475, No Iterations 1
smoothSolver:  Solving for Uy, Initial residual = 0.2461568636218471, Final residual = 0.001230227481183725, No Iterations 1
smoothSolver:  Solving for Uz, Initial residual = 0.1158395465176394, Final residual = 0.0004273848183260703, No Iterations 1
[INFO] MomentumPredictor: 385.55 [ms]
[INFO] MatrixAssemblyPI: 316.847 [ms]
[INFO] MatrixAssemblyPII: 215.445 [ms]
[OGL LOG][Proc: 0]: global_index_init: 0.031 [ms]
[OGL LOG][Proc: 0]p_local_coeffs: call_update: 0 [ms]
[OGL LOG][Proc: 0]p_non_local_coeffs: call_update: 0 [ms]
[OGL LOG][Proc: 0]p: update_local_matrix_data: 40.696 [ms]
[OGL LOG][Proc: 0]p: update_non_local_matrix_data: 0.117 [ms]
[OGL LOG][Proc: 0]p_matrix: call_update: 8.929 [ms]
[OGL LOG][Proc: 0]p_rhs: call_update: 6.823 [ms]
[OGL LOG][Preconditioner.H:121] Generate preconditioner BJ MaxBlockSize 1
[OGL LOG][Proc: 0]p: init_precond: 0.9560000000000001 [ms]
[OGL LOG][StoppingCriterion.H:373] Creating stopping criterion with minIter 405 frequency 7
[OGL LOG][Proc: 0]p: generate_solver: 0.001 [ms]
[OGL LOG][Proc: 0]p: solve: 3048.651 [ms]
[OGL LOG][Proc: 0]p: copy_x_back: 4.325 [ms]
[OGL LOG][lduLduBase.H:336] 
Statistics:
	Time per iteration: 1969 [mu s]
	Time per residual norm calculation: 331.000000 [mu s]
	Time per iteration and DOF: 0.078047 [ns]
	Retrieve results bandwidth 1.741000 [GByte/s]
[OGL LOG][Proc: 0]p: solve_multi_gpu: 3070.717 [ms]
BJhipGKOCG:  Solving for p, Initial residual = 0.3053539797525964, Final residual = 0.002952115554994915, No Iterations 1548
[INFO] SolveP: 3120.891 [ms]
time step continuity errors : sum local = 1.89655074635514e-08, global = -1.54636672749359e-10, cumulative = -2.363336904517394e-11
[INFO] PIMPLEStep: 7081.911 [ms]
PIMPLE: iteration 2
velocityDampingConstraint velocityDamping damped 0 (0%) of cells, with max limit 300
[INFO] MatrixAssemblyU: 2905.857 [ms]
smoothSolver:  Solving for Ux, Initial residual = 0.02673211284449469, Final residual = 9.232429736568216e-05, No Iterations 1
smoothSolver:  Solving for Uy, Initial residual = 0.03930469034430827, Final residual = 0.0001948563290908839, No Iterations 1
smoothSolver:  Solving for Uz, Initial residual = 0.01605808894324282, Final residual = 5.832947797635992e-05, No Iterations 1
[INFO] MomentumPredictor: 385.519 [ms]
[INFO] MatrixAssemblyPI: 302.621 [ms]
[INFO] MatrixAssemblyPII: 216.683 [ms]
[OGL LOG][Proc: 0]: global_index_init: 0.048 [ms]
[OGL LOG][Proc: 0]p_local_coeffs: call_update: 0 [ms]
[OGL LOG][Proc: 0]p_non_local_coeffs: call_update: 0 [ms]
[OGL LOG][Proc: 0]p: update_local_matrix_data: 40.734 [ms]
[OGL LOG][Proc: 0]p: update_non_local_matrix_data: 0.132 [ms]
[OGL LOG][Proc: 0]p_matrix: call_update: 13.189 [ms]
[OGL LOG][Proc: 0]p_rhs: call_update: 5.164 [ms]
[OGL LOG][Preconditioner.H:121] Generate preconditioner BJ MaxBlockSize 1
[OGL LOG][Proc: 0]p: init_precond: 0.9380000000000001 [ms]
[OGL LOG][StoppingCriterion.H:373] Creating stopping criterion with minIter 928 frequency 11
[OGL LOG][Proc: 0]p: generate_solver: 0.001 [ms]
[OGL LOG][Proc: 0]p: solve: 2767.573 [ms]
[OGL LOG][Proc: 0]p: copy_x_back: 3.766 [ms]
[OGL LOG][lduLduBase.H:336] 
Statistics:
	Time per iteration: 1904 [mu s]
	Time per residual norm calculation: 330.000000 [mu s]
	Time per iteration and DOF: 0.075470 [ns]
	Retrieve results bandwidth 2.000000 [GByte/s]
[OGL LOG][Proc: 0]p: solve_multi_gpu: 2791.624 [ms]
BJhipGKOCG:  Solving for p, Initial residual = 0.2262603534892799, Final residual = 0.002192153152725905, No Iterations 1453
[INFO] SolveP: 2841.726 [ms]
time step continuity errors : sum local = 1.153389005543551e-08, global = 5.146845562583972e-11, cumulative = 2.783508658066579e-11
[INFO] PIMPLEStep: 6778.756 [ms]
PIMPLE: iteration 3
velocityDampingConstraint velocityDamping damped 0 (0%) of cells, with max limit 300
[INFO] MatrixAssemblyU: 2914.234 [ms]
smoothSolver:  Solving for Ux, Initial residual = 0.006805948933445632, Final residual = 2.639060593634747e-05, No Iterations 1
smoothSolver:  Solving for Uy, Initial residual = 0.01068147862055859, Final residual = 5.896025892851842e-05, No Iterations 1
smoothSolver:  Solving for Uz, Initial residual = 0.004125092262895231, Final residual = 1.713909545110262e-05, No Iterations 1
[INFO] MomentumPredictor: 385.157 [ms]
[INFO] MatrixAssemblyPI: 302.972 [ms]
[INFO] MatrixAssemblyPII: 217.603 [ms]
[OGL LOG][Proc: 0]: global_index_init: 0.033 [ms]
[OGL LOG][Proc: 0]p_local_coeffs: call_update: 0 [ms]
[OGL LOG][Proc: 0]p_non_local_coeffs: call_update: 0 [ms]
[OGL LOG][Proc: 0]p: update_local_matrix_data: 39.901 [ms]
[OGL LOG][Proc: 0]p: update_non_local_matrix_data: 0.123 [ms]
[OGL LOG][Proc: 0]p_matrix: call_update: 7.674 [ms]
[OGL LOG][Proc: 0]p_rhs: call_update: 6.890000000000001 [ms]
[OGL LOG][Preconditioner.H:121] Generate preconditioner BJ MaxBlockSize 1
[OGL LOG][Proc: 0]p: init_precond: 0.879 [ms]
[OGL LOG][StoppingCriterion.H:373] Creating stopping criterion with minIter 871 frequency 10
[OGL LOG][Proc: 0]p: generate_solver: 0.001 [ms]
[OGL LOG][Proc: 0]p: solve: 2647.274 [ms]
[OGL LOG][Proc: 0]p: copy_x_back: 4.344 [ms]
[OGL LOG][lduLduBase.H:336] 
Statistics:
	Time per iteration: 1916 [mu s]
	Time per residual norm calculation: 333.000000 [mu s]
	Time per iteration and DOF: 0.075946 [ns]
	Retrieve results bandwidth 1.734000 [GByte/s]
[OGL LOG][Proc: 0]p: solve_multi_gpu: 2668.12 [ms]
BJhipGKOCG:  Solving for p, Initial residual = 0.1553096004278645, Final residual = 0.001452397116885139, No Iterations 1381
[INFO] SolveP: 2717.311 [ms]
time step continuity errors : sum local = 7.180810941495361e-09, global = -1.054953756691028e-10, cumulative = -7.766028908843698e-11
[INFO] PIMPLEStep: 6662.473 [ms]
PIMPLE: iteration 4
velocityDampingConstraint velocityDamping damped 0 (0%) of cells, with max limit 300
[INFO] MatrixAssemblyU: 2908.989 [ms]
smoothSolver:  Solving for Ux, Initial residual = 0.01193178854619252, Final residual = 4.375010045694175e-05, No Iterations 1
smoothSolver:  Solving for Uy, Initial residual = 0.01870942125392614, Final residual = 9.823559502545939e-05, No Iterations 1
smoothSolver:  Solving for Uz, Initial residual = 0.007250841502348884, Final residual = 2.827543459581592e-05, No Iterations 1
[INFO] MomentumPredictor: 385.44 [ms]
[INFO] MatrixAssemblyPI: 302.971 [ms]
[INFO] MatrixAssemblyPII: 216.64 [ms]
[OGL LOG][Proc: 0]: global_index_init: 0.049 [ms]
[OGL LOG][Proc: 0]p_local_coeffs: call_update: 0 [ms]
[OGL LOG][Proc: 0]p_non_local_coeffs: call_update: 0 [ms]
[OGL LOG][Proc: 0]p: update_local_matrix_data: 41.678 [ms]
[OGL LOG][Proc: 0]p: update_non_local_matrix_data: 0.12 [ms]
[OGL LOG][Proc: 0]p_matrix: call_update: 14.541 [ms]
[OGL LOG][Proc: 0]p_rhs: call_update: 3.049 [ms]
[OGL LOG][Preconditioner.H:121] Generate preconditioner BJ MaxBlockSize 1
[OGL LOG][Proc: 0]p: init_precond: 0.869 [ms]
[OGL LOG][StoppingCriterion.H:373] Creating stopping criterion with minIter 828 frequency 10
[OGL LOG][Proc: 0]p: generate_solver: 0.001 [ms]
[OGL LOG][Proc: 0]p: solve: 2780.135 [ms]
[OGL LOG][Proc: 0]p: copy_x_back: 4.321 [ms]
[OGL LOG][lduLduBase.H:336] 
Statistics:
	Time per iteration: 1929 [mu s]
	Time per residual norm calculation: 338.000000 [mu s]
	Time per iteration and DOF: 0.076461 [ns]
	Retrieve results bandwidth 1.743000 [GByte/s]
[OGL LOG][Proc: 0]p: solve_multi_gpu: 2803.982 [ms]
BJhipGKOCG:  Solving for p, Initial residual = 0.111943748933437, Final residual = 0.001115081820206999, No Iterations 1441
[INFO] SolveP: 2855.21 [ms]
time step continuity errors : sum local = 5.181722270040403e-09, global = -3.68169396471178e-11, cumulative = -1.144772287355548e-10
[INFO] PIMPLEStep: 6794.065 [ms]
PIMPLE: iteration 5
velocityDampingConstraint velocityDamping damped 0 (0%) of cells, with max limit 300
[INFO] MatrixAssemblyU: 2911.405 [ms]
smoothSolver:  Solving for Ux, Initial residual = 0.008526227147064837, Final residual = 3.07703349336819e-05, No Iterations 1
smoothSolver:  Solving for Uy, Initial residual = 0.01346701205822401, Final residual = 6.966046209288831e-05, No Iterations 1
smoothSolver:  Solving for Uz, Initial residual = 0.005261276555951641, Final residual = 2.007246491460997e-05, No Iterations 1
[INFO] MomentumPredictor: 385.738 [ms]
[INFO] MatrixAssemblyPI: 302.886 [ms]
[INFO] MatrixAssemblyPII: 216.892 [ms]
[OGL LOG][Proc: 0]: global_index_init: 0.066 [ms]
[OGL LOG][Proc: 0]p_local_coeffs: call_update: 0 [ms]
[OGL LOG][Proc: 0]p_non_local_coeffs: call_update: 0 [ms]
[OGL LOG][Proc: 0]p: update_local_matrix_data: 40.11 [ms]
[OGL LOG][Proc: 0]p: update_non_local_matrix_data: 0.134 [ms]
[OGL LOG][Proc: 0]p_matrix: call_update: 10.897 [ms]
[OGL LOG][Proc: 0]p_rhs: call_update: 5.267 [ms]
[OGL LOG][Preconditioner.H:121] Generate preconditioner BJ MaxBlockSize 1
[OGL LOG][Proc: 0]p: init_precond: 3.888 [ms]
[OGL LOG][StoppingCriterion.H:373] Creating stopping criterion with minIter 864 frequency 10
[OGL LOG][Proc: 0]p: generate_solver: 0.001 [ms]
[OGL LOG][Proc: 0]p: solve: 2822.119 [ms]
[OGL LOG][Proc: 0]p: copy_x_back: 4.398 [ms]
[OGL LOG][lduLduBase.H:336] 
Statistics:
	Time per iteration: 1931 [mu s]
	Time per residual norm calculation: 336.000000 [mu s]
	Time per iteration and DOF: 0.076540 [ns]
	Retrieve results bandwidth 1.712000 [GByte/s]
[OGL LOG][Proc: 0]p: solve_multi_gpu: 2847.653 [ms]
BJhipGKOCG:  Solving for p, Initial residual = 0.05712008769842197, Final residual = 0.0004996415763767128, No Iterations 1461
[INFO] SolveP: 2897.361 [ms]
time step continuity errors : sum local = 2.280698227585763e-09, global = -7.979404919832655e-12, cumulative = -1.224566336553874e-10
[INFO] PIMPLEStep: 6839.494 [ms]
PIMPLE: iteration 6
velocityDampingConstraint velocityDamping damped 0 (0%) of cells, with max limit 300
[INFO] MatrixAssemblyU: 2907.425 [ms]
smoothSolver:  Solving for Ux, Initial residual = 0.004487313010634222, Final residual = 1.590924884624596e-05, No Iterations 1
smoothSolver:  Solving for Uy, Initial residual = 0.007117857743654701, Final residual = 3.603472900542902e-05, No Iterations 1
smoothSolver:  Solving for Uz, Initial residual = 0.00280067619251518, Final residual = 1.044302760707078e-05, No Iterations 1
[INFO] MomentumPredictor: 384.779 [ms]
[INFO] MatrixAssemblyPI: 303.168 [ms]
[INFO] MatrixAssemblyPII: 216.01 [ms]
[OGL LOG][Proc: 0]: global_index_init: 0.032 [ms]
[OGL LOG][Proc: 0]p_local_coeffs: call_update: 0 [ms]
[OGL LOG][Proc: 0]p_non_local_coeffs: call_update: 0 [ms]
[OGL LOG][Proc: 0]p: update_local_matrix_data: 40.598 [ms]
[OGL LOG][Proc: 0]p: update_non_local_matrix_data: 0.141 [ms]
[OGL LOG][Proc: 0]p_matrix: call_update: 9.718 [ms]
[OGL LOG][Proc: 0]p_rhs: call_update: 3.653 [ms]
[OGL LOG][Preconditioner.H:121] Generate preconditioner BJ MaxBlockSize 1
[OGL LOG][Proc: 0]p: init_precond: 0.981 [ms]
[OGL LOG][StoppingCriterion.H:373] Creating stopping criterion with minIter 876 frequency 10
[OGL LOG][Proc: 0]p: generate_solver: 0.001 [ms]
[OGL LOG][Proc: 0]p: solve: 2800.801 [ms]
[OGL LOG][Proc: 0]p: copy_x_back: 4.752 [ms]
[OGL LOG][lduLduBase.H:336] 
Statistics:
	Time per iteration: 1917 [mu s]
	Time per residual norm calculation: 335.000000 [mu s]
	Time per iteration and DOF: 0.075985 [ns]
	Retrieve results bandwidth 1.585000 [GByte/s]
[OGL LOG][Proc: 0]p: solve_multi_gpu: 2820.966 [ms]
BJhipGKOCG:  Solving for p, Initial residual = 0.02715392798472203, Final residual = 0.000268363008651363, No Iterations 1461
[INFO] SolveP: 2870.793 [ms]
time step continuity errors : sum local = 1.197493782257322e-09, global = -4.062807451558828e-12, cumulative = -1.265194411069463e-10
[INFO] PIMPLEStep: 6811.007 [ms]
PIMPLE: iteration 7
velocityDampingConstraint velocityDamping damped 0 (0%) of cells, with max limit 300
[INFO] MatrixAssemblyU: 2907.571 [ms]
smoothSolver:  Solving for Ux, Initial residual = 0.001927434877879702, Final residual = 6.699759388830182e-06, No Iterations 1
smoothSolver:  Solving for Uy, Initial residual = 0.003046082043414688, Final residual = 1.501790383430746e-05, No Iterations 1
smoothSolver:  Solving for Uz, Initial residual = 0.001210200571175301, Final residual = 4.39239193001561e-06, No Iterations 1
[INFO] MomentumPredictor: 385.405 [ms]
[INFO] MatrixAssemblyPI: 304.128 [ms]
[INFO] MatrixAssemblyPII: 215.871 [ms]
[OGL LOG][Proc: 0]: global_index_init: 0.067 [ms]
[OGL LOG][Proc: 0]p_local_coeffs: call_update: 0 [ms]
[OGL LOG][Proc: 0]p_non_local_coeffs: call_update: 0 [ms]
[OGL LOG][Proc: 0]p: update_local_matrix_data: 40.585 [ms]
[OGL LOG][Proc: 0]p: update_non_local_matrix_data: 0.136 [ms]
[OGL LOG][Proc: 0]p_matrix: call_update: 9.67 [ms]
[OGL LOG][Proc: 0]p_rhs: call_update: 4.744 [ms]
[OGL LOG][Preconditioner.H:121] Generate preconditioner BJ MaxBlockSize 1
[OGL LOG][Proc: 0]p: init_precond: 0.837 [ms]
[OGL LOG][StoppingCriterion.H:373] Creating stopping criterion with minIter 876 frequency 10
[OGL LOG][Proc: 0]p: generate_solver: 0.002 [ms]
[OGL LOG][Proc: 0]p: solve: 2796.86 [ms]
[OGL LOG][Proc: 0]p: copy_x_back: 4.314 [ms]
[OGL LOG][lduLduBase.H:336] 
Statistics:
	Time per iteration: 1927 [mu s]
	Time per residual norm calculation: 333.000000 [mu s]
	Time per iteration and DOF: 0.076382 [ns]
	Retrieve results bandwidth 1.746000 [GByte/s]
[OGL LOG][Proc: 0]p: solve_multi_gpu: 2817.672 [ms]
BJhipGKOCG:  Solving for p, Initial residual = 0.0137886264349727, Final residual = 0.0001268358174526618, No Iterations 1451
[INFO] SolveP: 2867.556 [ms]
time step continuity errors : sum local = 5.564108237164904e-10, global = -2.599418238771533e-12, cumulative = -1.291188593457178e-10
[INFO] PIMPLEStep: 6807.817 [ms]
PIMPLE: iteration 8
velocityDampingConstraint velocityDamping damped 0 (0%) of cells, with max limit 300
[INFO] MatrixAssemblyU: 2909.297 [ms]
smoothSolver:  Solving for Ux, Initial residual = 0.0006851096330156607, Final residual = 2.329178030648045e-06, No Iterations 1
smoothSolver:  Solving for Uy, Initial residual = 0.001079796652006026, Final residual = 5.084028066334076e-06, No Iterations 1
smoothSolver:  Solving for Uz, Initial residual = 0.0004321924100738284, Final residual = 1.513935340699365e-06, No Iterations 1
[INFO] MomentumPredictor: 384.422 [ms]
[INFO] MatrixAssemblyPI: 303.358 [ms]
[INFO] MatrixAssemblyPII: 217.741 [ms]
[OGL LOG][Proc: 0]: global_index_init: 0.035 [ms]
[OGL LOG][Proc: 0]p_local_coeffs: call_update: 0 [ms]
[OGL LOG][Proc: 0]p_non_local_coeffs: call_update: 0 [ms]
[OGL LOG][Proc: 0]p: update_local_matrix_data: 39.363 [ms]
[OGL LOG][Proc: 0]p: update_non_local_matrix_data: 0.13 [ms]
[OGL LOG][Proc: 0]p_matrix: call_update: 9.489000000000001 [ms]
[OGL LOG][Proc: 0]p_rhs: call_update: 4.94 [ms]
[OGL LOG][Preconditioner.H:121] Generate preconditioner BJ MaxBlockSize 1
[OGL LOG][Proc: 0]p: init_precond: 0.9440000000000001 [ms]
[OGL LOG][StoppingCriterion.H:373] Creating stopping criterion with minIter 870 frequency 10
[OGL LOG][Proc: 0]p: generate_solver: 0 [ms]
[OGL LOG][Proc: 0]p: solve: 2672.346 [ms]
[OGL LOG][Proc: 0]p: copy_x_back: 4.248 [ms]
[OGL LOG][lduLduBase.H:336] 
Statistics:
	Time per iteration: 1880 [mu s]
	Time per residual norm calculation: 340.000000 [mu s]
	Time per iteration and DOF: 0.074519 [ns]
	Retrieve results bandwidth 1.773000 [GByte/s]
[OGL LOG][Proc: 0]p: solve_multi_gpu: 2693.139 [ms]
BJhipGKOCG:  Solving for p, Initial residual = 0.007397437767998678, Final residual = 6.572834281394835e-05, No Iterations 1421
[INFO] SolveP: 2741.824 [ms]
time step continuity errors : sum local = 2.853044992465864e-10, global = -2.392693073925738e-12, cumulative = -1.315115524196435e-10
[INFO] PIMPLEStep: 6681.64 [ms]
PIMPLE: iteration 9
velocityDampingConstraint velocityDamping damped 0 (0%) of cells, with max limit 300
[INFO] MatrixAssemblyU: 2899.149 [ms]
smoothSolver:  Solving for Ux, Initial residual = 0.0001854877763540181, Final residual = 6.126679389591219e-07, No Iterations 1
smoothSolver:  Solving for Uy, Initial residual = 0.0002972707027098944, Final residual = 1.249059650250926e-06, No Iterations 1
smoothSolver:  Solving for Uz, Initial residual = 0.00012095198173222, Final residual = 3.930438107680056e-07, No Iterations 1
[INFO] MomentumPredictor: 385.755 [ms]
[INFO] MatrixAssemblyPI: 302.547 [ms]
[INFO] MatrixAssemblyPII: 216.809 [ms]
[OGL LOG][Proc: 0]: global_index_init: 0.048 [ms]
[OGL LOG][Proc: 0]p_local_coeffs: call_update: 0 [ms]
[OGL LOG][Proc: 0]p_non_local_coeffs: call_update: 0 [ms]
[OGL LOG][Proc: 0]p: update_local_matrix_data: 40.587 [ms]
[OGL LOG][Proc: 0]p: update_non_local_matrix_data: 0.138 [ms]
[OGL LOG][Proc: 0]p_matrix: call_update: 10.876 [ms]
[OGL LOG][Proc: 0]p_rhs: call_update: 5.182 [ms]
[OGL LOG][Preconditioner.H:121] Generate preconditioner BJ MaxBlockSize 1
[OGL LOG][Proc: 0]p: init_precond: 0.9420000000000001 [ms]
[OGL LOG][StoppingCriterion.H:373] Creating stopping criterion with minIter 852 frequency 10
[OGL LOG][Proc: 0]p: generate_solver: 0.001 [ms]
[OGL LOG][Proc: 0]p: solve: 2565.873 [ms]
[OGL LOG][Proc: 0]p: copy_x_back: 4.111 [ms]
[OGL LOG][lduLduBase.H:336] 
Statistics:
	Time per iteration: 1927 [mu s]
	Time per residual norm calculation: 339.000000 [mu s]
	Time per iteration and DOF: 0.076382 [ns]
	Retrieve results bandwidth 1.832000 [GByte/s]
[OGL LOG][Proc: 0]p: solve_multi_gpu: 2588.026 [ms]
BJhipGKOCG:  Solving for p, Initial residual = 0.004085144266096704, Final residual = 4.084086993613059e-05, No Iterations 1331
[INFO] SolveP: 2638.093 [ms]
time step continuity errors : sum local = 1.762793749540314e-10, global = -2.411630713612457e-12, cumulative = -1.33923183133256e-10
[INFO] PIMPLEStep: 6570.59 [ms]
PIMPLE: iteration 10
velocityDampingConstraint velocityDamping damped 0 (0%) of cells, with max limit 300
[INFO] MatrixAssemblyU: 2890.14 [ms]
smoothSolver:  Solving for Ux, Initial residual = 2.616577380828637e-05, Final residual = 1.058768129906069e-07, No Iterations 1
smoothSolver:  Solving for Uy, Initial residual = 6.180792402913074e-05, Final residual = 2.516406467003297e-07, No Iterations 1
smoothSolver:  Solving for Uz, Initial residual = 2.449611165800281e-05, Final residual = 9.08855039743324e-08, No Iterations 1
[INFO] MomentumPredictor: 384.075 [ms]
[INFO] MatrixAssemblyPI: 303.658 [ms]
[INFO] MatrixAssemblyPII: 215.037 [ms]
[OGL LOG][Proc: 0]: global_index_init: 0.035 [ms]
[OGL LOG][Proc: 0]p_local_coeffs: call_update: 0 [ms]
[OGL LOG][Proc: 0]p_non_local_coeffs: call_update: 0 [ms]
[OGL LOG][Proc: 0]p: update_local_matrix_data: 40.976 [ms]
[OGL LOG][Proc: 0]p: update_non_local_matrix_data: 0.137 [ms]
[OGL LOG][Proc: 0]p_matrix: call_update: 9.794 [ms]
[OGL LOG][Proc: 0]p_rhs: call_update: 4.683 [ms]
[OGL LOG][Preconditioner.H:121] Generate preconditioner BJ MaxBlockSize 1
[OGL LOG][Proc: 0]p: init_precond: 0.9580000000000001 [ms]
[OGL LOG][StoppingCriterion.H:373] Creating stopping criterion with minIter 798 frequency 10
[OGL LOG][Proc: 0]p: generate_solver: 0.001 [ms]
[OGL LOG][Proc: 0]p: solve: 1554.318 [ms]
[OGL LOG][Proc: 0]p: copy_x_back: 4.189 [ms]
[OGL LOG][lduLduBase.H:336] 
Statistics:
	Time per iteration: 1940 [mu s]
	Time per residual norm calculation: 365.000000 [mu s]
	Time per iteration and DOF: 0.076897 [ns]
	Retrieve results bandwidth 1.798000 [GByte/s]
[OGL LOG][Proc: 0]p: solve_multi_gpu: 1575.034 [ms]
BJhipGKOCG:  Solving for p, Initial residual = 0.002229298756196661, Final residual = 1.752616848261231e-05, No Iterations 801
[INFO] SolveP: 1625.523 [ms]
time step continuity errors : sum local = 7.544356887136474e-11, global = -5.779637009252621e-12, cumulative = -1.397028201425086e-10
[INFO] PIMPLEStep: 5544.856 [ms]
PIMPLE: iteration 11
velocityDampingConstraint velocityDamping damped 0 (0%) of cells, with max limit 300
[INFO] MatrixAssemblyU: 2892.095 [ms]
smoothSolver:  Solving for Ux, Initial residual = 1.97554733250334e-05, Final residual = 1.040111557204228e-07, No Iterations 1
smoothSolver:  Solving for Uy, Initial residual = 5.535543663684482e-05, Final residual = 2.773844913517668e-07, No Iterations 1
smoothSolver:  Solving for Uz, Initial residual = 1.866420329755402e-05, Final residual = 8.473002099813391e-08, No Iterations 1
[INFO] MomentumPredictor: 387.558 [ms]
[INFO] MatrixAssemblyPI: 303.133 [ms]
[INFO] MatrixAssemblyPII: 216.643 [ms]
[OGL LOG][Proc: 0]: global_index_init: 0.033 [ms]
[OGL LOG][Proc: 0]p_local_coeffs: call_update: 0 [ms]
[OGL LOG][Proc: 0]p_non_local_coeffs: call_update: 0 [ms]
[OGL LOG][Proc: 0]p: update_local_matrix_data: 40.527 [ms]
[OGL LOG][Proc: 0]p: update_non_local_matrix_data: 0.243 [ms]
[OGL LOG][Proc: 0]p_matrix: call_update: 8.247999999999999 [ms]
[OGL LOG][Proc: 0]p_rhs: call_update: 5.385 [ms]
[OGL LOG][Preconditioner.H:121] Generate preconditioner BJ MaxBlockSize 1
[OGL LOG][Proc: 0]p: init_precond: 0.887 [ms]
[OGL LOG][StoppingCriterion.H:373] Creating stopping criterion with minIter 480 frequency 8
[OGL LOG][Proc: 0]p: generate_solver: 0.001 [ms]
[OGL LOG][Proc: 0]p: solve: 1479.088 [ms]
[OGL LOG][Proc: 0]p: copy_x_back: 4.434 [ms]
[OGL LOG][lduLduBase.H:336] 
Statistics:
	Time per iteration: 1943 [mu s]
	Time per residual norm calculation: 333.000000 [mu s]
	Time per iteration and DOF: 0.077016 [ns]
	Retrieve results bandwidth 1.699000 [GByte/s]
[OGL LOG][Proc: 0]p: solve_multi_gpu: 1499.128 [ms]
BJhipGKOCG:  Solving for p, Initial residual = 0.001196729491703504, Final residual = 1.187951519920668e-05, No Iterations 761
[INFO] SolveP: 1549.161 [ms]
time step continuity errors : sum local = 5.109679676696194e-11, global = -3.10265260447098e-12, cumulative = -1.428054727469796e-10
DILUPBiCGStab:  Solving for omega, Initial residual = 5.750295168648193e-05, Final residual = 7.087054227885566e-10, No Iterations 1
DILUPBiCGStab:  Solving for k, Initial residual = 0.05129828795273277, Final residual = 3.421547899711453e-09, No Iterations 1
[INFO] PIMPLEStep: 7925.088 [ms]
PIMPLE: converged in 11 iterations
[INFO] TimeStep: 74556.06600000001 [ms]
ExecutionTime = 170.98 s  ClockTime = 166 s

Courant Number mean: 0.004346779379883789 max: 11.91479529020422
Time = 1.5e-05

PIMPLE: iteration 1
velocityDampingConstraint velocityDamping damped 0 (0%) of cells, with max limit 300
[INFO] MatrixAssemblyU: 2908.098 [ms]
smoothSolver:  Solving for Ux, Initial residual = 0.07389181813988902, Final residual = 0.0002578998024914238, No Iterations 1
smoothSolver:  Solving for Uy, Initial residual = 0.1247844135157634, Final residual = 0.000619454331617066, No Iterations 1
smoothSolver:  Solving for Uz, Initial residual = 0.04516035684282752, Final residual = 0.0001674713015890348, No Iterations 1
[INFO] MomentumPredictor: 385.34 [ms]
[INFO] MatrixAssemblyPI: 316.87 [ms]
[INFO] MatrixAssemblyPII: 216.022 [ms]
[OGL LOG][Proc: 0]: global_index_init: 0.033 [ms]
[OGL LOG][Proc: 0]p_local_coeffs: call_update: 0 [ms]
[OGL LOG][Proc: 0]p_non_local_coeffs: call_update: 0 [ms]
[OGL LOG][Proc: 0]p: update_local_matrix_data: 41.313 [ms]
[OGL LOG][Proc: 0]p: update_non_local_matrix_data: 0.249 [ms]
[OGL LOG][Proc: 0]p_matrix: call_update: 9.835000000000001 [ms]
[OGL LOG][Proc: 0]p_rhs: call_update: 4.103 [ms]
[OGL LOG][Preconditioner.H:121] Generate preconditioner BJ MaxBlockSize 1
[OGL LOG][Proc: 0]p: init_precond: 0.9380000000000001 [ms]
[OGL LOG][StoppingCriterion.H:373] Creating stopping criterion with minIter 456 frequency 7
[OGL LOG][Proc: 0]p: generate_solver: 0.001 [ms]
[OGL LOG][Proc: 0]p: solve: 2947.888 [ms]
[OGL LOG][Proc: 0]p: copy_x_back: 4.195 [ms]
[OGL LOG][lduLduBase.H:336] 
Statistics:
	Time per iteration: 1948 [mu s]
	Time per residual norm calculation: 329.000000 [mu s]
	Time per iteration and DOF: 0.077214 [ns]
	Retrieve results bandwidth 1.795000 [GByte/s]
[OGL LOG][Proc: 0]p: solve_multi_gpu: 2968.019 [ms]
BJhipGKOCG:  Solving for p, Initial residual = 0.2540777913083731, Final residual = 0.002277894286153621, No Iterations 1513
[INFO] SolveP: 3018.924 [ms]
time step continuity errors : sum local = 8.948792482520884e-09, global = 4.116715267641903e-11, cumulative = -1.016383200705605e-10
[INFO] PIMPLEStep: 6971.989 [ms]
PIMPLE: iteration 2
velocityDampingConstraint velocityDamping damped 0 (0%) of cells, with max limit 300
[INFO] MatrixAssemblyU: 2908.097 [ms]
smoothSolver:  Solving for Ux, Initial residual = 0.01388916529296918, Final residual = 4.790010944884171e-05, No Iterations 1
smoothSolver:  Solving for Uy, Initial residual = 0.02402948688533261, Final residual = 0.0001179351910022983, No Iterations 1
smoothSolver:  Solving for Uz, Initial residual = 0.00929848777179727, Final residual = 3.401882310318233e-05, No Iterations 1
[INFO] MomentumPredictor: 392.259 [ms]
[INFO] MatrixAssemblyPI: 302.944 [ms]
[INFO] MatrixAssemblyPII: 215.318 [ms]
[OGL LOG][Proc: 0]: global_index_init: 0.089 [ms]
[OGL LOG][Proc: 0]p_local_coeffs: call_update: 0 [ms]
[OGL LOG][Proc: 0]p_non_local_coeffs: call_update: 0 [ms]
[OGL LOG][Proc: 0]p: update_local_matrix_data: 40.79 [ms]
[OGL LOG][Proc: 0]p: update_non_local_matrix_data: 0.27 [ms]
[OGL LOG][Proc: 0]p_matrix: call_update: 11.126 [ms]
[OGL LOG][Proc: 0]p_rhs: call_update: 7.021 [ms]
[OGL LOG][Preconditioner.H:121] Generate preconditioner BJ MaxBlockSize 1
[OGL LOG][Proc: 0]p: init_precond: 0.9530000000000001 [ms]
[OGL LOG][StoppingCriterion.H:373] Creating stopping criterion with minIter 907 frequency 11
[OGL LOG][Proc: 0]p: generate_solver: 0.001 [ms]
[OGL LOG][Proc: 0]p: solve: 2771.724 [ms]
[OGL LOG][Proc: 0]p: copy_x_back: 4.27 [ms]
[OGL LOG][lduLduBase.H:336] 
Statistics:
	Time per iteration: 1922 [mu s]
	Time per residual norm calculation: 338.000000 [mu s]
	Time per iteration and DOF: 0.076184 [ns]
	Retrieve results bandwidth 1.764000 [GByte/s]
[OGL LOG][Proc: 0]p: solve_multi_gpu: 2796.185 [ms]
BJhipGKOCG:  Solving for p, Initial residual = 0.1847533832300898, Final residual = 0.001775303750724095, No Iterations 1442
[INFO] SolveP: 2846.737 [ms]
time step continuity errors : sum local = 4.60117020480029e-09, global = -2.806056863104495e-11, cumulative = -1.296988887016055e-10
[INFO] PIMPLEStep: 6791.722 [ms]
PIMPLE: iteration 3
velocityDampingConstraint velocityDamping damped 0 (0%) of cells, with max limit 300
[INFO] MatrixAssemblyU: 2899.541 [ms]
smoothSolver:  Solving for Ux, Initial residual = 0.003085147381578817, Final residual = 1.19064111631416e-05, No Iterations 1
smoothSolver:  Solving for Uy, Initial residual = 0.005291300258495604, Final residual = 2.894018386407216e-05, No Iterations 1
smoothSolver:  Solving for Uz, Initial residual = 0.002049932859645328, Final residual = 8.363959015361919e-06, No Iterations 1
[INFO] MomentumPredictor: 388.683 [ms]
[INFO] MatrixAssemblyPI: 302.664 [ms]
[INFO] MatrixAssemblyPII: 214.438 [ms]
[OGL LOG][Proc: 0]: global_index_init: 0.034 [ms]
[OGL LOG][Proc: 0]p_local_coeffs: call_update: 0 [ms]
[OGL LOG][Proc: 0]p_non_local_coeffs: call_update: 0 [ms]
[OGL LOG][Proc: 0]p: update_local_matrix_data: 41.543 [ms]
[OGL LOG][Proc: 0]p: update_non_local_matrix_data: 0.116 [ms]
[OGL LOG][Proc: 0]p_matrix: call_update: 15.259 [ms]
[OGL LOG][Proc: 0]p_rhs: call_update: 1.79 [ms]
[OGL LOG][Preconditioner.H:121] Generate preconditioner BJ MaxBlockSize 1
[OGL LOG][Proc: 0]p: init_precond: 1.057 [ms]
[OGL LOG][StoppingCriterion.H:373] Creating stopping criterion with minIter 865 frequency 10
[OGL LOG][Proc: 0]p: generate_solver: 0.001 [ms]
[OGL LOG][Proc: 0]p: solve: 2663.436 [ms]
[OGL LOG][Proc: 0]p: copy_x_back: 4.213 [ms]
[OGL LOG][lduLduBase.H:336] 
Statistics:
	Time per iteration: 1928 [mu s]
	Time per residual norm calculation: 332.000000 [mu s]
	Time per iteration and DOF: 0.076421 [ns]
	Retrieve results bandwidth 1.788000 [GByte/s]
[OGL LOG][Proc: 0]p: solve_multi_gpu: 2686.8 [ms]
BJhipGKOCG:  Solving for p, Initial residual = 0.1268061000655829, Final residual = 0.001131808173038446, No Iterations 1381
[INFO] SolveP: 2737.99 [ms]
time step continuity errors : sum local = 2.394490928358254e-09, global = 3.640894881007459e-11, cumulative = -9.328993989153091e-11
[INFO] PIMPLEStep: 6671.036 [ms]
PIMPLE: iteration 4
velocityDampingConstraint velocityDamping damped 0 (0%) of cells, with max limit 300
[INFO] MatrixAssemblyU: 2901.975 [ms]
smoothSolver:  Solving for Ux, Initial residual = 0.004618009571417174, Final residual = 1.689377548347285e-05, No Iterations 1
smoothSolver:  Solving for Uy, Initial residual = 0.007781927437144818, Final residual = 4.035947453827473e-05, No Iterations 1
smoothSolver:  Solving for Uz, Initial residual = 0.003036337503304855, Final residual = 1.174323804751848e-05, No Iterations 1
[INFO] MomentumPredictor: 386.08 [ms]
[INFO] MatrixAssemblyPI: 302.712 [ms]
[INFO] MatrixAssemblyPII: 216.709 [ms]
[OGL LOG][Proc: 0]: global_index_init: 0.032 [ms]
[OGL LOG][Proc: 0]p_local_coeffs: call_update: 0 [ms]
[OGL LOG][Proc: 0]p_non_local_coeffs: call_update: 0 [ms]
[OGL LOG][Proc: 0]p: update_local_matrix_data: 39.734 [ms]
[OGL LOG][Proc: 0]p: update_non_local_matrix_data: 0.15 [ms]
[OGL LOG][Proc: 0]p_matrix: call_update: 9.364000000000001 [ms]
[OGL LOG][Proc: 0]p_rhs: call_update: 4.505 [ms]
[OGL LOG][Preconditioner.H:121] Generate preconditioner BJ MaxBlockSize 1
[OGL LOG][Proc: 0]p: init_precond: 0.965 [ms]
[OGL LOG][StoppingCriterion.H:373] Creating stopping criterion with minIter 828 frequency 10
[OGL LOG][Proc: 0]p: generate_solver: 0.001 [ms]
[OGL LOG][Proc: 0]p: solve: 2783.326 [ms]
[OGL LOG][Proc: 0]p: copy_x_back: 4.035 [ms]
[OGL LOG][lduLduBase.H:336] 
Statistics:
	Time per iteration: 1918 [mu s]
	Time per residual norm calculation: 331.000000 [mu s]
	Time per iteration and DOF: 0.076025 [ns]
	Retrieve results bandwidth 1.867000 [GByte/s]
[OGL LOG][Proc: 0]p: solve_multi_gpu: 2803.253 [ms]
BJhipGKOCG:  Solving for p, Initial residual = 0.09243664253509702, Final residual = 0.0007944062680416944, No Iterations 1451
[INFO] SolveP: 2852.474 [ms]
time step continuity errors : sum local = 1.46791594751134e-09, global = 7.935839013249268e-12, cumulative = -8.535410087828164e-11
[INFO] PIMPLEStep: 6785.274 [ms]
PIMPLE: iteration 5
velocityDampingConstraint velocityDamping damped 0 (0%) of cells, with max limit 300
[INFO] MatrixAssemblyU: 2897.633 [ms]
smoothSolver:  Solving for Ux, Initial residual = 0.002999955557895916, Final residual = 1.081191042861011e-05, No Iterations 1
smoothSolver:  Solving for Uy, Initial residual = 0.004986532649132129, Final residual = 2.549797543491832e-05, No Iterations 1
smoothSolver:  Solving for Uz, Initial residual = 0.001949653045691729, Final residual = 7.413095539243537e-06, No Iterations 1
[INFO] MomentumPredictor: 386.767 [ms]
[INFO] MatrixAssemblyPI: 302.629 [ms]
[INFO] MatrixAssemblyPII: 213.178 [ms]
[OGL LOG][Proc: 0]: global_index_init: 0.11 [ms]
[OGL LOG][Proc: 0]p_local_coeffs: call_update: 0 [ms]
[OGL LOG][Proc: 0]p_non_local_coeffs: call_update: 0 [ms]
[OGL LOG][Proc: 0]p: update_local_matrix_data: 39.949 [ms]
[OGL LOG][Proc: 0]p: update_non_local_matrix_data: 0.228 [ms]
[OGL LOG][Proc: 0]p_matrix: call_update: 14.058 [ms]
[OGL LOG][Proc: 0]p_rhs: call_update: 0.918 [ms]
[OGL LOG][Preconditioner.H:121] Generate preconditioner BJ MaxBlockSize 1
[OGL LOG][Proc: 0]p: init_precond: 0.914 [ms]
[OGL LOG][StoppingCriterion.H:373] Creating stopping criterion with minIter 870 frequency 10
[OGL LOG][Proc: 0]p: generate_solver: 0.001 [ms]
[OGL LOG][Proc: 0]p: solve: 2775.125 [ms]
[OGL LOG][Proc: 0]p: copy_x_back: 3.958 [ms]
[OGL LOG][lduLduBase.H:336] 
Statistics:
	Time per iteration: 1899 [mu s]
	Time per residual norm calculation: 333.000000 [mu s]
	Time per iteration and DOF: 0.075272 [ns]
	Retrieve results bandwidth 1.903000 [GByte/s]
[OGL LOG][Proc: 0]p: solve_multi_gpu: 2796.029 [ms]
BJhipGKOCG:  Solving for p, Initial residual = 0.05097555554827856, Final residual = 0.0004416277208239458, No Iterations 1461
[INFO] SolveP: 2845.549 [ms]
time step continuity errors : sum local = 7.632089024140423e-10, global = 2.689449835972283e-12, cumulative = -8.266465104230936e-11
[INFO] PIMPLEStep: 6776.337 [ms]
PIMPLE: iteration 6
velocityDampingConstraint velocityDamping damped 0 (0%) of cells, with max limit 300
[INFO] MatrixAssemblyU: 2899.282 [ms]
smoothSolver:  Solving for Ux, Initial residual = 0.001509713814817172, Final residual = 5.338855529115605e-06, No Iterations 1
smoothSolver:  Solving for Uy, Initial residual = 0.002490566999330833, Final residual = 1.247782327962882e-05, No Iterations 1
smoothSolver:  Solving for Uz, Initial residual = 0.0009732326730643651, Final residual = 3.62630162721837e-06, No Iterations 1
[INFO] MomentumPredictor: 385.606 [ms]
[INFO] MatrixAssemblyPI: 302.321 [ms]
[INFO] MatrixAssemblyPII: 213.669 [ms]
[OGL LOG][Proc: 0]: global_index_init: 0.06 [ms]
[OGL LOG][Proc: 0]p_local_coeffs: call_update: 0 [ms]
[OGL LOG][Proc: 0]p_non_local_coeffs: call_update: 0 [ms]
[OGL LOG][Proc: 0]p: update_local_matrix_data: 39.643 [ms]
[OGL LOG][Proc: 0]p: update_non_local_matrix_data: 0.165 [ms]
[OGL LOG][Proc: 0]p_matrix: call_update: 14.141 [ms]
[OGL LOG][Proc: 0]p_rhs: call_update: 4.096 [ms]
[OGL LOG][Preconditioner.H:121] Generate preconditioner BJ MaxBlockSize 1
[OGL LOG][Proc: 0]p: init_precond: 0.848 [ms]
[OGL LOG][StoppingCriterion.H:373] Creating stopping criterion with minIter 876 frequency 10
[OGL LOG][Proc: 0]p: generate_solver: 0.002 [ms]
[OGL LOG][Proc: 0]p: solve: 2783.439 [ms]
[OGL LOG][Proc: 0]p: copy_x_back: 4.694 [ms]
[OGL LOG][lduLduBase.H:336] 
Statistics:
	Time per iteration: 1905 [mu s]
	Time per residual norm calculation: 336.000000 [mu s]
	Time per iteration and DOF: 0.075510 [ns]
	Retrieve results bandwidth 1.604000 [GByte/s]
[OGL LOG][Proc: 0]p: solve_multi_gpu: 2808.364 [ms]
BJhipGKOCG:  Solving for p, Initial residual = 0.02494144102902384, Final residual = 0.0002372156153903591, No Iterations 1461
[INFO] SolveP: 2857.249 [ms]
time step continuity errors : sum local = 3.994881566551205e-10, global = 1.329944271685417e-12, cumulative = -8.133470677062394e-11
[INFO] PIMPLEStep: 6785.226 [ms]
PIMPLE: iteration 7
velocityDampingConstraint velocityDamping damped 0 (0%) of cells, with max limit 300
[INFO] MatrixAssemblyU: 2894.593 [ms]
smoothSolver:  Solving for Ux, Initial residual = 0.0006375148137660522, Final residual = 2.203851339183261e-06, No Iterations 1
smoothSolver:  Solving for Uy, Initial residual = 0.001043594881019149, Final residual = 5.072585859281985e-06, No Iterations 1
smoothSolver:  Solving for Uz, Initial residual = 0.0004096146355186058, Final residual = 1.482007041824321e-06, No Iterations 1
[INFO] MomentumPredictor: 385.794 [ms]
[INFO] MatrixAssemblyPI: 302.289 [ms]
[INFO] MatrixAssemblyPII: 213.99 [ms]
[OGL LOG][Proc: 0]: global_index_init: 0.061 [ms]
[OGL LOG][Proc: 0]p_local_coeffs: call_update: 0 [ms]
[OGL LOG][Proc: 0]p_non_local_coeffs: call_update: 0 [ms]
[OGL LOG][Proc: 0]p: update_local_matrix_data: 41.398 [ms]
[OGL LOG][Proc: 0]p: update_non_local_matrix_data: 0.183 [ms]
[OGL LOG][Proc: 0]p_matrix: call_update: 8.747999999999999 [ms]
[OGL LOG][Proc: 0]p_rhs: call_update: 4.475000000000001 [ms]
[OGL LOG][Preconditioner.H:121] Generate preconditioner BJ MaxBlockSize 1
[OGL LOG][Proc: 0]p: init_precond: 0.908 [ms]
[OGL LOG][StoppingCriterion.H:373] Creating stopping criterion with minIter 876 frequency 10
[OGL LOG][Proc: 0]p: generate_solver: 0.001 [ms]
[OGL LOG][Proc: 0]p: solve: 2804.697 [ms]
[OGL LOG][Proc: 0]p: copy_x_back: 4.253 [ms]
[OGL LOG][lduLduBase.H:336] 
Statistics:
	Time per iteration: 1932 [mu s]
	Time per residual norm calculation: 344.000000 [mu s]
	Time per iteration and DOF: 0.076580 [ns]
	Retrieve results bandwidth 1.771000 [GByte/s]
[OGL LOG][Proc: 0]p: solve_multi_gpu: 2824.123 [ms]
BJhipGKOCG:  Solving for p, Initial residual = 0.01225647371734415, Final residual = 0.0001114610729522476, No Iterations 1451
[INFO] SolveP: 2874.917 [ms]
time step continuity errors : sum local = 1.85951528451929e-10, global = 8.682302610561104e-13, cumulative = -8.046647650956783e-11
[INFO] PIMPLEStep: 6799.217 [ms]
PIMPLE: iteration 8
velocityDampingConstraint velocityDamping damped 0 (0%) of cells, with max limit 300
[INFO] MatrixAssemblyU: 2892.758 [ms]
smoothSolver:  Solving for Ux, Initial residual = 0.0002251837651093403, Final residual = 7.602629740397779e-07, No Iterations 1
smoothSolver:  Solving for Uy, Initial residual = 0.0003670379125863987, Final residual = 1.685904705353808e-06, No Iterations 1
smoothSolver:  Solving for Uz, Initial residual = 0.0001449001490954375, Final residual = 5.010269853839119e-07, No Iterations 1
[INFO] MomentumPredictor: 385.376 [ms]
[INFO] MatrixAssemblyPI: 302.815 [ms]
[INFO] MatrixAssemblyPII: 214.647 [ms]
[OGL LOG][Proc: 0]: global_index_init: 0.053 [ms]
[OGL LOG][Proc: 0]p_local_coeffs: call_update: 0 [ms]
[OGL LOG][Proc: 0]p_non_local_coeffs: call_update: 0 [ms]
[OGL LOG][Proc: 0]p: update_local_matrix_data: 39.263 [ms]
[OGL LOG][Proc: 0]p: update_non_local_matrix_data: 0.138 [ms]
[OGL LOG][Proc: 0]p_matrix: call_update: 8.809000000000001 [ms]
[OGL LOG][Proc: 0]p_rhs: call_update: 7.4 [ms]
[OGL LOG][Preconditioner.H:121] Generate preconditioner BJ MaxBlockSize 1
[OGL LOG][Proc: 0]p: init_precond: 1.067 [ms]
[OGL LOG][StoppingCriterion.H:373] Creating stopping criterion with minIter 870 frequency 10
[OGL LOG][Proc: 0]p: generate_solver: 0 [ms]
[OGL LOG][Proc: 0]p: solve: 2776.066 [ms]
[OGL LOG][Proc: 0]p: copy_x_back: 3.933 [ms]
[OGL LOG][lduLduBase.H:336] 
Statistics:
	Time per iteration: 1953 [mu s]
	Time per residual norm calculation: 330.000000 [mu s]
	Time per iteration and DOF: 0.077412 [ns]
	Retrieve results bandwidth 1.915000 [GByte/s]
[OGL LOG][Proc: 0]p: solve_multi_gpu: 2798.319 [ms]
BJhipGKOCG:  Solving for p, Initial residual = 0.00631094068163391, Final residual = 5.747261417432448e-05, No Iterations 1421
[INFO] SolveP: 2847.018 [ms]
time step continuity errors : sum local = 9.547973994756516e-11, global = 7.965344093274799e-13, cumulative = -7.966994210024034e-11
[INFO] PIMPLEStep: 6769.313 [ms]
PIMPLE: iteration 9
velocityDampingConstraint velocityDamping damped 0 (0%) of cells, with max limit 300
[INFO] MatrixAssemblyU: 2894.195 [ms]
smoothSolver:  Solving for Ux, Initial residual = 6.049812524679162e-05, Final residual = 1.982233295011981e-07, No Iterations 1
smoothSolver:  Solving for Uy, Initial residual = 9.98361994714638e-05, Final residual = 4.041972464234224e-07, No Iterations 1
smoothSolver:  Solving for Uz, Initial residual = 4.017201598261333e-05, Final residual = 1.277101814897034e-07, No Iterations 1
[INFO] MomentumPredictor: 385.678 [ms]
[INFO] MatrixAssemblyPI: 302.727 [ms]
[INFO] MatrixAssemblyPII: 213.705 [ms]
[OGL LOG][Proc: 0]: global_index_init: 0.146 [ms]
[OGL LOG][Proc: 0]p_local_coeffs: call_update: 0 [ms]
[OGL LOG][Proc: 0]p_non_local_coeffs: call_update: 0 [ms]
[OGL LOG][Proc: 0]p: update_local_matrix_data: 40.422 [ms]
[OGL LOG][Proc: 0]p: update_non_local_matrix_data: 0.14 [ms]
[OGL LOG][Proc: 0]p_matrix: call_update: 10.197 [ms]
[OGL LOG][Proc: 0]p_rhs: call_update: 4.176 [ms]
[OGL LOG][Preconditioner.H:121] Generate preconditioner BJ MaxBlockSize 1
[OGL LOG][Proc: 0]p: init_precond: 0.869 [ms]
[OGL LOG][StoppingCriterion.H:373] Creating stopping criterion with minIter 852 frequency 10
[OGL LOG][Proc: 0]p: generate_solver: 0.001 [ms]
[OGL LOG][Proc: 0]p: solve: 2572.932 [ms]
[OGL LOG][Proc: 0]p: copy_x_back: 4.227 [ms]
[OGL LOG][lduLduBase.H:336] 
Statistics:
	Time per iteration: 1918 [mu s]
	Time per residual norm calculation: 332.000000 [mu s]
	Time per iteration and DOF: 0.076025 [ns]
	Retrieve results bandwidth 1.782000 [GByte/s]
[OGL LOG][Proc: 0]p: solve_multi_gpu: 2593.476 [ms]
BJhipGKOCG:  Solving for p, Initial residual = 0.003444897093839897, Final residual = 3.400234687539455e-05, No Iterations 1341
[INFO] SolveP: 2643.443 [ms]
time step continuity errors : sum local = 5.641621314959484e-11, global = 7.27983674754372e-13, cumulative = -7.894195842548597e-11
[INFO] PIMPLEStep: 6568.061 [ms]
PIMPLE: iteration 10
velocityDampingConstraint velocityDamping damped 0 (0%) of cells, with max limit 300
[INFO] MatrixAssemblyU: 2904.427 [ms]
smoothSolver:  Solving for Ux, Initial residual = 8.206366205937049e-06, Final residual = 3.440399363322277e-08, No Iterations 1
smoothSolver:  Solving for Uy, Initial residual = 1.947163956315578e-05, Final residual = 7.804603769863003e-08, No Iterations 1
smoothSolver:  Solving for Uz, Initial residual = 7.767940528660938e-06, Final residual = 2.926046334867154e-08, No Iterations 1
[INFO] MomentumPredictor: 384.961 [ms]
[INFO] MatrixAssemblyPI: 303.456 [ms]
[INFO] MatrixAssemblyPII: 214.682 [ms]
[OGL LOG][Proc: 0]: global_index_init: 0.291 [ms]
[OGL LOG][Proc: 0]p_local_coeffs: call_update: 0 [ms]
[OGL LOG][Proc: 0]p_non_local_coeffs: call_update: 0 [ms]
[OGL LOG][Proc: 0]p: update_local_matrix_data: 40.438 [ms]
[OGL LOG][Proc: 0]p: update_non_local_matrix_data: 0.131 [ms]
[OGL LOG][Proc: 0]p_matrix: call_update: 14.46 [ms]
[OGL LOG][Proc: 0]p_rhs: call_update: 3.78 [ms]
[OGL LOG][Preconditioner.H:121] Generate preconditioner BJ MaxBlockSize 1
[OGL LOG][Proc: 0]p: init_precond: 0.9510000000000001 [ms]
[OGL LOG][StoppingCriterion.H:373] Creating stopping criterion with minIter 804 frequency 10
[OGL LOG][Proc: 0]p: generate_solver: 0.001 [ms]
[OGL LOG][Proc: 0]p: solve: 1563.889 [ms]
[OGL LOG][Proc: 0]p: copy_x_back: 4.254 [ms]
[OGL LOG][lduLduBase.H:336] 
Statistics:
	Time per iteration: 1928 [mu s]
	Time per residual norm calculation: 440.000000 [mu s]
	Time per iteration and DOF: 0.076421 [ns]
	Retrieve results bandwidth 1.770000 [GByte/s]
[OGL LOG][Proc: 0]p: solve_multi_gpu: 1588.741 [ms]
BJhipGKOCG:  Solving for p, Initial residual = 0.001855414656566012, Final residual = 1.571421931682474e-05, No Iterations 811
[INFO] SolveP: 1638.892 [ms]
time step continuity errors : sum local = 2.606635096653596e-11, global = 2.004803026022286e-12, cumulative = -7.693715539946369e-11
DILUPBiCGStab:  Solving for omega, Initial residual = 5.555511681990291e-05, Final residual = 5.474647855716246e-10, No Iterations 1
DILUPBiCGStab:  Solving for k, Initial residual = 0.02595917206991984, Final residual = 1.889230993317687e-09, No Iterations 1
[INFO] PIMPLEStep: 8019.13 [ms]
PIMPLE: converged in 10 iterations
[INFO] TimeStep: 68991.414 [ms]
ExecutionTime = 244.58 s  ClockTime = 236 s

Courant Number mean: 0.004346731471794951 max: 12.2130872726309
Time = 2e-05

PIMPLE: iteration 1
velocityDampingConstraint velocityDamping damped 0 (0%) of cells, with max limit 300
[INFO] MatrixAssemblyU: 2919.176 [ms]
smoothSolver:  Solving for Ux, Initial residual = 0.000315161142611379, Final residual = 2.102669003460999e-06, No Iterations 1
smoothSolver:  Solving for Uy, Initial residual = 0.001091663478040962, Final residual = 5.758741230068366e-06, No Iterations 1
smoothSolver:  Solving for Uz, Initial residual = 0.0004169341218729151, Final residual = 2.252490521586989e-06, No Iterations 1
[INFO] MomentumPredictor: 388.219 [ms]
[INFO] MatrixAssemblyPI: 316.389 [ms]
[INFO] MatrixAssemblyPII: 216.148 [ms]
[OGL LOG][Proc: 0]: global_index_init: 0.171 [ms]
[OGL LOG][Proc: 0]p_local_coeffs: call_update: 0 [ms]
[OGL LOG][Proc: 0]p_non_local_coeffs: call_update: 0 [ms]
[OGL LOG][Proc: 0]p: update_local_matrix_data: 40.779 [ms]
[OGL LOG][Proc: 0]p: update_non_local_matrix_data: 0.165 [ms]
[OGL LOG][Proc: 0]p_matrix: call_update: 11.528 [ms]
[OGL LOG][Proc: 0]p_rhs: call_update: 5.267 [ms]
[OGL LOG][Preconditioner.H:121] Generate preconditioner BJ MaxBlockSize 1
[OGL LOG][Proc: 0]p: init_precond: 0.9570000000000001 [ms]
[OGL LOG][StoppingCriterion.H:373] Creating stopping criterion with minIter 486 frequency 9
[OGL LOG][Proc: 0]p: generate_solver: 0.001 [ms]
[OGL LOG][Proc: 0]p: solve: 1008.125 [ms]
[OGL LOG][Proc: 0]p: copy_x_back: 4.715 [ms]
[OGL LOG][lduLduBase.H:336] 
Statistics:
	Time per iteration: 2070 [mu s]
	Time per residual norm calculation: 374.000000 [mu s]
	Time per iteration and DOF: 0.082050 [ns]
	Retrieve results bandwidth 1.597000 [GByte/s]
[OGL LOG][Proc: 0]p: solve_multi_gpu: 1031.817 [ms]
BJhipGKOCG:  Solving for p, Initial residual = 0.1447192522079885, Final residual = 6.833634619010506e-05, No Iterations 487
[INFO] SolveP: 1082.741 [ms]
time step continuity errors : sum local = 1.080648981088337e-10, global = 6.493607896544149e-12, cumulative = -7.044354750291955e-11
[INFO] PIMPLEStep: 5047.878 [ms]
PIMPLE: iteration 2
velocityDampingConstraint velocityDamping damped 0 (0%) of cells, with max limit 300
[INFO] MatrixAssemblyU: 2906.283 [ms]
smoothSolver:  Solving for Ux, Initial residual = 8.93203448965075e-05, Final residual = 6.213508457612153e-07, No Iterations 1
smoothSolver:  Solving for Uy, Initial residual = 0.0003115546655635426, Final residual = 1.706568351108804e-06, No Iterations 1
smoothSolver:  Solving for Uz, Initial residual = 0.0001194390941722585, Final residual = 6.619348050566132e-07, No Iterations 1
[INFO] MomentumPredictor: 385.403 [ms]
[INFO] MatrixAssemblyPI: 302.955 [ms]
[INFO] MatrixAssemblyPII: 216.925 [ms]
[OGL LOG][Proc: 0]: global_index_init: 1.579 [ms]
[OGL LOG][Proc: 0]p_local_coeffs: call_update: 0 [ms]
[OGL LOG][Proc: 0]p_non_local_coeffs: call_update: 0 [ms]
[OGL LOG][Proc: 0]p: update_local_matrix_data: 41.916 [ms]
[OGL LOG][Proc: 0]p: update_non_local_matrix_data: 0.131 [ms]
[OGL LOG][Proc: 0]p_matrix: call_update: 9.137 [ms]
[OGL LOG][Proc: 0]p_rhs: call_update: 4.223 [ms]
[OGL LOG][Preconditioner.H:121] Generate preconditioner BJ MaxBlockSize 1
[OGL LOG][Proc: 0]p: init_precond: 0.905 [ms]
[OGL LOG][StoppingCriterion.H:373] Creating stopping criterion with minIter 292 frequency 6
[OGL LOG][Proc: 0]p: generate_solver: 0.001 [ms]
[OGL LOG][Proc: 0]p: solve: 600.4300000000001 [ms]
[OGL LOG][Proc: 0]p: copy_x_back: 4.413 [ms]
[OGL LOG][lduLduBase.H:336] 
Statistics:
	Time per iteration: 2035 [mu s]
	Time per residual norm calculation: 367.000000 [mu s]
	Time per iteration and DOF: 0.080663 [ns]
	Retrieve results bandwidth 1.707000 [GByte/s]
[OGL LOG][Proc: 0]p: solve_multi_gpu: 620.126 [ms]
BJhipGKOCG:  Solving for p, Initial residual = 0.06305421321045696, Final residual = 0.0001640037322139384, No Iterations 295
[INFO] SolveP: 672.822 [ms]
time step continuity errors : sum local = 2.40190374629415e-10, global = 7.352706505093118e-12, cumulative = -6.309084099782643e-11
[INFO] PIMPLEStep: 4608.594 [ms]
PIMPLE: iteration 3
velocityDampingConstraint velocityDamping damped 0 (0%) of cells, with max limit 300
[INFO] MatrixAssemblyU: 2897.104 [ms]
smoothSolver:  Solving for Ux, Initial residual = 1.928827175213931e-05, Final residual = 1.5487811317571e-07, No Iterations 1
smoothSolver:  Solving for Uy, Initial residual = 7.172108695306144e-05, Final residual = 4.320877405524338e-07, No Iterations 1
smoothSolver:  Solving for Uz, Initial residual = 2.743453991701573e-05, Final residual = 1.615103571142449e-07, No Iterations 1
[INFO] MomentumPredictor: 387.7 [ms]
[INFO] MatrixAssemblyPI: 302.784 [ms]
[INFO] MatrixAssemblyPII: 215.685 [ms]
[OGL LOG][Proc: 0]: global_index_init: 0.038 [ms]
[OGL LOG][Proc: 0]p_local_coeffs: call_update: 0 [ms]
[OGL LOG][Proc: 0]p_non_local_coeffs: call_update: 0 [ms]
[OGL LOG][Proc: 0]p: update_local_matrix_data: 40.684 [ms]
[OGL LOG][Proc: 0]p: update_non_local_matrix_data: 0.202 [ms]
[OGL LOG][Proc: 0]p_matrix: call_update: 13.612 [ms]
[OGL LOG][Proc: 0]p_rhs: call_update: 3.202 [ms]
[OGL LOG][Preconditioner.H:121] Generate preconditioner BJ MaxBlockSize 1
[OGL LOG][Proc: 0]p: init_precond: 0.995 [ms]
[OGL LOG][StoppingCriterion.H:373] Creating stopping criterion with minIter 177 frequency 4
[OGL LOG][Proc: 0]p: generate_solver: 0.001 [ms]
[OGL LOG][Proc: 0]p: solve: 461.49 [ms]
[OGL LOG][Proc: 0]p: copy_x_back: 4.322 [ms]
[OGL LOG][lduLduBase.H:336] 
Statistics:
	Time per iteration: 2208 [mu s]
[...]
[OGL LOG][Proc: 0]: global_index_init: 2.855 [ms]
[OGL LOG][Proc: 0]p_local_coeffs: call_update: 0 [ms]
[OGL LOG][Proc: 0]p_non_local_coeffs: call_update: 0 [ms]
[OGL LOG][Proc: 0]p: update_local_matrix_data: 40.952 [ms]
[OGL LOG][Proc: 0]p: update_non_local_matrix_data: 0.17 [ms]
[OGL LOG][Proc: 0]p_matrix: call_update: 8.829000000000001 [ms]
[OGL LOG][Proc: 0]p_rhs: call_update: 9.162000000000001 [ms]
[OGL LOG][Preconditioner.H:121] Generate preconditioner BJ MaxBlockSize 1
[OGL LOG][Proc: 0]p: init_precond: 1.002 [ms]
[OGL LOG][StoppingCriterion.H:373] Creating stopping criterion with minIter 202 frequency 4
[OGL LOG][Proc: 0]p: generate_solver: 0.001 [ms]
[OGL LOG][Proc: 0]p: solve: 452.007 [ms]
[OGL LOG][Proc: 0]p: copy_x_back: 4.174 [ms]
[OGL LOG][lduLduBase.H:336] 
Statistics:
	Time per iteration: 2204 [mu s]
	Time per residual norm calculation: 367.000000 [mu s]
	Time per iteration and DOF: 0.087361 [ns]
	Retrieve results bandwidth 1.804000 [GByte/s]
[OGL LOG][Proc: 0]p: solve_multi_gpu: 476.299 [ms]
BJhipGKOCG:  Solving for p, Initial residual = 0.0001281019058266719, Final residual = 1.02565744299862e-06, No Iterations 205
[INFO] SolveP: 529.413 [ms]
time step continuity errors : sum local = 2.904170093288109e-13, global = 1.242956391415829e-14, cumulative = -4.782016991131705e-11
[INFO] PIMPLEStep: 4445.395 [ms]
PIMPLE: iteration 8
velocityDampingConstraint velocityDamping damped 0 (0%) of cells, with max limit 300
[INFO] MatrixAssemblyU: 2874.246 [ms]
smoothSolver:  Solving for Ux, Initial residual = 2.428751218588588e-08, Final residual = 2.485011489473291e-10, No Iterations 1
smoothSolver:  Solving for Uy, Initial residual = 5.781205771258062e-08, Final residual = 7.163906739950946e-10, No Iterations 1
smoothSolver:  Solving for Uz, Initial residual = 2.167133693943801e-08, Final residual = 2.315131970591303e-10, No Iterations 1
[INFO] MomentumPredictor: 384.58 [ms]
[INFO] MatrixAssemblyPI: 302.316 [ms]
[INFO] MatrixAssemblyPII: 215.608 [ms]
[OGL LOG][Proc: 0]: global_index_init: 0.03 [ms]
[OGL LOG][Proc: 0]p_local_coeffs: call_update: 0 [ms]
[OGL LOG][Proc: 0]p_non_local_coeffs: call_update: 0 [ms]
[OGL LOG][Proc: 0]p: update_local_matrix_data: 40.261 [ms]
[OGL LOG][Proc: 0]p: update_non_local_matrix_data: 0.269 [ms]
[OGL LOG][Proc: 0]p_matrix: call_update: 8.959 [ms]
[OGL LOG][Proc: 0]p_rhs: call_update: 8.676 [ms]
[OGL LOG][Preconditioner.H:121] Generate preconditioner BJ MaxBlockSize 1
[OGL LOG][Proc: 0]p: init_precond: 0.983 [ms]
[OGL LOG][StoppingCriterion.H:373] Creating stopping criterion with minIter 123 frequency 3
[OGL LOG][Proc: 0]p: generate_solver: 0.001 [ms]
[OGL LOG][Proc: 0]p: solve: 543.011 [ms]
[OGL LOG][Proc: 0]p: copy_x_back: 4.867 [ms]
[OGL LOG][lduLduBase.H:336] 
Statistics:
	Time per iteration: 2253 [mu s]
	Time per residual norm calculation: 339.000000 [mu s]
	Time per iteration and DOF: 0.089304 [ns]
	Retrieve results bandwidth 1.547000 [GByte/s]
[OGL LOG][Proc: 0]p: solve_multi_gpu: 567.649 [ms]
BJhipGKOCG:  Solving for p, Initial residual = 8.334057135083998e-05, Final residual = 8.080824832304069e-07, No Iterations 241
[INFO] SolveP: 617.154 [ms]
time step continuity errors : sum local = 2.288044947155095e-13, global = 6.745287078819531e-15, cumulative = -4.781342462423823e-11
DILUPBiCGStab:  Solving for omega, Initial residual = 3.047923844073361e-05, Final residual = 9.336203363561209e-11, No Iterations 1
DILUPBiCGStab:  Solving for k, Initial residual = 9.611143251251054e-05, Final residual = 7.461116731548872e-10, No Iterations 1
[INFO] PIMPLEStep: 6949.862 [ms]
PIMPLE: converged in 8 iterations
[INFO] TimeStep: 38957.751 [ms]
ExecutionTime = 2358.68 s  ClockTime = 2330 s

Courant Number mean: 0.004345926111997725 max: 9.220529320217674
Time = 0.00025

PIMPLE: iteration 1
velocityDampingConstraint velocityDamping damped 0 (0%) of cells, with max limit 300
[INFO] MatrixAssemblyU: 2909.339 [ms]
smoothSolver:  Solving for Ux, Initial residual = 6.261790016018547e-05, Final residual = 4.348025805910816e-07, No Iterations 1
smoothSolver:  Solving for Uy, Initial residual = 0.0001398770616915895, Final residual = 1.222643553853522e-06, No Iterations 1
smoothSolver:  Solving for Uz, Initial residual = 5.079721372760731e-05, Final residual = 4.108073911140343e-07, No Iterations 1
[INFO] MomentumPredictor: 387.707 [ms]
[INFO] MatrixAssemblyPI: 316.289 [ms]
[INFO] MatrixAssemblyPII: 215.471 [ms]
[OGL LOG][Proc: 0]: global_index_init: 0.075 [ms]
[OGL LOG][Proc: 0]p_local_coeffs: call_update: 0 [ms]
[OGL LOG][Proc: 0]p_non_local_coeffs: call_update: 0 [ms]
[OGL LOG][Proc: 0]p: update_local_matrix_data: 41.085 [ms]
[OGL LOG][Proc: 0]p: update_non_local_matrix_data: 0.117 [ms]
[OGL LOG][Proc: 0]p_matrix: call_update: 9.172000000000001 [ms]
[OGL LOG][Proc: 0]p_rhs: call_update: 6.923 [ms]
[OGL LOG][Preconditioner.H:121] Generate preconditioner BJ MaxBlockSize 1
[OGL LOG][Proc: 0]p: init_precond: 0.987 [ms]
[OGL LOG][StoppingCriterion.H:373] Creating stopping criterion with minIter 144 frequency 4
[OGL LOG][Proc: 0]p: generate_solver: 0.001 [ms]
[OGL LOG][Proc: 0]p: solve: 625.071 [ms]
[OGL LOG][Proc: 0]p: copy_x_back: 4.2 [ms]
[OGL LOG][lduLduBase.H:336] 
Statistics:
	Time per iteration: 2133 [mu s]
	Time per residual norm calculation: 328.000000 [mu s]
	Time per iteration and DOF: 0.084547 [ns]
	Retrieve results bandwidth 1.793000 [GByte/s]
[OGL LOG][Proc: 0]p: solve_multi_gpu: 647.739 [ms]
BJhipGKOCG:  Solving for p, Initial residual = 0.002927469254429018, Final residual = 2.895448407923683e-05, No Iterations 293
[INFO] SolveP: 697.958 [ms]
time step continuity errors : sum local = 8.187709171428179e-12, global = 2.019406790077422e-14, cumulative = -4.779323055633745e-11
[INFO] PIMPLEStep: 4652.787 [ms]
PIMPLE: iteration 2
velocityDampingConstraint velocityDamping damped 0 (0%) of cells, with max limit 300
[INFO] MatrixAssemblyU: 2882.854 [ms]
smoothSolver:  Solving for Ux, Initial residual = 1.892695674993575e-05, Final residual = 1.345570741452809e-07, No Iterations 1
smoothSolver:  Solving for Uy, Initial residual = 4.253400688369694e-05, Final residual = 3.817923515334491e-07, No Iterations 1
smoothSolver:  Solving for Uz, Initial residual = 1.544151784879225e-05, Final residual = 1.279958996651025e-07, No Iterations 1
[INFO] MomentumPredictor: 386.625 [ms]
[INFO] MatrixAssemblyPI: 302.974 [ms]
[INFO] MatrixAssemblyPII: 213.777 [ms]
[OGL LOG][Proc: 0]: global_index_init: 0.055 [ms]
[OGL LOG][Proc: 0]p_local_coeffs: call_update: 0 [ms]
[OGL LOG][Proc: 0]p_non_local_coeffs: call_update: 0 [ms]
[OGL LOG][Proc: 0]p: update_local_matrix_data: 40.68 [ms]
[OGL LOG][Proc: 0]p: update_non_local_matrix_data: 0.26 [ms]
[OGL LOG][Proc: 0]p_matrix: call_update: 13.605 [ms]
[OGL LOG][Proc: 0]p_rhs: call_update: 5.36 [ms]
[OGL LOG][Preconditioner.H:121] Generate preconditioner BJ MaxBlockSize 1
[OGL LOG][Proc: 0]p: init_precond: 0.976 [ms]
[OGL LOG][StoppingCriterion.H:373] Creating stopping criterion with minIter 175 frequency 4
[OGL LOG][Proc: 0]p: generate_solver: 0.001 [ms]
[OGL LOG][Proc: 0]p: solve: 394.233 [ms]
[OGL LOG][Proc: 0]p: copy_x_back: 4.263 [ms]
[OGL LOG][lduLduBase.H:336] 
Statistics:
	Time per iteration: 2227 [mu s]
	Time per residual norm calculation: 363.000000 [mu s]
	Time per iteration and DOF: 0.088273 [ns]
	Retrieve results bandwidth 1.767000 [GByte/s]
[OGL LOG][Proc: 0]p: solve_multi_gpu: 420.069 [ms]
BJhipGKOCG:  Solving for p, Initial residual = 0.006522688182955904, Final residual = 3.314636252267008e-05, No Iterations 177
[INFO] SolveP: 470.085 [ms]
time step continuity errors : sum local = 9.328377003929538e-12, global = 2.144578984017846e-14, cumulative = -4.777178476649728e-11
[INFO] PIMPLEStep: 4387.621 [ms]
PIMPLE: iteration 3
velocityDampingConstraint velocityDamping damped 0 (0%) of cells, with max limit 300
[INFO] MatrixAssemblyU: 2880.199 [ms]
smoothSolver:  Solving for Ux, Initial residual = 5.744983968241223e-06, Final residual = 4.204536149504607e-08, No Iterations 1
smoothSolver:  Solving for Uy, Initial residual = 1.293441742658255e-05, Final residual = 1.201608997683473e-07, No Iterations 1
smoothSolver:  Solving for Uz, Initial residual = 4.692472679606144e-06, Final residual = 4.012694464461521e-08, No Iterations 1
[INFO] MomentumPredictor: 385.434 [ms]
[INFO] MatrixAssemblyPI: 302.344 [ms]
[INFO] MatrixAssemblyPII: 216.125 [ms]
[OGL LOG][Proc: 0]: global_index_init: 0.036 [ms]
[OGL LOG][Proc: 0]p_local_coeffs: call_update: 0 [ms]
[OGL LOG][Proc: 0]p_non_local_coeffs: call_update: 0 [ms]
[OGL LOG][Proc: 0]p: update_local_matrix_data: 41.049 [ms]
[OGL LOG][Proc: 0]p: update_non_local_matrix_data: 0.113 [ms]
[OGL LOG][Proc: 0]p_matrix: call_update: 9.802 [ms]
[OGL LOG][Proc: 0]p_rhs: call_update: 6.413 [ms]
[OGL LOG][Preconditioner.H:121] Generate preconditioner BJ MaxBlockSize 1
[OGL LOG][Proc: 0]p: init_precond: 0.974 [ms]
[OGL LOG][StoppingCriterion.H:373] Creating stopping criterion with minIter 106 frequency 3
[OGL LOG][Proc: 0]p: generate_solver: 0.001 [ms]
[OGL LOG][Proc: 0]p: solve: 467.378 [ms]
[OGL LOG][Proc: 0]p: copy_x_back: 4.322 [ms]
[OGL LOG][lduLduBase.H:336] 
Statistics:
	Time per iteration: 2215 [mu s]
	Time per residual norm calculation: 337.000000 [mu s]
	Time per iteration and DOF: 0.087797 [ns]
	Retrieve results bandwidth 1.743000 [GByte/s]
[OGL LOG][Proc: 0]p: solve_multi_gpu: 490.064 [ms]
BJhipGKOCG:  Solving for p, Initial residual = 0.002337681157975292, Final residual = 2.324379920296676e-05, No Iterations 211
[INFO] SolveP: 540.265 [ms]
time step continuity errors : sum local = 6.511491434994777e-12, global = 2.43204301825632e-14, cumulative = -4.774746433631471e-11
[INFO] PIMPLEStep: 4449.507 [ms]
PIMPLE: iteration 4
velocityDampingConstraint velocityDamping damped 0 (0%) of cells, with max limit 300
[INFO] MatrixAssemblyU: 2884.443 [ms]
smoothSolver:  Solving for Ux, Initial residual = 1.75509332317709e-06, Final residual = 1.336236858034122e-08, No Iterations 1
smoothSolver:  Solving for Uy, Initial residual = 3.96013117404206e-06, Final residual = 3.843994235129154e-08, No Iterations 1
smoothSolver:  Solving for Uz, Initial residual = 1.431898116652025e-06, Final residual = 1.274137868280726e-08, No Iterations 1
[INFO] MomentumPredictor: 385.123 [ms]
[INFO] MatrixAssemblyPI: 302.688 [ms]
[INFO] MatrixAssemblyPII: 215.719 [ms]
[OGL LOG][Proc: 0]: global_index_init: 0.063 [ms]
[OGL LOG][Proc: 0]p_local_coeffs: call_update: 0 [ms]
[OGL LOG][Proc: 0]p_non_local_coeffs: call_update: 0 [ms]
[OGL LOG][Proc: 0]p: update_local_matrix_data: 40.362 [ms]
[OGL LOG][Proc: 0]p: update_non_local_matrix_data: 0.206 [ms]
[OGL LOG][Proc: 0]p_matrix: call_update: 9.535 [ms]
[OGL LOG][Proc: 0]p_rhs: call_update: 7.285 [ms]
[OGL LOG][Preconditioner.H:121] Generate preconditioner BJ MaxBlockSize 1
[OGL LOG][Proc: 0]p: init_precond: 0.961 [ms]
[OGL LOG][StoppingCriterion.H:373] Creating stopping criterion with minIter 126 frequency 3
[OGL LOG][Proc: 0]p: generate_solver: 0.001 [ms]
[OGL LOG][Proc: 0]p: solve: 541.788 [ms]
[OGL LOG][Proc: 0]p: copy_x_back: 4.5 [ms]
[OGL LOG][lduLduBase.H:336] 
Statistics:
	Time per iteration: 2193 [mu s]
	Time per residual norm calculation: 334.000000 [mu s]
	Time per iteration and DOF: 0.086925 [ns]
	Retrieve results bandwidth 1.674000 [GByte/s]
[OGL LOG][Proc: 0]p: solve_multi_gpu: 565.616 [ms]
BJhipGKOCG:  Solving for p, Initial residual = 0.0008951955751369386, Final residual = 8.69442986202683e-06, No Iterations 247
[INFO] SolveP: 615.1660000000001 [ms]
time step continuity errors : sum local = 2.43219298260583e-12, global = 4.14382904645938e-14, cumulative = -4.770602604585012e-11
[INFO] PIMPLEStep: 4531.253 [ms]
PIMPLE: iteration 5
velocityDampingConstraint velocityDamping damped 0 (0%) of cells, with max limit 300
[INFO] MatrixAssemblyU: 2882.493 [ms]
smoothSolver:  Solving for Ux, Initial residual = 5.429839008152738e-07, Final residual = 4.380976821235732e-09, No Iterations 1
smoothSolver:  Solving for Uy, Initial residual = 1.234349850814689e-06, Final residual = 1.262183173656516e-08, No Iterations 1
smoothSolver:  Solving for Uz, Initial residual = 4.426998062740741e-07, Final residual = 4.143662683021271e-09, No Iterations 1
[INFO] MomentumPredictor: 384.791 [ms]
[INFO] MatrixAssemblyPI: 304.988 [ms]
[INFO] MatrixAssemblyPII: 217.801 [ms]
[OGL LOG][Proc: 0]: global_index_init: 0.095 [ms]
[OGL LOG][Proc: 0]p_local_coeffs: call_update: 0 [ms]
[OGL LOG][Proc: 0]p_non_local_coeffs: call_update: 0 [ms]
[OGL LOG][Proc: 0]p: update_local_matrix_data: 40.024 [ms]
[OGL LOG][Proc: 0]p: update_non_local_matrix_data: 0.106 [ms]
[OGL LOG][Proc: 0]p_matrix: call_update: 12.197 [ms]
[OGL LOG][Proc: 0]p_rhs: call_update: 5.693000000000001 [ms]
[OGL LOG][Preconditioner.H:121] Generate preconditioner BJ MaxBlockSize 1
[OGL LOG][Proc: 0]p: init_precond: 0.979 [ms]
[OGL LOG][StoppingCriterion.H:373] Creating stopping criterion with minIter 148 frequency 4
[OGL LOG][Proc: 0]p: generate_solver: 0.001 [ms]
[OGL LOG][Proc: 0]p: solve: 425.691 [ms]
[OGL LOG][Proc: 0]p: copy_x_back: 3.993 [ms]
[OGL LOG][lduLduBase.H:336] 
Statistics:
	Time per iteration: 2252 [mu s]
	Time per residual norm calculation: 335.000000 [mu s]
	Time per iteration and DOF: 0.089264 [ns]
	Retrieve results bandwidth 1.886000 [GByte/s]
[OGL LOG][Proc: 0]p: solve_multi_gpu: 449.929 [ms]
BJhipGKOCG:  Solving for p, Initial residual = 0.0003915903980382938, Final residual = 3.86036799074236e-06, No Iterations 189
[INFO] SolveP: 499.28 [ms]
time step continuity errors : sum local = 1.079404478578476e-12, global = 5.263879683501126e-14, cumulative = -4.765338724901511e-11
[INFO] PIMPLEStep: 4415.06 [ms]
PIMPLE: iteration 6
velocityDampingConstraint velocityDamping damped 0 (0%) of cells, with max limit 300
[INFO] MatrixAssemblyU: 2876.412 [ms]
smoothSolver:  Solving for Ux, Initial residual = 1.726136728053451e-07, Final residual = 1.507962107920085e-09, No Iterations 1
smoothSolver:  Solving for Uy, Initial residual = 3.969775960871378e-07, Final residual = 4.311224594950742e-09, No Iterations 1
smoothSolver:  Solving for Uz, Initial residual = 1.414521399648037e-07, Final residual = 1.405175266384586e-09, No Iterations 1
[INFO] MomentumPredictor: 385.167 [ms]
[INFO] MatrixAssemblyPI: 302.589 [ms]
[INFO] MatrixAssemblyPII: 216.198 [ms]
[OGL LOG][Proc: 0]: global_index_init: 0.028 [ms]
[OGL LOG][Proc: 0]p_local_coeffs: call_update: 0 [ms]
[OGL LOG][Proc: 0]p_non_local_coeffs: call_update: 0 [ms]
[OGL LOG][Proc: 0]p: update_local_matrix_data: 39.82 [ms]
[OGL LOG][Proc: 0]p: update_non_local_matrix_data: 0.168 [ms]
[OGL LOG][Proc: 0]p_matrix: call_update: 9.66 [ms]
[OGL LOG][Proc: 0]p_rhs: call_update: 10.698 [ms]
[OGL LOG][Preconditioner.H:121] Generate preconditioner BJ MaxBlockSize 1
[OGL LOG][Proc: 0]p: init_precond: 0.968 [ms]
[OGL LOG][StoppingCriterion.H:373] Creating stopping criterion with minIter 113 frequency 3
[OGL LOG][Proc: 0]p: generate_solver: 0.001 [ms]
[OGL LOG][Proc: 0]p: solve: 511.337 [ms]
[OGL LOG][Proc: 0]p: copy_x_back: 4.336 [ms]
[OGL LOG][lduLduBase.H:336] 
Statistics:
	Time per iteration: 2175 [mu s]
	Time per residual norm calculation: 335.000000 [mu s]
	Time per iteration and DOF: 0.086212 [ns]
	Retrieve results bandwidth 1.737000 [GByte/s]
[OGL LOG][Proc: 0]p: solve_multi_gpu: 538.198 [ms]
BJhipGKOCG:  Solving for p, Initial residual = 0.00020337679863367, Final residual = 1.980646633093988e-06, No Iterations 235
[INFO] SolveP: 587.304 [ms]
time step continuity errors : sum local = 5.537241752671097e-13, global = 6.008889105949642e-14, cumulative = -4.759329835795561e-11
[INFO] PIMPLEStep: 4492.262 [ms]
PIMPLE: iteration 7
velocityDampingConstraint velocityDamping damped 0 (0%) of cells, with max limit 300
[INFO] MatrixAssemblyU: 2878.378 [ms]
smoothSolver:  Solving for Ux, Initial residual = 5.871448619676408e-08, Final residual = 5.633139333192924e-10, No Iterations 1
smoothSolver:  Solving for Uy, Initial residual = 1.372987508790625e-07, Final residual = 1.595541375106068e-09, No Iterations 1
smoothSolver:  Solving for Uz, Initial residual = 4.958306167223827e-08, Final residual = 5.152485455179389e-10, No Iterations 1
[INFO] MomentumPredictor: 386.033 [ms]
[INFO] MatrixAssemblyPI: 302.499 [ms]
[INFO] MatrixAssemblyPII: 216.094 [ms]
[OGL LOG][Proc: 0]: global_index_init: 0.07000000000000001 [ms]
[OGL LOG][Proc: 0]p_local_coeffs: call_update: 0 [ms]
[OGL LOG][Proc: 0]p_non_local_coeffs: call_update: 0 [ms]
[OGL LOG][Proc: 0]p: update_local_matrix_data: 41.146 [ms]
[OGL LOG][Proc: 0]p: update_non_local_matrix_data: 0.112 [ms]
[OGL LOG][Proc: 0]p_matrix: call_update: 8.300000000000001 [ms]
[OGL LOG][Proc: 0]p_rhs: call_update: 7.008 [ms]
[OGL LOG][Preconditioner.H:121] Generate preconditioner BJ MaxBlockSize 1
[OGL LOG][Proc: 0]p: init_precond: 0.983 [ms]
[OGL LOG][StoppingCriterion.H:373] Creating stopping criterion with minIter 141 frequency 3
[OGL LOG][Proc: 0]p: generate_solver: 0.001 [ms]
[OGL LOG][Proc: 0]p: solve: 2042.102 [ms]
[OGL LOG][Proc: 0]p: copy_x_back: 3.992 [ms]
[OGL LOG][lduLduBase.H:336] 
Statistics:
	Time per iteration: 2000 [mu s]
	Time per residual norm calculation: 345.000000 [mu s]
	Time per iteration and DOF: 0.079275 [ns]
	Retrieve results bandwidth 1.887000 [GByte/s]
[OGL LOG][Proc: 0]p: solve_multi_gpu: 2063.554 [ms]
BJhipGKOCG:  Solving for p, Initial residual = 0.0001227924402525015, Final residual = 1.226334107124176e-06, No Iterations 1021
[INFO] SolveP: 2114.089 [ms]
time step continuity errors : sum local = 3.428239245398846e-13, global = -1.094029863642993e-16, cumulative = -4.759340776094198e-11
[INFO] PIMPLEStep: 6023.243 [ms]
PIMPLE: iteration 8
velocityDampingConstraint velocityDamping damped 0 (0%) of cells, with max limit 300
[INFO] MatrixAssemblyU: 2876.437 [ms]
smoothSolver:  Solving for Ux, Initial residual = 2.422538520601251e-08, Final residual = 2.328314093803369e-10, No Iterations 1
smoothSolver:  Solving for Uy, Initial residual = 5.549782909054916e-08, Final residual = 6.759756405521204e-10, No Iterations 1
smoothSolver:  Solving for Uz, Initial residual = 2.020377379845913e-08, Final residual = 2.166222166555257e-10, No Iterations 1
[INFO] MomentumPredictor: 387.018 [ms]
[INFO] MatrixAssemblyPI: 302.934 [ms]
[INFO] MatrixAssemblyPII: 214.71 [ms]
[OGL LOG][Proc: 0]: global_index_init: 0.113 [ms]
[OGL LOG][Proc: 0]p_local_coeffs: call_update: 0 [ms]
[OGL LOG][Proc: 0]p_non_local_coeffs: call_update: 0 [ms]
[OGL LOG][Proc: 0]p: update_local_matrix_data: 39.53 [ms]
[OGL LOG][Proc: 0]p: update_non_local_matrix_data: 0.109 [ms]
[OGL LOG][Proc: 0]p_matrix: call_update: 12.244 [ms]
[OGL LOG][Proc: 0]p_rhs: call_update: 4.492 [ms]
[OGL LOG][Preconditioner.H:121] Generate preconditioner BJ MaxBlockSize 1
[OGL LOG][Proc: 0]p: init_precond: 0.894 [ms]
[OGL LOG][StoppingCriterion.H:373] Creating stopping criterion with minIter 612 frequency 9
[OGL LOG][Proc: 0]p: generate_solver: 0.001 [ms]
[OGL LOG][Proc: 0]p: solve: 1210.487 [ms]
[OGL LOG][Proc: 0]p: copy_x_back: 4.215 [ms]
[OGL LOG][lduLduBase.H:336] 
Statistics:
	Time per iteration: 1974 [mu s]
	Time per residual norm calculation: 374.000000 [mu s]
	Time per iteration and DOF: 0.078245 [ns]
	Retrieve results bandwidth 1.787000 [GByte/s]
[OGL LOG][Proc: 0]p: solve_multi_gpu: 1233.518 [ms]
BJhipGKOCG:  Solving for p, Initial residual = 7.870004189624623e-05, Final residual = 2.315749772417717e-07, No Iterations 613
[INFO] SolveP: 1282.19 [ms]
time step continuity errors : sum local = 6.473951260920533e-14, global = -4.277440839924542e-15, cumulative = -4.75976852017819e-11
DILUPBiCGStab:  Solving for omega, Initial residual = 3.022858864185656e-05, Final residual = 9.08081916930169e-11, No Iterations 1
DILUPBiCGStab:  Solving for k, Initial residual = 9.058622103699675e-05, Final residual = 6.991688984572405e-10, No Iterations 1
[INFO] PIMPLEStep: 7622.826 [ms]
PIMPLE: converged in 8 iterations
[INFO] TimeStep: 40623.736 [ms]
ExecutionTime = 2401.65 s  ClockTime = 2373 s

End

Finalising parallel run
