/*---------------------------------------------------------------------------*\
| =========                 |                                                 |
| \\      /  F ield         | OpenFOAM: The Open Source CFD Toolbox           |
|  \\    /   O peration     | Version:  2306                                  |
|   \\  /    A nd           | Website:  www.openfoam.com                      |
|    \\/     M anipulation  |                                                 |
\*---------------------------------------------------------------------------*/
Build  : c423ebec-20231012 OPENFOAM=2306 version=v2306
Arch   : "LSB;label=32;scalar=64"
Exec   : simpleFoam -parallel -case /hkfs/work/workspace/scratch/eq4036-windsorbody_setup/workspace/607a539f6d0a00be729beb972b04f385/case
Date   : Feb 16 2024
Time   : 14:53:36
Host   : hkn0628.localdomain
PID    : 355269
I/O    : uncollated
Case   : /hkfs/work/workspace/scratch/eq4036-windsorbody_setup/workspace/607a539f6d0a00be729beb972b04f385/case
nProcs : 8
Hosts  :
(
    (hkn0628.localdomain 8)
)
Pstream initialized with:
    floatTransfer      : false
    nProcsSimpleSum    : 0
    nonBlockingExchange: 0 (tuning: 0)
    exchange algorithm : -1
    commsType          : nonBlocking
    polling iterations : 0
trapFpe: Floating point exception trapping enabled (FOAM_SIGFPE).
fileModificationChecking : Monitoring run-time modified files using timeStampMaster (fileModificationSkew 5, maxFileModificationPolls 20)
allowSystemOperations : Allowing user-supplied system call operations

// * * * * * * * * * * * * * * * * * * * * * * * * * * * * * * * * * * * * * //
Create time

--> FOAM Warning : 
    From void* Foam::dlLibraryTable::openLibrary(const Foam::fileName&, bool)
    in file db/dynamicLibrary/dlLibraryTable/dlLibraryTable.C at line 188
    Could not load "libpetscFoam.so"
libpetscFoam.so: cannot open shared object file: No such file or directory
Create mesh for time = 0


SIMPLE: convergence criteria
    field p	 tolerance 1e-08
    field U	 tolerance 1e-08
    field k	 tolerance 1e-08
    field omega	 tolerance 1e-08
    field nuTilda	 tolerance 1e-08

Reading field p

Reading field U

Reading/calculating face flux field phi

Selecting incompressible transport model Newtonian
Selecting turbulence model type RAS
Selecting RAS turbulence model SpalartAllmaras
Selecting patchDistMethod meshWave
ft2 term: inactive
RAS
{
    RASModel        SpalartAllmaras;
    turbulence      on;
    printCoeffs     on;
    sigmaNut        0.66666;
    kappa           0.41;
    Cb1             0.1355;
    Cb2             0.622;
    Cw2             0.3;
    Cw3             2;
    Cv1             7.1;
    Cs              0.3;
    ck              0.07000000000000001;
    ft2             false;
    Ct3             1.2;
    Ct4             0.5;
}

No MRF models present

Creating finite volume options from "system/fvOptions"

Selecting finite volume options type velocityDampingConstraint
    Source: velocityDamping
    - selecting all cells
    - selected 12614272 cell(s) with volume 55.65166103208902

Starting time loop

--> FOAM Warning : 
    From bool Foam::functionObjectList::read()
    in file db/functionObjects/functionObjectList/functionObjectList.C at line 1035
    Reading "system/controlDict" at line 2 to 41
    Entry 'lref' is not a dictionary
--> FOAM Warning : 
    From bool Foam::functionObjectList::read()
    in file db/functionObjects/functionObjectList/functionObjectList.C at line 1035
    Reading "system/controlDict" at line 2 to 41
    Entry 'Aref' is not a dictionary
--> FOAM Warning : 
    From bool Foam::functionObjectList::read()
    in file db/functionObjects/functionObjectList/functionObjectList.C at line 1035
    Reading "system/controlDict" at line 2 to 41
    Entry 'yawAngle' is not a dictionary
--> FOAM Warning : 
    From bool Foam::functionObjectList::read()
    in file db/functionObjects/functionObjectList/functionObjectList.C at line 1035
    Reading "system/controlDict" at line 2 to 41
    Entry 'lDomain' is not a dictionary
--> FOAM Warning : 
    From bool Foam::functionObjectList::read()
    in file db/functionObjects/functionObjectList/functionObjectList.C at line 1035
    Reading "system/controlDict" at line 2 to 41
    Entry 'bDomain' is not a dictionary
--> FOAM Warning : 
    From bool Foam::functionObjectList::read()
    in file db/functionObjects/functionObjectList/functionObjectList.C at line 1035
    Reading "system/controlDict" at line 2 to 41
    Entry 'hDomain' is not a dictionary
--> FOAM Warning : 
    From bool Foam::functionObjectList::read()
    in file db/functionObjects/functionObjectList/functionObjectList.C at line 1035
    Reading "system/controlDict" at line 2 to 41
    Entry 'xCenter' is not a dictionary
--> FOAM Warning : 
    From bool Foam::functionObjectList::read()
    in file db/functionObjects/functionObjectList/functionObjectList.C at line 1035
    Reading "system/controlDict" at line 2 to 41
    Entry 'yCenter' is not a dictionary
--> FOAM Warning : 
    From bool Foam::functionObjectList::read()
    in file db/functionObjects/functionObjectList/functionObjectList.C at line 1035
    Reading "system/controlDict" at line 2 to 41
    Entry 'zCenter' is not a dictionary
--> FOAM Warning : 
    From bool Foam::functionObjectList::read()
    in file db/functionObjects/functionObjectList/functionObjectList.C at line 1035
    Reading "system/controlDict" at line 2 to 41
    Entry 'inletPatch' is not a dictionary
--> FOAM Warning : 
    From bool Foam::functionObjectList::read()
    in file db/functionObjects/functionObjectList/functionObjectList.C at line 1035
    Reading "system/controlDict" at line 2 to 41
    Entry 'outletPatch' is not a dictionary
--> FOAM Warning : 
    From bool Foam::functionObjectList::read()
    in file db/functionObjects/functionObjectList/functionObjectList.C at line 1035
    Reading "system/controlDict" at line 2 to 41
    Entry 'wallPatches' is not a dictionary
--> FOAM Warning : 
    From bool Foam::functionObjectList::read()
    in file db/functionObjects/functionObjectList/functionObjectList.C at line 1035
    Reading "system/controlDict" at line 2 to 41
    Entry 'forcesWallPatches' is not a dictionary
--> FOAM Warning : 
    From bool Foam::functionObjectList::read()
    in file db/functionObjects/functionObjectList/functionObjectList.C at line 1035
    Reading "system/controlDict" at line 2 to 41
    Entry 'symmPatches' is not a dictionary
--> FOAM Warning : 
    From bool Foam::functionObjectList::read()
    in file db/functionObjects/functionObjectList/functionObjectList.C at line 1035
    Reading "system/controlDict" at line 2 to 41
    Entry 'Uinf' is not a dictionary
--> FOAM Warning : 
    From bool Foam::functionObjectList::read()
    in file db/functionObjects/functionObjectList/functionObjectList.C at line 1035
    Reading "system/controlDict" at line 2 to 41
    Entry 'UinfMag' is not a dictionary
--> FOAM Warning : 
    From bool Foam::functionObjectList::read()
    in file db/functionObjects/functionObjectList/functionObjectList.C at line 1035
    Reading "system/controlDict" at line 2 to 41
    Entry 'nu' is not a dictionary
--> FOAM Warning : 
    From bool Foam::functionObjectList::read()
    in file db/functionObjects/functionObjectList/functionObjectList.C at line 1035
    Reading "system/controlDict" at line 2 to 41
    Entry 'pref' is not a dictionary
--> FOAM Warning : 
    From bool Foam::functionObjectList::read()
    in file db/functionObjects/functionObjectList/functionObjectList.C at line 1035
    Reading "system/controlDict" at line 2 to 41
    Entry 'viscRatio' is not a dictionary
--> FOAM Warning : 
    From bool Foam::functionObjectList::read()
    in file db/functionObjects/functionObjectList/functionObjectList.C at line 1035
    Reading "system/controlDict" at line 2 to 41
    Entry 'Tu' is not a dictionary
--> FOAM Warning : 
    From bool Foam::functionObjectList::read()
    in file db/functionObjects/functionObjectList/functionObjectList.C at line 1035
    Reading "system/controlDict" at line 2 to 41
    Entry 'LESturbModel' is not a dictionary
--> FOAM Warning : 
    From bool Foam::functionObjectList::read()
    in file db/functionObjects/functionObjectList/functionObjectList.C at line 1035
    Reading "system/controlDict" at line 2 to 41
    Entry 'RASturbModel' is not a dictionary
--> FOAM Warning : 
    From bool Foam::functionObjectList::read()
    in file db/functionObjects/functionObjectList/functionObjectList.C at line 1035
    Reading "system/controlDict" at line 2 to 41
    Entry 'deltaTurb' is not a dictionary
--> FOAM Warning : 
    From bool Foam::functionObjectList::read()
    in file db/functionObjects/functionObjectList/functionObjectList.C at line 1035
    Reading "system/controlDict" at line 2 to 41
    Entry 'dt' is not a dictionary
--> FOAM Warning : 
    From bool Foam::functionObjectList::read()
    in file db/functionObjects/functionObjectList/functionObjectList.C at line 1035
    Reading "system/controlDict" at line 2 to 41
    Entry 'tAvg' is not a dictionary
--> FOAM Warning : 
    From bool Foam::functionObjectList::read()
    in file db/functionObjects/functionObjectList/functionObjectList.C at line 1035
    Reading "system/controlDict" at line 2 to 41
    Entry 'tEnd' is not a dictionary
--> FOAM Warning : 
    From bool Foam::functionObjectList::read()
    in file db/functionObjects/functionObjectList/functionObjectList.C at line 1035
    Reading "system/controlDict" at line 2 to 41
    Entry 'writeInterval_' is not a dictionary
--> FOAM Warning : 
    From bool Foam::functionObjectList::read()
    in file db/functionObjects/functionObjectList/functionObjectList.C at line 1035
    Reading "system/controlDict" at line 2 to 41
    Entry 'nCores' is not a dictionary
--> FOAM Warning : 
    From bool Foam::functionObjectList::read()
    in file db/functionObjects/functionObjectList/functionObjectList.C at line 1035
    Reading "system/controlDict" at line 2 to 41
    Entry 'interpScheme' is not a dictionary
--> FOAM Warning : 
    From bool Foam::functionObjectList::read()
    in file db/functionObjects/functionObjectList/functionObjectList.C at line 1035
    Reading "system/controlDict" at line 2 to 41
    Entry 'probeField' is not a dictionary
wallShearStress wallShearStress:
    processing wall patches: 
        Windsor_Body
        CFDWT_Floor
        Windsor_Pins
        Windsor_Base
        Windsor_Body_2
        CFDWT_Floor_2
        Windsor_Pins_2
        Windsor_Base_2

pressure calc_cp:
    Operating mode: staticCoeff
    Not including hydrostatic effects

forceCoeffs forceCoeffsAll:
    rho: rhoInf
    Freestream density (rhoInf) set to 1
    Not including porosity effects
    magUInf: 40
    lRef   : 0.6375
    Aref   : 0.1124
    rhoInf : 1
    Selecting all coefficients
    - Drag force: Cd
    - Drag force front: Cd(f)
    - Drag force rear: Cd(r)
    - Lift force: Cl
    - Lift force front: Cl(f)
    - Lift force rear: Cl(r)
    - Pitch moment: CmPitch
    - Roll moment: CmRoll
    - Yaw moment: CmYaw
    - Side force: Cs
    - Side force front: Cs(f)
    - Side force rear: Cs(r)


forceCoeffs dragCoeffBase:
    rho: rhoInf
    Freestream density (rhoInf) set to 1
    Not including porosity effects
    magUInf: 40
    lRef   : 0.6375
    Aref   : 0.1124
    rhoInf : 1
    Selecting coefficients:
    - Drag force: Cd


Time = 1

velocityDampingConstraint velocityDamping damped 0 (0%) of cells, with max limit 300
smoothSolver:  Solving for Ux, Initial residual = 0.9999999999994108, Final residual = 0.08528174739783526, No Iterations 3
smoothSolver:  Solving for Uy, Initial residual = 1, Final residual = 0.06554932570486824, No Iterations 6
smoothSolver:  Solving for Uz, Initial residual = 1, Final residual = 0.01751046527747439, No Iterations 2
[OGL LOG][lduLduBase.H:119] Initialising OGL
	OGL commit:  e75313f+
	Branch: dev 
	Build type: Debug
	Ginkgo version: 1.8.0 ( develop)
	Ginkgo commit: sparse-communicator
	MPI is GPU aware: 1
	Forces host buffer based communication: 0
	CPU ranks per GPU: 1
	Matrix format: Coo
	End OGL_INFO
[OGL LOG][Proc: 0]: global_index_init: 12.037 [ms]
[OGL LOG][Proc: 0]p_local_cols: call_init: 1.084 [ms]
[OGL LOG][Proc: 0]p_local_rows: call_init: 0.464 [ms]
[OGL LOG][Proc: 0]p_local_ldu_map: call_init: 0.486 [ms]
[OGL LOG][Proc: 0]p_local_coeffs: call_init: 3.757 [ms]
[OGL LOG][Proc: 0]p_non_local_cols: call_init: 0.442 [ms]
[OGL LOG][Proc: 0]p_non_local_rows: call_init: 0.774 [ms]
[OGL LOG][Proc: 0]p_non_local_ldu_map: call_init: 0.282 [ms]
[OGL LOG][Proc: 0]p_non_local_coeffs: call_init: 0.237 [ms]
[OGL LOG][Proc: 0]p: init_local_sparsity_pattern: 49913.768 [ms]
[OGL LOG][Proc: 0]p: init_non_local_sparsity_pattern: 11769.56 [ms]
[OGL LOG][Proc: 0]p: update_local_matrix_data: 89.514 [ms]
[OGL LOG][Proc: 0]p: update_non_local_matrix_data: 0.48 [ms]
[OGL LOG][Proc: 0]device_partition: call_init: 0.207 [ms]
[OGL LOG][Proc: 0]p_matrix: call_init: 162.301 [ms]
[OGL LOG][Proc: 0]p_rhs: call_init: 2.307 [ms]
[OGL LOG][Proc: 0]p_solution: call_init: 3.372 [ms]
[OGL LOG][Preconditioner.H:346] Generate preconditioner Multigrid MaxLevels 9 MinCoarseRows 10 ZeroGuess 1 Cycle v
[OGL LOG][Proc: 0]p: init_precond: 529.917 [ms]
[OGL LOG][StoppingCriterion.H:239] Creating stopping criterion with minIter 0 frequency 1
[OGL LOG][Proc: 0]p: generate_solver: 0.03 [ms]
[OGL LOG][Proc: 0]p: solve: 1455.859 [ms]
[OGL LOG][Proc: 0]p: copy_x_back: 4.958 [ms]
[OGL LOG][lduLduBase.H:330] 
Statistics:
	Time per iteration: 13606 [mu s]
	Time per residual norm calculation: 1283.000000 [mu s]
	Time per iteration and DOF: 1.078620 [ns]
	Retrieve results bandwidth 2.547000 [GByte/s]
[OGL LOG][Proc: 0]p: solve_multi_gpu: 2237.968 [ms]
MultigridcudaGKOCG:  Solving for p, Initial residual = 1.000000000000574, Final residual = 0.009509380672310386, No Iterations 107
time step continuity errors : sum local = 0.003455921192882812, global = 2.836025891758923e-05, cumulative = 2.836025891758923e-05
smoothSolver:  Solving for nuTilda, Initial residual = 0.9999999904343456, Final residual = 0.05254603065666338, No Iterations 3
ExecutionTime = 87.23999999999999 s  ClockTime = 88 s

--> FOAM Warning : 
    From virtual bool Foam::functionObjects::fieldSelection::checkSelection()
    in file functionObjects/fieldSelections/fieldSelection/fieldSelection.C at line 166
    Field k not found
--> FOAM Warning : 
    From virtual bool Foam::functionObjects::fieldSelection::checkSelection()
    in file functionObjects/fieldSelections/fieldSelection/fieldSelection.C at line 166
    Field gammaInt not found
--> FOAM Warning : 
    From virtual bool Foam::functionObjects::fieldSelection::checkSelection()
    in file functionObjects/fieldSelections/fieldSelection/fieldSelection.C at line 166
    Field omega not found
--> FOAM Warning : 
    From virtual bool Foam::functionObjects::fieldSelection::checkSelection()
    in file functionObjects/fieldSelections/fieldSelection/fieldSelection.C at line 166
    Field ReThetat not found
--> FOAM Warning : 
    From virtual bool Foam::functionObjects::fieldSelection::checkSelection()
    in file functionObjects/fieldSelections/fieldSelection/fieldSelection.C at line 166
    Field epsilon not found
--> FOAM Warning : 
    From virtual bool Foam::functionObjects::solverFieldSelection::updateSelection()
    in file functionObjects/fieldSelections/solverFieldSelection/solverFieldSelection.C at line 85
    Valid solver fields are: 3(U nuTilda p)Time = 2

velocityDampingConstraint velocityDamping damped 0 (0%) of cells, with max limit 300
smoothSolver:  Solving for Ux, Initial residual = 0.4348161353249063, Final residual = 0.02786986501658758, No Iterations 5
smoothSolver:  Solving for Uy, Initial residual = 0.580698904775143, Final residual = 0.03760199474953881, No Iterations 5
smoothSolver:  Solving for Uz, Initial residual = 0.5440429386315669, Final residual = 0.05436673364205772, No Iterations 4
[OGL LOG][Proc: 0]: global_index_init: 0.068 [ms]
[OGL LOG][Proc: 0]p_local_coeffs: call_update: 0.001 [ms]
[OGL LOG][Proc: 0]p_non_local_coeffs: call_update: 0 [ms]
[OGL LOG][Proc: 0]p: update_local_matrix_data: 72.834 [ms]
[OGL LOG][Proc: 0]p: update_non_local_matrix_data: 0.387 [ms]
[OGL LOG][Proc: 0]p_matrix: call_update: 3.554 [ms]
[OGL LOG][Proc: 0]p_rhs: call_update: 1.617 [ms]
[OGL LOG][Preconditioner.H:346] Generate preconditioner Multigrid MaxLevels 9 MinCoarseRows 10 ZeroGuess 1 Cycle v
[OGL LOG][Proc: 0]p: init_precond: 456.995 [ms]
[OGL LOG][StoppingCriterion.H:239] Creating stopping criterion with minIter 64 frequency 2
[OGL LOG][Proc: 0]p: generate_solver: 0.01 [ms]
[OGL LOG][Proc: 0]p: solve: 817.879 [ms]
[OGL LOG][Proc: 0]p: copy_x_back: 4.717 [ms]
[OGL LOG][lduLduBase.H:330] 
Statistics:
	Time per iteration: 12582 [mu s]
	Time per residual norm calculation: 1282.000000 [mu s]
	Time per iteration and DOF: 0.997442 [ns]
	Retrieve results bandwidth 2.677000 [GByte/s]
[OGL LOG][Proc: 0]p: solve_multi_gpu: 1311.207 [ms]
MultigridcudaGKOCG:  Solving for p, Initial residual = 0.4316059447216547, Final residual = 0.002873245988306366, No Iterations 65
time step continuity errors : sum local = 0.06273977021428662, global = 0.0126516778456659, cumulative = 0.01268003810458349
smoothSolver:  Solving for nuTilda, Initial residual = 0.2988203078660166, Final residual = 0.01991451704659766, No Iterations 2
ExecutionTime = 95.81 s  ClockTime = 97 s

Time = 3

velocityDampingConstraint velocityDamping damped 9198 (0.07000000000000001%) of cells, with max limit 300
smoothSolver:  Solving for Ux, Initial residual = 0.2925885615208488, Final residual = 0.0182231957832968, No Iterations 2
smoothSolver:  Solving for Uy, Initial residual = 0.2832092429162438, Final residual = 0.0261024476665363, No Iterations 4
smoothSolver:  Solving for Uz, Initial residual = 0.2585423745565504, Final residual = 0.02254940795747337, No Iterations 4
[OGL LOG][Proc: 0]: global_index_init: 0.016 [ms]
[OGL LOG][Proc: 0]p_local_coeffs: call_update: 0 [ms]
[OGL LOG][Proc: 0]p_non_local_coeffs: call_update: 0 [ms]
[OGL LOG][Proc: 0]p: update_local_matrix_data: 72.621 [ms]
[OGL LOG][Proc: 0]p: update_non_local_matrix_data: 0.32 [ms]
[OGL LOG][Proc: 0]p_matrix: call_update: 3.103 [ms]
[OGL LOG][Proc: 0]p_rhs: call_update: 2.127 [ms]
[OGL LOG][Preconditioner.H:346] Generate preconditioner Multigrid MaxLevels 9 MinCoarseRows 10 ZeroGuess 1 Cycle v
[OGL LOG][Proc: 0]p: init_precond: 434.051 [ms]
[OGL LOG][StoppingCriterion.H:239] Creating stopping criterion with minIter 39 frequency 1
[OGL LOG][Proc: 0]p: generate_solver: 0.008999999999999999 [ms]
[OGL LOG][Proc: 0]p: solve: 1115.942 [ms]
[OGL LOG][Proc: 0]p: copy_x_back: 5.024 [ms]
[OGL LOG][lduLduBase.H:330] 
Statistics:
	Time per iteration: 12399 [mu s]
	Time per residual norm calculation: 1276.000000 [mu s]
	Time per iteration and DOF: 0.982934 [ns]
	Retrieve results bandwidth 2.513000 [GByte/s]
[OGL LOG][Proc: 0]p: solve_multi_gpu: 1591.269 [ms]
MultigridcudaGKOCG:  Solving for p, Initial residual = 0.3787045636845054, Final residual = 0.003684679708792661, No Iterations 90
time step continuity errors : sum local = 0.02087721513876134, global = 0.0002265538127562215, cumulative = 0.01290659191733971
smoothSolver:  Solving for nuTilda, Initial residual = 0.3316625743648173, Final residual = 0.02755100195305989, No Iterations 1
ExecutionTime = 104.41 s  ClockTime = 105 s

Time = 4

velocityDampingConstraint velocityDamping damped 89 (0%) of cells, with max limit 300
smoothSolver:  Solving for Ux, Initial residual = 0.03683617785320496, Final residual = 0.002934191601373359, No Iterations 4
smoothSolver:  Solving for Uy, Initial residual = 0.05349244399455138, Final residual = 0.004686855642925758, No Iterations 4
smoothSolver:  Solving for Uz, Initial residual = 0.0504279878943864, Final residual = 0.004480462680608141, No Iterations 4
[OGL LOG][Proc: 0]: global_index_init: 0.016 [ms]
[OGL LOG][Proc: 0]p_local_coeffs: call_update: 0 [ms]
[OGL LOG][Proc: 0]p_non_local_coeffs: call_update: 0 [ms]
[OGL LOG][Proc: 0]p: update_local_matrix_data: 70.059 [ms]
[OGL LOG][Proc: 0]p: update_non_local_matrix_data: 0.361 [ms]
[OGL LOG][Proc: 0]p_matrix: call_update: 2.974 [ms]
[OGL LOG][Proc: 0]p_rhs: call_update: 2.173 [ms]
[OGL LOG][Preconditioner.H:346] Generate preconditioner Multigrid MaxLevels 9 MinCoarseRows 10 ZeroGuess 1 Cycle v
[OGL LOG][Proc: 0]p: init_precond: 438.688 [ms]
[OGL LOG][StoppingCriterion.H:239] Creating stopping criterion with minIter 54 frequency 2
[OGL LOG][Proc: 0]p: generate_solver: 0.008999999999999999 [ms]
[OGL LOG][Proc: 0]p: solve: 696.2569999999999 [ms]
[OGL LOG][Proc: 0]p: copy_x_back: 4.791 [ms]
[OGL LOG][lduLduBase.H:330] 
Statistics:
	Time per iteration: 12659 [mu s]
	Time per residual norm calculation: 1282.000000 [mu s]
	Time per iteration and DOF: 1.003546 [ns]
	Retrieve results bandwidth 2.636000 [GByte/s]
[OGL LOG][Proc: 0]p: solve_multi_gpu: 1179.044 [ms]
MultigridcudaGKOCG:  Solving for p, Initial residual = 0.4919107945777274, Final residual = 0.002580020148007895, No Iterations 55
time step continuity errors : sum local = 0.02413336441746613, global = -0.003276211598564478, cumulative = 0.009630380318775233
smoothSolver:  Solving for nuTilda, Initial residual = 0.1525765319610393, Final residual = 0.006648582754663877, No Iterations 3
ExecutionTime = 112.77 s  ClockTime = 114 s

Time = 5

velocityDampingConstraint velocityDamping damped 2765 (0.02%) of cells, with max limit 300
smoothSolver:  Solving for Ux, Initial residual = 0.1874526187677369, Final residual = 0.01551770897883291, No Iterations 3
smoothSolver:  Solving for Uy, Initial residual = 0.2622349083637804, Final residual = 0.02124695770198269, No Iterations 4
smoothSolver:  Solving for Uz, Initial residual = 0.2220812747439357, Final residual = 0.01688584506974793, No Iterations 4
[OGL LOG][Proc: 0]: global_index_init: 0.153 [ms]
[OGL LOG][Proc: 0]p_local_coeffs: call_update: 0 [ms]
[OGL LOG][Proc: 0]p_non_local_coeffs: call_update: 0 [ms]
[OGL LOG][Proc: 0]p: update_local_matrix_data: 74.09099999999999 [ms]
[OGL LOG][Proc: 0]p: update_non_local_matrix_data: 0.323 [ms]
[OGL LOG][Proc: 0]p_matrix: call_update: 3.079 [ms]
[OGL LOG][Proc: 0]p_rhs: call_update: 1.944 [ms]
[OGL LOG][Preconditioner.H:346] Generate preconditioner Multigrid MaxLevels 9 MinCoarseRows 10 ZeroGuess 1 Cycle v
[OGL LOG][Proc: 0]p: init_precond: 435.402 [ms]
[OGL LOG][StoppingCriterion.H:239] Creating stopping criterion with minIter 33 frequency 1
[OGL LOG][Proc: 0]p: generate_solver: 0.008999999999999999 [ms]
[OGL LOG][Proc: 0]p: solve: 1088.356 [ms]
[OGL LOG][Proc: 0]p: copy_x_back: 4.863 [ms]
[OGL LOG][lduLduBase.H:330] 
Statistics:
	Time per iteration: 12509 [mu s]
	Time per residual norm calculation: 1297.000000 [mu s]
	Time per iteration and DOF: 0.991655 [ns]
	Retrieve results bandwidth 2.597000 [GByte/s]
[OGL LOG][Proc: 0]p: solve_multi_gpu: 1563.285 [ms]
MultigridcudaGKOCG:  Solving for p, Initial residual = 0.3537903138701968, Final residual = 0.00338377930292198, No Iterations 87
time step continuity errors : sum local = 0.02840567386421406, global = -0.0002328318601277993, cumulative = 0.009397548458647433
smoothSolver:  Solving for nuTilda, Initial residual = 0.1178782371809769, Final residual = 0.01040003788668285, No Iterations 2
ExecutionTime = 121.38 s  ClockTime = 122 s

Time = 6

velocityDampingConstraint velocityDamping damped 221 (0%) of cells, with max limit 300
smoothSolver:  Solving for Ux, Initial residual = 0.1360263719537811, Final residual = 0.01266558073356931, No Iterations 4
smoothSolver:  Solving for Uy, Initial residual = 0.2510865136111682, Final residual = 0.01522806373611539, No Iterations 5
smoothSolver:  Solving for Uz, Initial residual = 0.2028348185544004, Final residual = 0.0193868813707691, No Iterations 4
[OGL LOG][Proc: 0]: global_index_init: 0.017 [ms]
[OGL LOG][Proc: 0]p_local_coeffs: call_update: 0 [ms]
[OGL LOG][Proc: 0]p_non_local_coeffs: call_update: 0 [ms]
[OGL LOG][Proc: 0]p: update_local_matrix_data: 61.594 [ms]
[OGL LOG][Proc: 0]p: update_non_local_matrix_data: 0.452 [ms]
[OGL LOG][Proc: 0]p_matrix: call_update: 2.717 [ms]
[OGL LOG][Proc: 0]p_rhs: call_update: 3.715 [ms]
[OGL LOG][Preconditioner.H:346] Generate preconditioner Multigrid MaxLevels 9 MinCoarseRows 10 ZeroGuess 1 Cycle v
[OGL LOG][Proc: 0]p: init_precond: 438.97 [ms]
[OGL LOG][StoppingCriterion.H:239] Creating stopping criterion with minIter 52 frequency 1
[OGL LOG][Proc: 0]p: generate_solver: 0.008999999999999999 [ms]
[OGL LOG][Proc: 0]p: solve: 1087.4 [ms]
[OGL LOG][Proc: 0]p: copy_x_back: 4.63 [ms]
[OGL LOG][lduLduBase.H:330] 
Statistics:
	Time per iteration: 12644 [mu s]
	Time per residual norm calculation: 1279.000000 [mu s]
	Time per iteration and DOF: 1.002357 [ns]
	Retrieve results bandwidth 2.727000 [GByte/s]
[OGL LOG][Proc: 0]p: solve_multi_gpu: 1576.019 [ms]
MultigridcudaGKOCG:  Solving for p, Initial residual = 0.376646890203767, Final residual = 0.003641690738165267, No Iterations 86
time step continuity errors : sum local = 0.02826766319683564, global = -0.0005097720083983372, cumulative = 0.008887776450249095
smoothSolver:  Solving for nuTilda, Initial residual = 0.07907273271771095, Final residual = 0.004938621568520965, No Iterations 3
ExecutionTime = 130.14 s  ClockTime = 131 s

Time = 7

velocityDampingConstraint velocityDamping damped 907 (0.01%) of cells, with max limit 300
smoothSolver:  Solving for Ux, Initial residual = 0.09821822074818413, Final residual = 0.006067473889230366, No Iterations 4
smoothSolver:  Solving for Uy, Initial residual = 0.109020496749258, Final residual = 0.008285558765142366, No Iterations 4
smoothSolver:  Solving for Uz, Initial residual = 0.1029275746357026, Final residual = 0.007788538007084692, No Iterations 4
[OGL LOG][Proc: 0]: global_index_init: 0.145 [ms]
[OGL LOG][Proc: 0]p_local_coeffs: call_update: 0 [ms]
[OGL LOG][Proc: 0]p_non_local_coeffs: call_update: 0 [ms]
[OGL LOG][Proc: 0]p: update_local_matrix_data: 72.11499999999999 [ms]
[OGL LOG][Proc: 0]p: update_non_local_matrix_data: 0.403 [ms]
[OGL LOG][Proc: 0]p_matrix: call_update: 3.402 [ms]
[OGL LOG][Proc: 0]p_rhs: call_update: 1.683 [ms]
[OGL LOG][Preconditioner.H:346] Generate preconditioner Multigrid MaxLevels 9 MinCoarseRows 10 ZeroGuess 1 Cycle v
[OGL LOG][Proc: 0]p: init_precond: 453.014 [ms]
[OGL LOG][StoppingCriterion.H:239] Creating stopping criterion with minIter 51 frequency 1
[OGL LOG][Proc: 0]p: generate_solver: 0.008999999999999999 [ms]
[OGL LOG][Proc: 0]p: solve: 920.952 [ms]
[OGL LOG][Proc: 0]p: copy_x_back: 4.902 [ms]
[OGL LOG][lduLduBase.H:330] 
Statistics:
	Time per iteration: 12445 [mu s]
	Time per residual norm calculation: 1426.000000 [mu s]
	Time per iteration and DOF: 0.986581 [ns]
	Retrieve results bandwidth 2.576000 [GByte/s]
[OGL LOG][Proc: 0]p: solve_multi_gpu: 1410.815 [ms]
MultigridcudaGKOCG:  Solving for p, Initial residual = 0.367891435647425, Final residual = 0.003606600637032611, No Iterations 74
time step continuity errors : sum local = 0.01998241113545138, global = 0.001091506453488204, cumulative = 0.009979282903737299
smoothSolver:  Solving for nuTilda, Initial residual = 0.06372560268658137, Final residual = 0.003963707570900716, No Iterations 3
ExecutionTime = 138.74 s  ClockTime = 140 s

Time = 8

velocityDampingConstraint velocityDamping damped 966 (0.01%) of cells, with max limit 300
smoothSolver:  Solving for Ux, Initial residual = 0.1228743848155595, Final residual = 0.009602563702092752, No Iterations 4
smoothSolver:  Solving for Uy, Initial residual = 0.1780007860456129, Final residual = 0.01594736430780681, No Iterations 4
smoothSolver:  Solving for Uz, Initial residual = 0.1686974151885919, Final residual = 0.01488852854840355, No Iterations 4
[OGL LOG][Proc: 0]: global_index_init: 0.018 [ms]
[OGL LOG][Proc: 0]p_local_coeffs: call_update: 0 [ms]
[OGL LOG][Proc: 0]p_non_local_coeffs: call_update: 0 [ms]
[OGL LOG][Proc: 0]p: update_local_matrix_data: 69.874 [ms]
[OGL LOG][Proc: 0]p: update_non_local_matrix_data: 0.32 [ms]
[OGL LOG][Proc: 0]p_matrix: call_update: 3.228 [ms]
[OGL LOG][Proc: 0]p_rhs: call_update: 1.874 [ms]
[OGL LOG][Preconditioner.H:346] Generate preconditioner Multigrid MaxLevels 9 MinCoarseRows 10 ZeroGuess 1 Cycle v
[OGL LOG][Proc: 0]p: init_precond: 441.625 [ms]
[OGL LOG][StoppingCriterion.H:239] Creating stopping criterion with minIter 44 frequency 1
[OGL LOG][Proc: 0]p: generate_solver: 0.008999999999999999 [ms]
[OGL LOG][Proc: 0]p: solve: 1105.419 [ms]
[OGL LOG][Proc: 0]p: copy_x_back: 4.888 [ms]
[OGL LOG][lduLduBase.H:330] 
Statistics:
	Time per iteration: 12705 [mu s]
	Time per residual norm calculation: 1281.000000 [mu s]
	Time per iteration and DOF: 1.007192 [ns]
	Retrieve results bandwidth 2.583000 [GByte/s]
[OGL LOG][Proc: 0]p: solve_multi_gpu: 1588.819 [ms]
MultigridcudaGKOCG:  Solving for p, Initial residual = 0.2709127482567046, Final residual = 0.002592757066857838, No Iterations 87
time step continuity errors : sum local = 0.01861696282477441, global = 0.0001519111319740961, cumulative = 0.0101311940357114
smoothSolver:  Solving for nuTilda, Initial residual = 0.04900636288483428, Final residual = 0.003794876188338788, No Iterations 3
ExecutionTime = 147.45 s  ClockTime = 149 s

Time = 9

velocityDampingConstraint velocityDamping damped 38 (0%) of cells, with max limit 300
smoothSolver:  Solving for Ux, Initial residual = 0.07024895400275194, Final residual = 0.005847586075968276, No Iterations 4
smoothSolver:  Solving for Uy, Initial residual = 0.108614540126889, Final residual = 0.01023800483220283, No Iterations 4
smoothSolver:  Solving for Uz, Initial residual = 0.1014299313267075, Final residual = 0.009172527839202421, No Iterations 4
[OGL LOG][Proc: 0]: global_index_init: 0.21 [ms]
[OGL LOG][Proc: 0]p_local_coeffs: call_update: 0 [ms]
[OGL LOG][Proc: 0]p_non_local_coeffs: call_update: 0 [ms]
[OGL LOG][Proc: 0]p: update_local_matrix_data: 67.295 [ms]
[OGL LOG][Proc: 0]p: update_non_local_matrix_data: 0.358 [ms]
[OGL LOG][Proc: 0]p_matrix: call_update: 2.658 [ms]
[OGL LOG][Proc: 0]p_rhs: call_update: 2.542 [ms]
[OGL LOG][Preconditioner.H:346] Generate preconditioner Multigrid MaxLevels 9 MinCoarseRows 10 ZeroGuess 1 Cycle v
[OGL LOG][Proc: 0]p: init_precond: 484.391 [ms]
[OGL LOG][StoppingCriterion.H:239] Creating stopping criterion with minIter 52 frequency 1
[OGL LOG][Proc: 0]p: generate_solver: 0.013 [ms]
[OGL LOG][Proc: 0]p: solve: 723.827 [ms]
[OGL LOG][Proc: 0]p: copy_x_back: 4.53 [ms]
[OGL LOG][lduLduBase.H:330] 
Statistics:
	Time per iteration: 12268 [mu s]
	Time per residual norm calculation: 1278.000000 [mu s]
	Time per iteration and DOF: 0.972549 [ns]
	Retrieve results bandwidth 2.788000 [GByte/s]
[OGL LOG][Proc: 0]p: solve_multi_gpu: 1251.037 [ms]
MultigridcudaGKOCG:  Solving for p, Initial residual = 0.318515431713128, Final residual = 0.002957385023274541, No Iterations 59
time step continuity errors : sum local = 0.01917513889660084, global = 0.003620325059203733, cumulative = 0.01375151909491513
smoothSolver:  Solving for nuTilda, Initial residual = 0.04225182033527953, Final residual = 0.003173751382184074, No Iterations 3
ExecutionTime = 155.76 s  ClockTime = 157 s

Time = 10

velocityDampingConstraint velocityDamping damped 63 (0%) of cells, with max limit 300
smoothSolver:  Solving for Ux, Initial residual = 0.02837594878171561, Final residual = 0.002047853225208768, No Iterations 4
smoothSolver:  Solving for Uy, Initial residual = 0.0597620396325987, Final residual = 0.004450675015385856, No Iterations 4
smoothSolver:  Solving for Uz, Initial residual = 0.05815897328157141, Final residual = 0.004464513981976795, No Iterations 4
[OGL LOG][Proc: 0]: global_index_init: 0.132 [ms]
[OGL LOG][Proc: 0]p_local_coeffs: call_update: 0 [ms]
[OGL LOG][Proc: 0]p_non_local_coeffs: call_update: 0 [ms]
[OGL LOG][Proc: 0]p: update_local_matrix_data: 71.608 [ms]
[OGL LOG][Proc: 0]p: update_non_local_matrix_data: 0.381 [ms]
[OGL LOG][Proc: 0]p_matrix: call_update: 3.364 [ms]
[OGL LOG][Proc: 0]p_rhs: call_update: 1.65 [ms]
[OGL LOG][Preconditioner.H:346] Generate preconditioner Multigrid MaxLevels 9 MinCoarseRows 10 ZeroGuess 1 Cycle v
[OGL LOG][Proc: 0]p: init_precond: 430.351 [ms]
[OGL LOG][StoppingCriterion.H:239] Creating stopping criterion with minIter 35 frequency 1
[OGL LOG][Proc: 0]p: generate_solver: 0.008999999999999999 [ms]
[OGL LOG][Proc: 0]p: solve: 553.579 [ms]
[OGL LOG][Proc: 0]p: copy_x_back: 5.004 [ms]
[OGL LOG][lduLduBase.H:330] 
Statistics:
	Time per iteration: 13839 [mu s]
	Time per residual norm calculation: 1282.000000 [mu s]
	Time per iteration and DOF: 1.097091 [ns]
	Retrieve results bandwidth 2.523000 [GByte/s]
[OGL LOG][Proc: 0]p: solve_multi_gpu: 1023.874 [ms]
MultigridcudaGKOCG:  Solving for p, Initial residual = 0.3616538605412783, Final residual = 0.003378873918574859, No Iterations 40
time step continuity errors : sum local = 0.0164087474540811, global = -3.404087312383974e-06, cumulative = 0.01374811500760274
smoothSolver:  Solving for nuTilda, Initial residual = 0.03547377407057797, Final residual = 0.002970337440369741, No Iterations 3
ExecutionTime = 163.92 s  ClockTime = 165 s

Time = 11

velocityDampingConstraint velocityDamping damped 321 (0%) of cells, with max limit 300
smoothSolver:  Solving for Ux, Initial residual = 0.04044296668020039, Final residual = 0.003163119437524692, No Iterations 4
smoothSolver:  Solving for Uy, Initial residual = 0.1039511336213266, Final residual = 0.009097266299840787, No Iterations 4
smoothSolver:  Solving for Uz, Initial residual = 0.09601757400556182, Final residual = 0.008354901719345626, No Iterations 4
[OGL LOG][Proc: 0]: global_index_init: 0.016 [ms]
[OGL LOG][Proc: 0]p_local_coeffs: call_update: 0 [ms]
[OGL LOG][Proc: 0]p_non_local_coeffs: call_update: 0 [ms]
[OGL LOG][Proc: 0]p: update_local_matrix_data: 62.571 [ms]
[OGL LOG][Proc: 0]p: update_non_local_matrix_data: 0.36 [ms]
[OGL LOG][Proc: 0]p_matrix: call_update: 2.82 [ms]
[OGL LOG][Proc: 0]p_rhs: call_update: 2.196 [ms]
[OGL LOG][Preconditioner.H:346] Generate preconditioner Multigrid MaxLevels 9 MinCoarseRows 10 ZeroGuess 1 Cycle v
[OGL LOG][Proc: 0]p: init_precond: 432.915 [ms]
[OGL LOG][StoppingCriterion.H:239] Creating stopping criterion with minIter 24 frequency 1
[OGL LOG][Proc: 0]p: generate_solver: 0.008 [ms]
[OGL LOG][Proc: 0]p: solve: 1118.071 [ms]
[OGL LOG][Proc: 0]p: copy_x_back: 4.894 [ms]
[OGL LOG][lduLduBase.H:330] 
Statistics:
	Time per iteration: 13153 [mu s]
	Time per residual norm calculation: 985.000000 [mu s]
	Time per iteration and DOF: 1.042708 [ns]
	Retrieve results bandwidth 2.580000 [GByte/s]
[OGL LOG][Proc: 0]p: solve_multi_gpu: 1602.187 [ms]
MultigridcudaGKOCG:  Solving for p, Initial residual = 0.395648363922057, Final residual = 0.003727532834660363, No Iterations 85
time step continuity errors : sum local = 0.01581765266241179, global = -0.0001917621973002842, cumulative = 0.01355635281030246
smoothSolver:  Solving for nuTilda, Initial residual = 0.03219824268280365, Final residual = 0.002581977924632387, No Iterations 3
ExecutionTime = 172.63 s  ClockTime = 174 s

Time = 12

velocityDampingConstraint velocityDamping damped 20 (0%) of cells, with max limit 300
smoothSolver:  Solving for Ux, Initial residual = 0.03866707545551584, Final residual = 0.003348683563379618, No Iterations 4
smoothSolver:  Solving for Uy, Initial residual = 0.08049433933226019, Final residual = 0.007146340288847452, No Iterations 4
smoothSolver:  Solving for Uz, Initial residual = 0.07820719958412711, Final residual = 0.006662667922660395, No Iterations 4
[OGL LOG][Proc: 0]: global_index_init: 0.015 [ms]
[OGL LOG][Proc: 0]p_local_coeffs: call_update: 0 [ms]
[OGL LOG][Proc: 0]p_non_local_coeffs: call_update: 0 [ms]
[OGL LOG][Proc: 0]p: update_local_matrix_data: 68.789 [ms]
[OGL LOG][Proc: 0]p: update_non_local_matrix_data: 0.318 [ms]
[OGL LOG][Proc: 0]p_matrix: call_update: 2.818 [ms]
[OGL LOG][Proc: 0]p_rhs: call_update: 2.341 [ms]
[OGL LOG][Preconditioner.H:346] Generate preconditioner Multigrid MaxLevels 9 MinCoarseRows 10 ZeroGuess 1 Cycle v
[OGL LOG][Proc: 0]p: init_precond: 413.127 [ms]
[OGL LOG][StoppingCriterion.H:239] Creating stopping criterion with minIter 51 frequency 1
[OGL LOG][Proc: 0]p: generate_solver: 0.008999999999999999 [ms]
[OGL LOG][Proc: 0]p: solve: 1067.043 [ms]
[OGL LOG][Proc: 0]p: copy_x_back: 4.794 [ms]
[OGL LOG][lduLduBase.H:330] 
Statistics:
	Time per iteration: 12855 [mu s]
	Time per residual norm calculation: 1286.000000 [mu s]
	Time per iteration and DOF: 1.019084 [ns]
	Retrieve results bandwidth 2.634000 [GByte/s]
[OGL LOG][Proc: 0]p: solve_multi_gpu: 1520.673 [ms]
MultigridcudaGKOCG:  Solving for p, Initial residual = 0.3975066341711465, Final residual = 0.003907195363005941, No Iterations 83
time step continuity errors : sum local = 0.01459734431864033, global = -0.0003824067695831035, cumulative = 0.01317394604071936
smoothSolver:  Solving for nuTilda, Initial residual = 0.02866740258944004, Final residual = 0.002524507819298179, No Iterations 3
ExecutionTime = 181.32 s  ClockTime = 183 s

Time = 13

velocityDampingConstraint velocityDamping damped 17 (0%) of cells, with max limit 300
smoothSolver:  Solving for Ux, Initial residual = 0.02936322794075129, Final residual = 0.002359338015864337, No Iterations 4
smoothSolver:  Solving for Uy, Initial residual = 0.05883240937292405, Final residual = 0.004750823135825986, No Iterations 4
smoothSolver:  Solving for Uz, Initial residual = 0.05901766384986077, Final residual = 0.004580771596644272, No Iterations 4
[OGL LOG][Proc: 0]: global_index_init: 0.853 [ms]
[OGL LOG][Proc: 0]p_local_coeffs: call_update: 0 [ms]
[OGL LOG][Proc: 0]p_non_local_coeffs: call_update: 0 [ms]
[OGL LOG][Proc: 0]p: update_local_matrix_data: 72.685 [ms]
[OGL LOG][Proc: 0]p: update_non_local_matrix_data: 0.372 [ms]
[OGL LOG][Proc: 0]p_matrix: call_update: 2.909 [ms]
[OGL LOG][Proc: 0]p_rhs: call_update: 2.102 [ms]
[OGL LOG][Preconditioner.H:346] Generate preconditioner Multigrid MaxLevels 9 MinCoarseRows 10 ZeroGuess 1 Cycle v
[OGL LOG][Proc: 0]p: init_precond: 436.018 [ms]
[OGL LOG][StoppingCriterion.H:239] Creating stopping criterion with minIter 49 frequency 1
[OGL LOG][Proc: 0]p: generate_solver: 0.008999999999999999 [ms]
[OGL LOG][Proc: 0]p: solve: 972.217 [ms]
[OGL LOG][Proc: 0]p: copy_x_back: 4.829 [ms]
[OGL LOG][lduLduBase.H:330] 
Statistics:
	Time per iteration: 12792 [mu s]
	Time per residual norm calculation: 1287.000000 [mu s]
	Time per iteration and DOF: 1.014089 [ns]
	Retrieve results bandwidth 2.615000 [GByte/s]
[OGL LOG][Proc: 0]p: solve_multi_gpu: 1446.821 [ms]
MultigridcudaGKOCG:  Solving for p, Initial residual = 0.4686176621953814, Final residual = 0.00427569859017916, No Iterations 76
time step continuity errors : sum local = 0.01244046293512114, global = 0.0005602154213304188, cumulative = 0.01373416146204978
smoothSolver:  Solving for nuTilda, Initial residual = 0.02776082381124898, Final residual = 0.002340323029031079, No Iterations 3
ExecutionTime = 189.99 s  ClockTime = 191 s

Time = 14

velocityDampingConstraint velocityDamping damped 67 (0%) of cells, with max limit 300
smoothSolver:  Solving for Ux, Initial residual = 0.0357210058901665, Final residual = 0.002905123328284377, No Iterations 4
smoothSolver:  Solving for Uy, Initial residual = 0.06925341083063105, Final residual = 0.006220775279893957, No Iterations 4
smoothSolver:  Solving for Uz, Initial residual = 0.06561986834290938, Final residual = 0.005768322640053875, No Iterations 4
[OGL LOG][Proc: 0]: global_index_init: 0.101 [ms]
[OGL LOG][Proc: 0]p_local_coeffs: call_update: 0 [ms]
[OGL LOG][Proc: 0]p_non_local_coeffs: call_update: 0 [ms]
[OGL LOG][Proc: 0]p: update_local_matrix_data: 72.593 [ms]
[OGL LOG][Proc: 0]p: update_non_local_matrix_data: 0.33 [ms]
[OGL LOG][Proc: 0]p_matrix: call_update: 3.238 [ms]
[OGL LOG][Proc: 0]p_rhs: call_update: 1.753 [ms]
[OGL LOG][Preconditioner.H:346] Generate preconditioner Multigrid MaxLevels 9 MinCoarseRows 10 ZeroGuess 1 Cycle v
[OGL LOG][Proc: 0]p: init_precond: 434.991 [ms]
[OGL LOG][StoppingCriterion.H:239] Creating stopping criterion with minIter 45 frequency 1
[OGL LOG][Proc: 0]p: generate_solver: 0.008999999999999999 [ms]
[OGL LOG][Proc: 0]p: solve: 1060.928 [ms]
[OGL LOG][Proc: 0]p: copy_x_back: 4.85 [ms]
[OGL LOG][lduLduBase.H:330] 
Statistics:
	Time per iteration: 12630 [mu s]
	Time per residual norm calculation: 1280.000000 [mu s]
	Time per iteration and DOF: 1.001247 [ns]
	Retrieve results bandwidth 2.604000 [GByte/s]
[OGL LOG][Proc: 0]p: solve_multi_gpu: 1535.173 [ms]
MultigridcudaGKOCG:  Solving for p, Initial residual = 0.3177586674539764, Final residual = 0.002976018075786661, No Iterations 84
time step continuity errors : sum local = 0.01034538908395704, global = 0.0001536120567102301, cumulative = 0.01388777351876001
smoothSolver:  Solving for nuTilda, Initial residual = 0.02581319817171227, Final residual = 0.002363450945415357, No Iterations 3
ExecutionTime = 198.67 s  ClockTime = 200 s

Time = 15

velocityDampingConstraint velocityDamping damped 10 (0%) of cells, with max limit 300
smoothSolver:  Solving for Ux, Initial residual = 0.02679578091107439, Final residual = 0.002228283340727338, No Iterations 4
smoothSolver:  Solving for Uy, Initial residual = 0.04735694493614216, Final residual = 0.004164245702996485, No Iterations 4
smoothSolver:  Solving for Uz, Initial residual = 0.04560222269678138, Final residual = 0.003877345347161078, No Iterations 4
[OGL LOG][Proc: 0]: global_index_init: 0.022 [ms]
[OGL LOG][Proc: 0]p_local_coeffs: call_update: 0 [ms]
[OGL LOG][Proc: 0]p_non_local_coeffs: call_update: 0 [ms]
[OGL LOG][Proc: 0]p: update_local_matrix_data: 69.41 [ms]
[OGL LOG][Proc: 0]p: update_non_local_matrix_data: 0.332 [ms]
[OGL LOG][Proc: 0]p_matrix: call_update: 2.758 [ms]
[OGL LOG][Proc: 0]p_rhs: call_update: 2.283 [ms]
[OGL LOG][Preconditioner.H:346] Generate preconditioner Multigrid MaxLevels 9 MinCoarseRows 10 ZeroGuess 1 Cycle v
[OGL LOG][Proc: 0]p: init_precond: 461.714 [ms]
[OGL LOG][StoppingCriterion.H:239] Creating stopping criterion with minIter 50 frequency 1
[OGL LOG][Proc: 0]p: generate_solver: 0.008999999999999999 [ms]
[OGL LOG][Proc: 0]p: solve: 649.8819999999999 [ms]
[OGL LOG][Proc: 0]p: copy_x_back: 4.916 [ms]
[OGL LOG][lduLduBase.H:330] 
Statistics:
	Time per iteration: 12261 [mu s]
	Time per residual norm calculation: 1271.000000 [mu s]
	Time per iteration and DOF: 0.971994 [ns]
	Retrieve results bandwidth 2.569000 [GByte/s]
[OGL LOG][Proc: 0]p: solve_multi_gpu: 1153.202 [ms]
MultigridcudaGKOCG:  Solving for p, Initial residual = 0.2867396656071801, Final residual = 0.002620941921951448, No Iterations 53
time step continuity errors : sum local = 0.008959875418793908, global = 0.001211100493702695, cumulative = 0.0150988740124627
smoothSolver:  Solving for nuTilda, Initial residual = 0.02575966452748175, Final residual = 0.002208882905669963, No Iterations 3
ExecutionTime = 206.96 s  ClockTime = 208 s

Time = 16

velocityDampingConstraint velocityDamping damped 2 (0%) of cells, with max limit 300
smoothSolver:  Solving for Ux, Initial residual = 0.01731309518708338, Final residual = 0.001319420093836465, No Iterations 4
smoothSolver:  Solving for Uy, Initial residual = 0.03740164742652515, Final residual = 0.00284346075870715, No Iterations 4
smoothSolver:  Solving for Uz, Initial residual = 0.04172579226678449, Final residual = 0.003278081820615131, No Iterations 4
[OGL LOG][Proc: 0]: global_index_init: 0.221 [ms]
[OGL LOG][Proc: 0]p_local_coeffs: call_update: 0 [ms]
[OGL LOG][Proc: 0]p_non_local_coeffs: call_update: 0 [ms]
[OGL LOG][Proc: 0]p: update_local_matrix_data: 72.489 [ms]
[OGL LOG][Proc: 0]p: update_non_local_matrix_data: 0.348 [ms]
[OGL LOG][Proc: 0]p_matrix: call_update: 3.395 [ms]
[OGL LOG][Proc: 0]p_rhs: call_update: 3.796 [ms]
[OGL LOG][Preconditioner.H:346] Generate preconditioner Multigrid MaxLevels 9 MinCoarseRows 10 ZeroGuess 1 Cycle v
[OGL LOG][Proc: 0]p: init_precond: 439.555 [ms]
[OGL LOG][StoppingCriterion.H:239] Creating stopping criterion with minIter 31 frequency 1
[OGL LOG][Proc: 0]p: generate_solver: 0.008 [ms]
[OGL LOG][Proc: 0]p: solve: 440.926 [ms]
[OGL LOG][Proc: 0]p: copy_x_back: 4.845 [ms]
[OGL LOG][lduLduBase.H:330] 
Statistics:
	Time per iteration: 13361 [mu s]
	Time per residual norm calculation: 1277.000000 [mu s]
	Time per iteration and DOF: 1.059197 [ns]
	Retrieve results bandwidth 2.606000 [GByte/s]
[OGL LOG][Proc: 0]p: solve_multi_gpu: 922.41 [ms]
MultigridcudaGKOCG:  Solving for p, Initial residual = 0.4796702789831694, Final residual = 0.004753933873767148, No Iterations 33
time step continuity errors : sum local = 0.00980730578131498, global = -0.0002155556642789392, cumulative = 0.01488331834818376
smoothSolver:  Solving for nuTilda, Initial residual = 0.02365853207239765, Final residual = 0.002229823467895048, No Iterations 3
ExecutionTime = 214.99 s  ClockTime = 216 s

Time = 17

velocityDampingConstraint velocityDamping damped 3 (0%) of cells, with max limit 300
smoothSolver:  Solving for Ux, Initial residual = 0.01601198464998036, Final residual = 0.001151894494866051, No Iterations 4
smoothSolver:  Solving for Uy, Initial residual = 0.04319915507841498, Final residual = 0.003581257311850476, No Iterations 4
smoothSolver:  Solving for Uz, Initial residual = 0.04497957153162798, Final residual = 0.003777653552719522, No Iterations 4
[OGL LOG][Proc: 0]: global_index_init: 0.017 [ms]
[OGL LOG][Proc: 0]p_local_coeffs: call_update: 0 [ms]
[OGL LOG][Proc: 0]p_non_local_coeffs: call_update: 0 [ms]
[OGL LOG][Proc: 0]p: update_local_matrix_data: 69.44499999999999 [ms]
[OGL LOG][Proc: 0]p: update_non_local_matrix_data: 0.395 [ms]
[OGL LOG][Proc: 0]p_matrix: call_update: 3.284 [ms]
[OGL LOG][Proc: 0]p_rhs: call_update: 1.954 [ms]
[OGL LOG][Preconditioner.H:346] Generate preconditioner Multigrid MaxLevels 9 MinCoarseRows 10 ZeroGuess 1 Cycle v
[OGL LOG][Proc: 0]p: init_precond: 435.359 [ms]
[OGL LOG][StoppingCriterion.H:239] Creating stopping criterion with minIter 19 frequency 1
[OGL LOG][Proc: 0]p: generate_solver: 0.008999999999999999 [ms]
[OGL LOG][Proc: 0]p: solve: 1072.697 [ms]
[OGL LOG][Proc: 0]p: copy_x_back: 4.775 [ms]
[OGL LOG][lduLduBase.H:330] 
Statistics:
	Time per iteration: 12924 [mu s]
	Time per residual norm calculation: 1283.000000 [mu s]
	Time per iteration and DOF: 1.024554 [ns]
	Retrieve results bandwidth 2.644000 [GByte/s]
[OGL LOG][Proc: 0]p: solve_multi_gpu: 1549.457 [ms]
MultigridcudaGKOCG:  Solving for p, Initial residual = 0.4126621194949905, Final residual = 0.003588617660601312, No Iterations 83
time step continuity errors : sum local = 0.007571949107155774, global = -9.866163872604968e-05, cumulative = 0.01478465670945771
smoothSolver:  Solving for nuTilda, Initial residual = 0.0247569739305069, Final residual = 0.002074703705705404, No Iterations 3
ExecutionTime = 223.59 s  ClockTime = 225 s

Time = 18

velocityDampingConstraint velocityDamping damped 25 (0%) of cells, with max limit 300
smoothSolver:  Solving for Ux, Initial residual = 0.01446277031303654, Final residual = 0.001186023379973131, No Iterations 4
smoothSolver:  Solving for Uy, Initial residual = 0.03591072930468765, Final residual = 0.002975505350158534, No Iterations 4
smoothSolver:  Solving for Uz, Initial residual = 0.03667254122500366, Final residual = 0.003008945317710257, No Iterations 4
[OGL LOG][Proc: 0]: global_index_init: 0.038 [ms]
[OGL LOG][Proc: 0]p_local_coeffs: call_update: 0 [ms]
[OGL LOG][Proc: 0]p_non_local_coeffs: call_update: 0 [ms]
[OGL LOG][Proc: 0]p: update_local_matrix_data: 70.15600000000001 [ms]
[OGL LOG][Proc: 0]p: update_non_local_matrix_data: 0.338 [ms]
[OGL LOG][Proc: 0]p_matrix: call_update: 2.66 [ms]
[OGL LOG][Proc: 0]p_rhs: call_update: 2.301 [ms]
[OGL LOG][Preconditioner.H:346] Generate preconditioner Multigrid MaxLevels 9 MinCoarseRows 10 ZeroGuess 1 Cycle v
[OGL LOG][Proc: 0]p: init_precond: 435.324 [ms]
[OGL LOG][StoppingCriterion.H:239] Creating stopping criterion with minIter 49 frequency 1
[OGL LOG][Proc: 0]p: generate_solver: 0.008999999999999999 [ms]
[OGL LOG][Proc: 0]p: solve: 663.6950000000001 [ms]
[OGL LOG][Proc: 0]p: copy_x_back: 4.963 [ms]
[OGL LOG][lduLduBase.H:330] 
Statistics:
	Time per iteration: 12522 [mu s]
	Time per residual norm calculation: 1279.000000 [mu s]
	Time per iteration and DOF: 0.992685 [ns]
	Retrieve results bandwidth 2.544000 [GByte/s]
[OGL LOG][Proc: 0]p: solve_multi_gpu: 1140.767 [ms]
MultigridcudaGKOCG:  Solving for p, Initial residual = 0.3752621528557849, Final residual = 0.003643016362079491, No Iterations 53
time step continuity errors : sum local = 0.007283855820113989, global = -0.001041983661602364, cumulative = 0.01374267304785535
smoothSolver:  Solving for nuTilda, Initial residual = 0.02207336560882846, Final residual = 0.002115026207236286, No Iterations 3
ExecutionTime = 231.77 s  ClockTime = 233 s

Time = 19

velocityDampingConstraint velocityDamping damped 1 (0%) of cells, with max limit 300
smoothSolver:  Solving for Ux, Initial residual = 0.01414942267872168, Final residual = 0.001254030617864668, No Iterations 4
smoothSolver:  Solving for Uy, Initial residual = 0.03486832419434232, Final residual = 0.002978061974644954, No Iterations 4
smoothSolver:  Solving for Uz, Initial residual = 0.03455223882204367, Final residual = 0.002886220858449539, No Iterations 4
[OGL LOG][Proc: 0]: global_index_init: 0.227 [ms]
[OGL LOG][Proc: 0]p_local_coeffs: call_update: 0 [ms]
[OGL LOG][Proc: 0]p_non_local_coeffs: call_update: 0 [ms]
[OGL LOG][Proc: 0]p: update_local_matrix_data: 79.09099999999999 [ms]
[OGL LOG][Proc: 0]p: update_non_local_matrix_data: 0.336 [ms]
[OGL LOG][Proc: 0]p_matrix: call_update: 3.873 [ms]
[OGL LOG][Proc: 0]p_rhs: call_update: 2.045 [ms]
[OGL LOG][Preconditioner.H:346] Generate preconditioner Multigrid MaxLevels 9 MinCoarseRows 10 ZeroGuess 1 Cycle v
[OGL LOG][Proc: 0]p: init_precond: 443.279 [ms]
[OGL LOG][StoppingCriterion.H:239] Creating stopping criterion with minIter 31 frequency 1
[OGL LOG][Proc: 0]p: generate_solver: 0.021 [ms]
[OGL LOG][Proc: 0]p: solve: 528.369 [ms]
[OGL LOG][Proc: 0]p: copy_x_back: 4.863 [ms]
[OGL LOG][lduLduBase.H:330] 
Statistics:
	Time per iteration: 12887 [mu s]
	Time per residual norm calculation: 1434.000000 [mu s]
	Time per iteration and DOF: 1.021621 [ns]
	Retrieve results bandwidth 2.597000 [GByte/s]
[OGL LOG][Proc: 0]p: solve_multi_gpu: 1012.48 [ms]
MultigridcudaGKOCG:  Solving for p, Initial residual = 0.3711650626990632, Final residual = 0.003680323299472897, No Iterations 41
time step continuity errors : sum local = 0.006853227476619031, global = 6.341903367709311e-05, cumulative = 0.01380609208153244
smoothSolver:  Solving for nuTilda, Initial residual = 0.02554155153878769, Final residual = 0.001974005132468118, No Iterations 3
ExecutionTime = 239.91 s  ClockTime = 241 s

Time = 20

velocityDampingConstraint velocityDamping damped 2 (0%) of cells, with max limit 300
smoothSolver:  Solving for Ux, Initial residual = 0.01480287152215183, Final residual = 0.001259861632255366, No Iterations 4
smoothSolver:  Solving for Uy, Initial residual = 0.03303444825956959, Final residual = 0.002976776981980025, No Iterations 4
smoothSolver:  Solving for Uz, Initial residual = 0.03197041355537742, Final residual = 0.002775284323412995, No Iterations 4
[OGL LOG][Proc: 0]: global_index_init: 0.016 [ms]
[OGL LOG][Proc: 0]p_local_coeffs: call_update: 0 [ms]
[OGL LOG][Proc: 0]p_non_local_coeffs: call_update: 0 [ms]
[OGL LOG][Proc: 0]p: update_local_matrix_data: 61.753 [ms]
[OGL LOG][Proc: 0]p: update_non_local_matrix_data: 0.362 [ms]
[OGL LOG][Proc: 0]p_matrix: call_update: 2.613 [ms]
[OGL LOG][Proc: 0]p_rhs: call_update: 5.376 [ms]
[OGL LOG][Preconditioner.H:346] Generate preconditioner Multigrid MaxLevels 9 MinCoarseRows 10 ZeroGuess 1 Cycle v
[OGL LOG][Proc: 0]p: init_precond: 434.243 [ms]
[OGL LOG][StoppingCriterion.H:239] Creating stopping criterion with minIter 24 frequency 1
[OGL LOG][Proc: 0]p: generate_solver: 0.008999999999999999 [ms]
[OGL LOG][Proc: 0]p: solve: 1065.73 [ms]
[OGL LOG][Proc: 0]p: copy_x_back: 4.632 [ms]
[OGL LOG][lduLduBase.H:330] 
Statistics:
	Time per iteration: 12996 [mu s]
	Time per residual norm calculation: 1280.000000 [mu s]
	Time per iteration and DOF: 1.030262 [ns]
	Retrieve results bandwidth 2.726000 [GByte/s]
[OGL LOG][Proc: 0]p: solve_multi_gpu: 1551.859 [ms]
MultigridcudaGKOCG:  Solving for p, Initial residual = 0.4033160087955077, Final residual = 0.003846099068483005, No Iterations 82
time step continuity errors : sum local = 0.005699128971185418, global = 8.108129538075815e-05, cumulative = 0.0138871733769132
smoothSolver:  Solving for nuTilda, Initial residual = 0.02100750552437061, Final residual = 0.002051461621636608, No Iterations 3
ExecutionTime = 248.54 s  ClockTime = 250 s

Time = 21

velocityDampingConstraint velocityDamping damped 16 (0%) of cells, with max limit 300
smoothSolver:  Solving for Ux, Initial residual = 0.01190855581140889, Final residual = 0.001011918499698894, No Iterations 4
smoothSolver:  Solving for Uy, Initial residual = 0.02534805649543328, Final residual = 0.002236201929052892, No Iterations 4
smoothSolver:  Solving for Uz, Initial residual = 0.02620496442092584, Final residual = 0.002186481401277077, No Iterations 4
[OGL LOG][Proc: 0]: global_index_init: 0.12 [ms]
[OGL LOG][Proc: 0]p_local_coeffs: call_update: 0 [ms]
[OGL LOG][Proc: 0]p_non_local_coeffs: call_update: 0 [ms]
[OGL LOG][Proc: 0]p: update_local_matrix_data: 71.98999999999999 [ms]
[OGL LOG][Proc: 0]p: update_non_local_matrix_data: 0.373 [ms]
[OGL LOG][Proc: 0]p_matrix: call_update: 3.372 [ms]
[OGL LOG][Proc: 0]p_rhs: call_update: 1.687 [ms]
[OGL LOG][Preconditioner.H:346] Generate preconditioner Multigrid MaxLevels 9 MinCoarseRows 10 ZeroGuess 1 Cycle v
[OGL LOG][Proc: 0]p: init_precond: 438.074 [ms]
[OGL LOG][StoppingCriterion.H:239] Creating stopping criterion with minIter 49 frequency 1
[OGL LOG][Proc: 0]p: generate_solver: 0.008999999999999999 [ms]
[OGL LOG][Proc: 0]p: solve: 954.538 [ms]
[OGL LOG][Proc: 0]p: copy_x_back: 5.666 [ms]
[OGL LOG][lduLduBase.H:330] 
Statistics:
	Time per iteration: 12237 [mu s]
	Time per residual norm calculation: 1283.000000 [mu s]
	Time per iteration and DOF: 0.970092 [ns]
	Retrieve results bandwidth 2.229000 [GByte/s]
[OGL LOG][Proc: 0]p: solve_multi_gpu: 1433.055 [ms]
MultigridcudaGKOCG:  Solving for p, Initial residual = 0.2800703127035737, Final residual = 0.002678469935680366, No Iterations 78
time step continuity errors : sum local = 0.004774000022600956, global = 0.0002168375510521112, cumulative = 0.01410401092796531
smoothSolver:  Solving for nuTilda, Initial residual = 0.02882580671643669, Final residual = 0.001903013035770866, No Iterations 3
ExecutionTime = 257.06 s  ClockTime = 259 s

Time = 22

velocityDampingConstraint velocityDamping damped 3 (0%) of cells, with max limit 300
smoothSolver:  Solving for Ux, Initial residual = 0.009614853528497462, Final residual = 0.0008047413212972859, No Iterations 4
smoothSolver:  Solving for Uy, Initial residual = 0.02401333553488723, Final residual = 0.00197015001088675, No Iterations 4
smoothSolver:  Solving for Uz, Initial residual = 0.02663322450841437, Final residual = 0.002182937434234317, No Iterations 4
[OGL LOG][Proc: 0]: global_index_init: 0.017 [ms]
[OGL LOG][Proc: 0]p_local_coeffs: call_update: 0 [ms]
[OGL LOG][Proc: 0]p_non_local_coeffs: call_update: 0 [ms]
[OGL LOG][Proc: 0]p: update_local_matrix_data: 70.682 [ms]
[OGL LOG][Proc: 0]p: update_non_local_matrix_data: 0.325 [ms]
[OGL LOG][Proc: 0]p_matrix: call_update: 3.253 [ms]
[OGL LOG][Proc: 0]p_rhs: call_update: 1.745 [ms]
[OGL LOG][Preconditioner.H:346] Generate preconditioner Multigrid MaxLevels 9 MinCoarseRows 10 ZeroGuess 1 Cycle v
[OGL LOG][Proc: 0]p: init_precond: 439.485 [ms]
[OGL LOG][StoppingCriterion.H:239] Creating stopping criterion with minIter 46 frequency 1
[OGL LOG][Proc: 0]p: generate_solver: 0.008999999999999999 [ms]
[OGL LOG][Proc: 0]p: solve: 951.053 [ms]
[OGL LOG][Proc: 0]p: copy_x_back: 4.819 [ms]
[OGL LOG][lduLduBase.H:330] 
Statistics:
	Time per iteration: 12680 [mu s]
	Time per residual norm calculation: 1278.000000 [mu s]
	Time per iteration and DOF: 1.005211 [ns]
	Retrieve results bandwidth 2.620000 [GByte/s]
[OGL LOG][Proc: 0]p: solve_multi_gpu: 1431.633 [ms]
MultigridcudaGKOCG:  Solving for p, Initial residual = 0.274023803135549, Final residual = 0.002637763378854182, No Iterations 75
time step continuity errors : sum local = 0.004531129319341389, global = -0.0001900608397395068, cumulative = 0.0139139500882258
smoothSolver:  Solving for nuTilda, Initial residual = 0.02000294928527947, Final residual = 0.001990332228492201, No Iterations 3
ExecutionTime = 265.54 s  ClockTime = 267 s

Time = 23

velocityDampingConstraint velocityDamping damped 0 (0%) of cells, with max limit 300
smoothSolver:  Solving for Ux, Initial residual = 0.008985835035108901, Final residual = 0.0007258233577804506, No Iterations 4
smoothSolver:  Solving for Uy, Initial residual = 0.02475069668708405, Final residual = 0.002092617580106798, No Iterations 4
smoothSolver:  Solving for Uz, Initial residual = 0.02600150060041505, Final residual = 0.002186753773703442, No Iterations 4
[OGL LOG][Proc: 0]: global_index_init: 0.016 [ms]
[OGL LOG][Proc: 0]p_local_coeffs: call_update: 0 [ms]
[OGL LOG][Proc: 0]p_non_local_coeffs: call_update: 0 [ms]
[OGL LOG][Proc: 0]p: update_local_matrix_data: 67.745 [ms]
[OGL LOG][Proc: 0]p: update_non_local_matrix_data: 0.372 [ms]
[OGL LOG][Proc: 0]p_matrix: call_update: 2.949 [ms]
[OGL LOG][Proc: 0]p_rhs: call_update: 4.116 [ms]
[OGL LOG][Preconditioner.H:346] Generate preconditioner Multigrid MaxLevels 9 MinCoarseRows 10 ZeroGuess 1 Cycle v
[OGL LOG][Proc: 0]p: init_precond: 429.853 [ms]
[OGL LOG][StoppingCriterion.H:239] Creating stopping criterion with minIter 45 frequency 1
[OGL LOG][Proc: 0]p: generate_solver: 0.008999999999999999 [ms]
[OGL LOG][Proc: 0]p: solve: 1022.49 [ms]
[OGL LOG][Proc: 0]p: copy_x_back: 4.915 [ms]
[OGL LOG][lduLduBase.H:330] 
Statistics:
	Time per iteration: 12781 [mu s]
	Time per residual norm calculation: 1280.000000 [mu s]
	Time per iteration and DOF: 1.013217 [ns]
	Retrieve results bandwidth 2.569000 [GByte/s]
[OGL LOG][Proc: 0]p: solve_multi_gpu: 1496.799 [ms]
MultigridcudaGKOCG:  Solving for p, Initial residual = 0.2949461552579115, Final residual = 0.002933507678787136, No Iterations 80
time step continuity errors : sum local = 0.00419736459123092, global = -8.915763238163846e-05, cumulative = 0.01382479245584417
smoothSolver:  Solving for nuTilda, Initial residual = 0.03176657352650711, Final residual = 0.001827614552375384, No Iterations 3
ExecutionTime = 274.14 s  ClockTime = 276 s

Time = 24

velocityDampingConstraint velocityDamping damped 0 (0%) of cells, with max limit 300
smoothSolver:  Solving for Ux, Initial residual = 0.008497599572410598, Final residual = 0.0007352647270052092, No Iterations 4
smoothSolver:  Solving for Uy, Initial residual = 0.02356050867871474, Final residual = 0.002043945238053054, No Iterations 4
smoothSolver:  Solving for Uz, Initial residual = 0.02383245415531154, Final residual = 0.002034388660313988, No Iterations 4
[OGL LOG][Proc: 0]: global_index_init: 0.224 [ms]
[OGL LOG][Proc: 0]p_local_coeffs: call_update: 0 [ms]
[OGL LOG][Proc: 0]p_non_local_coeffs: call_update: 0 [ms]
[OGL LOG][Proc: 0]p: update_local_matrix_data: 72.03 [ms]
[OGL LOG][Proc: 0]p: update_non_local_matrix_data: 0.31 [ms]
[OGL LOG][Proc: 0]p_matrix: call_update: 3.135 [ms]
[OGL LOG][Proc: 0]p_rhs: call_update: 3.586 [ms]
[OGL LOG][Preconditioner.H:346] Generate preconditioner Multigrid MaxLevels 9 MinCoarseRows 10 ZeroGuess 1 Cycle v
[OGL LOG][Proc: 0]p: init_precond: 431.457 [ms]
[OGL LOG][StoppingCriterion.H:239] Creating stopping criterion with minIter 48 frequency 1
[OGL LOG][Proc: 0]p: generate_solver: 0.008999999999999999 [ms]
[OGL LOG][Proc: 0]p: solve: 620.818 [ms]
[OGL LOG][Proc: 0]p: copy_x_back: 4.879 [ms]
[OGL LOG][lduLduBase.H:330] 
Statistics:
	Time per iteration: 12669 [mu s]
	Time per residual norm calculation: 1283.000000 [mu s]
	Time per iteration and DOF: 1.004339 [ns]
	Retrieve results bandwidth 2.588000 [GByte/s]
[OGL LOG][Proc: 0]p: solve_multi_gpu: 1091.689 [ms]
MultigridcudaGKOCG:  Solving for p, Initial residual = 0.3381911503402107, Final residual = 0.002648551200508853, No Iterations 49
time step continuity errors : sum local = 0.002879743684161729, global = -0.0003851197722351355, cumulative = 0.01343967268360903
smoothSolver:  Solving for nuTilda, Initial residual = 0.01877309407213467, Final residual = 0.001093015576120233, No Iterations 4
ExecutionTime = 282.38 s  ClockTime = 284 s

Time = 25

velocityDampingConstraint velocityDamping damped 0 (0%) of cells, with max limit 300
smoothSolver:  Solving for Ux, Initial residual = 0.008424156321790622, Final residual = 0.0007642608992018835, No Iterations 4
smoothSolver:  Solving for Uy, Initial residual = 0.02294307952198648, Final residual = 0.002055070941679673, No Iterations 4
smoothSolver:  Solving for Uz, Initial residual = 0.02306184456349487, Final residual = 0.002009980919153977, No Iterations 4
[OGL LOG][Proc: 0]: global_index_init: 0.016 [ms]
[OGL LOG][Proc: 0]p_local_coeffs: call_update: 0 [ms]
[OGL LOG][Proc: 0]p_non_local_coeffs: call_update: 0 [ms]
[OGL LOG][Proc: 0]p: update_local_matrix_data: 69.639 [ms]
[OGL LOG][Proc: 0]p: update_non_local_matrix_data: 0.334 [ms]
[OGL LOG][Proc: 0]p_matrix: call_update: 3.259 [ms]
[OGL LOG][Proc: 0]p_rhs: call_update: 1.906 [ms]
[OGL LOG][Preconditioner.H:346] Generate preconditioner Multigrid MaxLevels 9 MinCoarseRows 10 ZeroGuess 1 Cycle v
[OGL LOG][Proc: 0]p: init_precond: 438.797 [ms]
[OGL LOG][StoppingCriterion.H:239] Creating stopping criterion with minIter 29 frequency 1
[OGL LOG][Proc: 0]p: generate_solver: 0.01 [ms]
[OGL LOG][Proc: 0]p: solve: 562.54 [ms]
[OGL LOG][Proc: 0]p: copy_x_back: 4.785 [ms]
[OGL LOG][lduLduBase.H:330] 
Statistics:
	Time per iteration: 13720 [mu s]
	Time per residual norm calculation: 1272.000000 [mu s]
	Time per iteration and DOF: 1.087657 [ns]
	Retrieve results bandwidth 2.639000 [GByte/s]
[OGL LOG][Proc: 0]p: solve_multi_gpu: 1041.982 [ms]
MultigridcudaGKOCG:  Solving for p, Initial residual = 0.2977863279265152, Final residual = 0.002576220441353671, No Iterations 41
time step continuity errors : sum local = 0.002864102678821985, global = 0.000153767557816069, cumulative = 0.0135934402414251
smoothSolver:  Solving for nuTilda, Initial residual = 0.03182711532511, Final residual = 0.001750582933823989, No Iterations 3
ExecutionTime = 290.5 s  ClockTime = 292 s

Time = 26

velocityDampingConstraint velocityDamping damped 0 (0%) of cells, with max limit 300
smoothSolver:  Solving for Ux, Initial residual = 0.008449570148009702, Final residual = 0.0007590918113391665, No Iterations 4
smoothSolver:  Solving for Uy, Initial residual = 0.02095785823569783, Final residual = 0.001916157483985962, No Iterations 4
smoothSolver:  Solving for Uz, Initial residual = 0.02096224590608522, Final residual = 0.001845406259110205, No Iterations 4
[OGL LOG][Proc: 0]: global_index_init: 0.108 [ms]
[OGL LOG][Proc: 0]p_local_coeffs: call_update: 0 [ms]
[OGL LOG][Proc: 0]p_non_local_coeffs: call_update: 0 [ms]
[OGL LOG][Proc: 0]p: update_local_matrix_data: 70.551 [ms]
[OGL LOG][Proc: 0]p: update_non_local_matrix_data: 0.326 [ms]
[OGL LOG][Proc: 0]p_matrix: call_update: 2.864 [ms]
[OGL LOG][Proc: 0]p_rhs: call_update: 2.462 [ms]
[OGL LOG][Preconditioner.H:346] Generate preconditioner Multigrid MaxLevels 9 MinCoarseRows 10 ZeroGuess 1 Cycle v
[OGL LOG][Proc: 0]p: init_precond: 432.387 [ms]
[OGL LOG][StoppingCriterion.H:239] Creating stopping criterion with minIter 24 frequency 1
[OGL LOG][Proc: 0]p: generate_solver: 0.008999999999999999 [ms]
[OGL LOG][Proc: 0]p: solve: 1069.002 [ms]
[OGL LOG][Proc: 0]p: copy_x_back: 4.786 [ms]
[OGL LOG][lduLduBase.H:330] 
Statistics:
	Time per iteration: 13362 [mu s]
	Time per residual norm calculation: 1275.000000 [mu s]
	Time per iteration and DOF: 1.059276 [ns]
	Retrieve results bandwidth 2.638000 [GByte/s]
[OGL LOG][Proc: 0]p: solve_multi_gpu: 1543.07 [ms]
MultigridcudaGKOCG:  Solving for p, Initial residual = 0.3106936515023161, Final residual = 0.002967061996519987, No Iterations 80
time step continuity errors : sum local = 0.002761454696836715, global = 5.497888978825943e-05, cumulative = 0.01364841913121336
smoothSolver:  Solving for nuTilda, Initial residual = 0.01741412398529246, Final residual = 0.001054549806406306, No Iterations 4
ExecutionTime = 299.13 s  ClockTime = 301 s

Time = 27

velocityDampingConstraint velocityDamping damped 0 (0%) of cells, with max limit 300
smoothSolver:  Solving for Ux, Initial residual = 0.007477876966476474, Final residual = 0.0006560186917348819, No Iterations 4
smoothSolver:  Solving for Uy, Initial residual = 0.0188364873025691, Final residual = 0.001720610709312307, No Iterations 4
smoothSolver:  Solving for Uz, Initial residual = 0.01928240519675044, Final residual = 0.001676511236866875, No Iterations 4
[OGL LOG][Proc: 0]: global_index_init: 0.022 [ms]
[OGL LOG][Proc: 0]p_local_coeffs: call_update: 0 [ms]
[OGL LOG][Proc: 0]p_non_local_coeffs: call_update: 0 [ms]
[OGL LOG][Proc: 0]p: update_local_matrix_data: 66.965 [ms]
[OGL LOG][Proc: 0]p: update_non_local_matrix_data: 0.361 [ms]
[OGL LOG][Proc: 0]p_matrix: call_update: 2.865 [ms]
[OGL LOG][Proc: 0]p_rhs: call_update: 2.792 [ms]
[OGL LOG][Preconditioner.H:346] Generate preconditioner Multigrid MaxLevels 9 MinCoarseRows 10 ZeroGuess 1 Cycle v
[OGL LOG][Proc: 0]p: init_precond: 432.602 [ms]
[OGL LOG][StoppingCriterion.H:239] Creating stopping criterion with minIter 48 frequency 1
[OGL LOG][Proc: 0]p: generate_solver: 0.008999999999999999 [ms]
[OGL LOG][Proc: 0]p: solve: 648.292 [ms]
[OGL LOG][Proc: 0]p: copy_x_back: 4.465 [ms]
[OGL LOG][lduLduBase.H:330] 
Statistics:
	Time per iteration: 13230 [mu s]
	Time per residual norm calculation: 1424.000000 [mu s]
	Time per iteration and DOF: 1.048812 [ns]
	Retrieve results bandwidth 2.828000 [GByte/s]
[OGL LOG][Proc: 0]p: solve_multi_gpu: 1126.94 [ms]
MultigridcudaGKOCG:  Solving for p, Initial residual = 0.2151550098272731, Final residual = 0.002149356753288599, No Iterations 49
time step continuity errors : sum local = 0.002561734423152223, global = 0.0002658558675390407, cumulative = 0.0139142749987524
smoothSolver:  Solving for nuTilda, Initial residual = 0.03070976844567925, Final residual = 0.001679919876753737, No Iterations 3
ExecutionTime = 307.32 s  ClockTime = 309 s

Time = 28

velocityDampingConstraint velocityDamping damped 0 (0%) of cells, with max limit 300
smoothSolver:  Solving for Ux, Initial residual = 0.006759140112311371, Final residual = 0.000587095819441967, No Iterations 4
smoothSolver:  Solving for Uy, Initial residual = 0.01872964889156795, Final residual = 0.001683076120545228, No Iterations 4
smoothSolver:  Solving for Uz, Initial residual = 0.01924865586977247, Final residual = 0.001677115820315064, No Iterations 4
[OGL LOG][Proc: 0]: global_index_init: 0.279 [ms]
[OGL LOG][Proc: 0]p_local_coeffs: call_update: 0 [ms]
[OGL LOG][Proc: 0]p_non_local_coeffs: call_update: 0 [ms]
[OGL LOG][Proc: 0]p: update_local_matrix_data: 72.992 [ms]
[OGL LOG][Proc: 0]p: update_non_local_matrix_data: 0.322 [ms]
[OGL LOG][Proc: 0]p_matrix: call_update: 3.045 [ms]
[OGL LOG][Proc: 0]p_rhs: call_update: 8.071 [ms]
[OGL LOG][Preconditioner.H:346] Generate preconditioner Multigrid MaxLevels 9 MinCoarseRows 10 ZeroGuess 1 Cycle v
[OGL LOG][Proc: 0]p: init_precond: 428.951 [ms]
[OGL LOG][StoppingCriterion.H:239] Creating stopping criterion with minIter 29 frequency 1
[OGL LOG][Proc: 0]p: generate_solver: 0.01 [ms]
[OGL LOG][Proc: 0]p: solve: 557.602 [ms]
[OGL LOG][Proc: 0]p: copy_x_back: 4.946 [ms]
[OGL LOG][lduLduBase.H:330] 
Statistics:
	Time per iteration: 14297 [mu s]
	Time per residual norm calculation: 1131.000000 [mu s]
	Time per iteration and DOF: 1.133399 [ns]
	Retrieve results bandwidth 2.553000 [GByte/s]
[OGL LOG][Proc: 0]p: solve_multi_gpu: 1032.216 [ms]
MultigridcudaGKOCG:  Solving for p, Initial residual = 0.2124231162302638, Final residual = 0.002051906842204616, No Iterations 39
time step continuity errors : sum local = 0.002254884864090558, global = -0.0001013548845134653, cumulative = 0.01381292011423894
smoothSolver:  Solving for nuTilda, Initial residual = 0.01608147978222912, Final residual = 0.00101138938644804, No Iterations 4
ExecutionTime = 315.46 s  ClockTime = 317 s

Time = 29

velocityDampingConstraint velocityDamping damped 0 (0%) of cells, with max limit 300
smoothSolver:  Solving for Ux, Initial residual = 0.006607209514000174, Final residual = 0.0005689588530474567, No Iterations 4
smoothSolver:  Solving for Uy, Initial residual = 0.01896105958320876, Final residual = 0.001707110548450637, No Iterations 4
smoothSolver:  Solving for Uz, Initial residual = 0.01922175345140939, Final residual = 0.001679144703275713, No Iterations 4
[OGL LOG][Proc: 0]: global_index_init: 0.016 [ms]
[OGL LOG][Proc: 0]p_local_coeffs: call_update: 0 [ms]
[OGL LOG][Proc: 0]p_non_local_coeffs: call_update: 0 [ms]
[OGL LOG][Proc: 0]p: update_local_matrix_data: 69.248 [ms]
[OGL LOG][Proc: 0]p: update_non_local_matrix_data: 0.35 [ms]
[OGL LOG][Proc: 0]p_matrix: call_update: 3.148 [ms]
[OGL LOG][Proc: 0]p_rhs: call_update: 1.952 [ms]
[OGL LOG][Preconditioner.H:346] Generate preconditioner Multigrid MaxLevels 9 MinCoarseRows 10 ZeroGuess 1 Cycle v
[OGL LOG][Proc: 0]p: init_precond: 442.865 [ms]
[OGL LOG][StoppingCriterion.H:239] Creating stopping criterion with minIter 23 frequency 1
[OGL LOG][Proc: 0]p: generate_solver: 0.008999999999999999 [ms]
[OGL LOG][Proc: 0]p: solve: 1019.752 [ms]
[OGL LOG][Proc: 0]p: copy_x_back: 4.973 [ms]
[OGL LOG][lduLduBase.H:330] 
Statistics:
	Time per iteration: 12908 [mu s]
	Time per residual norm calculation: 1275.000000 [mu s]
	Time per iteration and DOF: 1.023285 [ns]
	Retrieve results bandwidth 2.539000 [GByte/s]
[OGL LOG][Proc: 0]p: solve_multi_gpu: 1504.396 [ms]
MultigridcudaGKOCG:  Solving for p, Initial residual = 0.1869950625129512, Final residual = 0.001822145448296837, No Iterations 79
time step continuity errors : sum local = 0.002065502398490728, global = -4.059064414479052e-05, cumulative = 0.01377232947009415
smoothSolver:  Solving for nuTilda, Initial residual = 0.02863551961745841, Final residual = 0.001611035354438405, No Iterations 3
ExecutionTime = 323.97 s  ClockTime = 326 s

Time = 30

velocityDampingConstraint velocityDamping damped 0 (0%) of cells, with max limit 300
smoothSolver:  Solving for Ux, Initial residual = 0.006360643057794214, Final residual = 0.0005638028375852559, No Iterations 4
smoothSolver:  Solving for Uy, Initial residual = 0.01856585499858111, Final residual = 0.001689385578515332, No Iterations 4
smoothSolver:  Solving for Uz, Initial residual = 0.01872377913162687, Final residual = 0.001629256108405632, No Iterations 4
[OGL LOG][Proc: 0]: global_index_init: 0.321 [ms]
[OGL LOG][Proc: 0]p_local_coeffs: call_update: 0 [ms]
[OGL LOG][Proc: 0]p_non_local_coeffs: call_update: 0 [ms]
[OGL LOG][Proc: 0]p: update_local_matrix_data: 67.81699999999999 [ms]
[OGL LOG][Proc: 0]p: update_non_local_matrix_data: 0.32 [ms]
[OGL LOG][Proc: 0]p_matrix: call_update: 3.393 [ms]
[OGL LOG][Proc: 0]p_rhs: call_update: 1.618 [ms]
[OGL LOG][Preconditioner.H:346] Generate preconditioner Multigrid MaxLevels 9 MinCoarseRows 10 ZeroGuess 1 Cycle v
[OGL LOG][Proc: 0]p: init_precond: 429.073 [ms]
[OGL LOG][StoppingCriterion.H:239] Creating stopping criterion with minIter 47 frequency 1
[OGL LOG][Proc: 0]p: generate_solver: 0.013 [ms]
[OGL LOG][Proc: 0]p: solve: 815.6130000000001 [ms]
[OGL LOG][Proc: 0]p: copy_x_back: 5.128 [ms]
[OGL LOG][lduLduBase.H:330] 
Statistics:
	Time per iteration: 13155 [mu s]
	Time per residual norm calculation: 1278.000000 [mu s]
	Time per iteration and DOF: 1.042866 [ns]
	Retrieve results bandwidth 2.462000 [GByte/s]
[OGL LOG][Proc: 0]p: solve_multi_gpu: 1285.829 [ms]
MultigridcudaGKOCG:  Solving for p, Initial residual = 0.2241784145627134, Final residual = 0.001986612343830473, No Iterations 62
time step continuity errors : sum local = 0.00168433393191468, global = 8.41005881748295e-06, cumulative = 0.01378073952891163
smoothSolver:  Solving for nuTilda, Initial residual = 0.01490312122722821, Final residual = 0.0009676006597856589, No Iterations 4
ExecutionTime = 332.32 s  ClockTime = 334 s

Time = 31

velocityDampingConstraint velocityDamping damped 0 (0%) of cells, with max limit 300
smoothSolver:  Solving for Ux, Initial residual = 0.006350087570384379, Final residual = 0.0005644307126640188, No Iterations 4
smoothSolver:  Solving for Uy, Initial residual = 0.017840921604515, Final residual = 0.001636358460187281, No Iterations 4
smoothSolver:  Solving for Uz, Initial residual = 0.01799320949426132, Final residual = 0.001586296507769779, No Iterations 4
[OGL LOG][Proc: 0]: global_index_init: 0.256 [ms]
[OGL LOG][Proc: 0]p_local_coeffs: call_update: 0 [ms]
[OGL LOG][Proc: 0]p_non_local_coeffs: call_update: 0 [ms]
[OGL LOG][Proc: 0]p: update_local_matrix_data: 72.129 [ms]
[OGL LOG][Proc: 0]p: update_non_local_matrix_data: 0.331 [ms]
[OGL LOG][Proc: 0]p_matrix: call_update: 2.972 [ms]
[OGL LOG][Proc: 0]p_rhs: call_update: 2.089 [ms]
[OGL LOG][Preconditioner.H:346] Generate preconditioner Multigrid MaxLevels 9 MinCoarseRows 10 ZeroGuess 1 Cycle v
[OGL LOG][Proc: 0]p: init_precond: 432.314 [ms]
[OGL LOG][StoppingCriterion.H:239] Creating stopping criterion with minIter 37 frequency 1
[OGL LOG][Proc: 0]p: generate_solver: 0.008999999999999999 [ms]
[OGL LOG][Proc: 0]p: solve: 939.384 [ms]
[OGL LOG][Proc: 0]p: copy_x_back: 4.935 [ms]
[OGL LOG][lduLduBase.H:330] 
Statistics:
	Time per iteration: 12868 [mu s]
	Time per residual norm calculation: 1273.000000 [mu s]
	Time per iteration and DOF: 1.020114 [ns]
	Retrieve results bandwidth 2.559000 [GByte/s]
[OGL LOG][Proc: 0]p: solve_multi_gpu: 1411.191 [ms]
MultigridcudaGKOCG:  Solving for p, Initial residual = 0.2293430187677984, Final residual = 0.002128784930013285, No Iterations 73
time step continuity errors : sum local = 0.001612304684725049, global = 6.98184023743464e-05, cumulative = 0.01385055793128597
smoothSolver:  Solving for nuTilda, Initial residual = 0.02669053431989523, Final residual = 0.001547199355181797, No Iterations 3
ExecutionTime = 340.79 s  ClockTime = 342 s

Time = 32

velocityDampingConstraint velocityDamping damped 0 (0%) of cells, with max limit 300
smoothSolver:  Solving for Ux, Initial residual = 0.006204300772588924, Final residual = 0.0005474697854351252, No Iterations 4
smoothSolver:  Solving for Uy, Initial residual = 0.01685499427828379, Final residual = 0.001545098732420373, No Iterations 4
smoothSolver:  Solving for Uz, Initial residual = 0.01688352797779149, Final residual = 0.001516579948124849, No Iterations 4
[OGL LOG][Proc: 0]: global_index_init: 0.018 [ms]
[OGL LOG][Proc: 0]p_local_coeffs: call_update: 0 [ms]
[OGL LOG][Proc: 0]p_non_local_coeffs: call_update: 0 [ms]
[OGL LOG][Proc: 0]p: update_local_matrix_data: 68.18300000000001 [ms]
[OGL LOG][Proc: 0]p: update_non_local_matrix_data: 0.317 [ms]
[OGL LOG][Proc: 0]p_matrix: call_update: 3.007 [ms]
[OGL LOG][Proc: 0]p_rhs: call_update: 2.192 [ms]
[OGL LOG][Preconditioner.H:346] Generate preconditioner Multigrid MaxLevels 9 MinCoarseRows 10 ZeroGuess 1 Cycle v
[OGL LOG][Proc: 0]p: init_precond: 436.925 [ms]
[OGL LOG][StoppingCriterion.H:239] Creating stopping criterion with minIter 43 frequency 1
[OGL LOG][Proc: 0]p: generate_solver: 0.008 [ms]
[OGL LOG][Proc: 0]p: solve: 960.796 [ms]
[OGL LOG][Proc: 0]p: copy_x_back: 4.867 [ms]
[OGL LOG][lduLduBase.H:330] 
Statistics:
	Time per iteration: 12810 [mu s]
	Time per residual norm calculation: 1285.000000 [mu s]
	Time per iteration and DOF: 1.015516 [ns]
	Retrieve results bandwidth 2.594000 [GByte/s]
[OGL LOG][Proc: 0]p: solve_multi_gpu: 1440.345 [ms]
MultigridcudaGKOCG:  Solving for p, Initial residual = 0.1954124439093689, Final residual = 0.00190734028926134, No Iterations 75
time step continuity errors : sum local = 0.001557101943424064, global = 6.26582869784923e-05, cumulative = 0.01391321621826447
smoothSolver:  Solving for nuTilda, Initial residual = 0.01391790259075792, Final residual = 0.0009275927721749465, No Iterations 4
ExecutionTime = 349.33 s  ClockTime = 351 s

Time = 33

velocityDampingConstraint velocityDamping damped 0 (0%) of cells, with max limit 300
smoothSolver:  Solving for Ux, Initial residual = 0.005818213429951028, Final residual = 0.0005099642197210964, No Iterations 4
smoothSolver:  Solving for Uy, Initial residual = 0.01622504366371799, Final residual = 0.001484962163778172, No Iterations 4
smoothSolver:  Solving for Uz, Initial residual = 0.0162763442995783, Final residual = 0.00146823794353466, No Iterations 4
[OGL LOG][Proc: 0]: global_index_init: 0.016 [ms]
[OGL LOG][Proc: 0]p_local_coeffs: call_update: 0 [ms]
[OGL LOG][Proc: 0]p_non_local_coeffs: call_update: 0 [ms]
[OGL LOG][Proc: 0]p: update_local_matrix_data: 72.04600000000001 [ms]
[OGL LOG][Proc: 0]p: update_non_local_matrix_data: 0.333 [ms]
[OGL LOG][Proc: 0]p_matrix: call_update: 3.198 [ms]
[OGL LOG][Proc: 0]p_rhs: call_update: 2.077 [ms]
[OGL LOG][Preconditioner.H:346] Generate preconditioner Multigrid MaxLevels 9 MinCoarseRows 10 ZeroGuess 1 Cycle v
[OGL LOG][Proc: 0]p: init_precond: 472.02 [ms]
[OGL LOG][StoppingCriterion.H:239] Creating stopping criterion with minIter 45 frequency 1
[OGL LOG][Proc: 0]p: generate_solver: 0.008999999999999999 [ms]
[OGL LOG][Proc: 0]p: solve: 574.702 [ms]
[OGL LOG][Proc: 0]p: copy_x_back: 4.889 [ms]
[OGL LOG][lduLduBase.H:330] 
Statistics:
	Time per iteration: 12493 [mu s]
	Time per residual norm calculation: 1133.000000 [mu s]
	Time per iteration and DOF: 0.990386 [ns]
	Retrieve results bandwidth 2.583000 [GByte/s]
[OGL LOG][Proc: 0]p: solve_multi_gpu: 1083.332 [ms]
MultigridcudaGKOCG:  Solving for p, Initial residual = 0.158489005421451, Final residual = 0.0007529622076496351, No Iterations 46
time step continuity errors : sum local = 0.0006908550180289617, global = 0.0001005209262889573, cumulative = 0.01401373714455342
smoothSolver:  Solving for nuTilda, Initial residual = 0.02499710732519298, Final residual = 0.00148786314272524, No Iterations 3
ExecutionTime = 357.49 s  ClockTime = 359 s

Time = 34

velocityDampingConstraint velocityDamping damped 0 (0%) of cells, with max limit 300
smoothSolver:  Solving for Ux, Initial residual = 0.005456066249489823, Final residual = 0.0004830736359686394, No Iterations 4
smoothSolver:  Solving for Uy, Initial residual = 0.01617025299247175, Final residual = 0.001481883884762679, No Iterations 4
smoothSolver:  Solving for Uz, Initial residual = 0.01625379999273629, Final residual = 0.001471146020684292, No Iterations 4
[OGL LOG][Proc: 0]: global_index_init: 0.017 [ms]
[OGL LOG][Proc: 0]p_local_coeffs: call_update: 0 [ms]
[OGL LOG][Proc: 0]p_non_local_coeffs: call_update: 0 [ms]
[OGL LOG][Proc: 0]p: update_local_matrix_data: 67.834 [ms]
[OGL LOG][Proc: 0]p: update_non_local_matrix_data: 0.367 [ms]
[OGL LOG][Proc: 0]p_matrix: call_update: 3.381 [ms]
[OGL LOG][Proc: 0]p_rhs: call_update: 1.648 [ms]
[OGL LOG][Preconditioner.H:346] Generate preconditioner Multigrid MaxLevels 9 MinCoarseRows 10 ZeroGuess 1 Cycle v
[OGL LOG][Proc: 0]p: init_precond: 435.83 [ms]
[OGL LOG][StoppingCriterion.H:239] Creating stopping criterion with minIter 27 frequency 1
[OGL LOG][Proc: 0]p: generate_solver: 0.008999999999999999 [ms]
[OGL LOG][Proc: 0]p: solve: 438.186 [ms]
[OGL LOG][Proc: 0]p: copy_x_back: 5.106 [ms]
[OGL LOG][lduLduBase.H:330] 
Statistics:
	Time per iteration: 14606 [mu s]
	Time per residual norm calculation: 1280.000000 [mu s]
[...]
smoothSolver:  Solving for Uy, Initial residual = 0.01192629007626426, Final residual = 0.001158079837568245, No Iterations 4
smoothSolver:  Solving for Uz, Initial residual = 0.01331815375872376, Final residual = 0.001322436482538199, No Iterations 4
[OGL LOG][Proc: 0]: global_index_init: 0.325 [ms]
[OGL LOG][Proc: 0]p_local_coeffs: call_update: 0 [ms]
[OGL LOG][Proc: 0]p_non_local_coeffs: call_update: 0 [ms]
[OGL LOG][Proc: 0]p: update_local_matrix_data: 72.30500000000001 [ms]
[OGL LOG][Proc: 0]p: update_non_local_matrix_data: 0.361 [ms]
[OGL LOG][Proc: 0]p_matrix: call_update: 11.713 [ms]
[OGL LOG][Proc: 0]p_rhs: call_update: 1.405 [ms]
[OGL LOG][Preconditioner.H:346] Generate preconditioner Multigrid MaxLevels 9 MinCoarseRows 10 ZeroGuess 1 Cycle v
[OGL LOG][Proc: 0]p: init_precond: 442.19 [ms]
[OGL LOG][StoppingCriterion.H:239] Creating stopping criterion with minIter 15 frequency 1
[OGL LOG][Proc: 0]p: generate_solver: 0.008999999999999999 [ms]
[OGL LOG][Proc: 0]p: solve: 722.636 [ms]
[OGL LOG][Proc: 0]p: copy_x_back: 5.02 [ms]
[OGL LOG][lduLduBase.H:330] 
Statistics:
	Time per iteration: 13634 [mu s]
	Time per residual norm calculation: 1433.000000 [mu s]
	Time per iteration and DOF: 1.080839 [ns]
	Retrieve results bandwidth 2.515000 [GByte/s]
[OGL LOG][Proc: 0]p: solve_multi_gpu: 1213.409 [ms]
MultigridcudaGKOCG:  Solving for p, Initial residual = 0.04658312911358039, Final residual = 0.0004302431160875336, No Iterations 53
time step continuity errors : sum local = 0.0003225720894889347, global = 1.061671381804617e-05, cumulative = 0.01306253399632523
smoothSolver:  Solving for nuTilda, Initial residual = 0.009513048974386261, Final residual = 0.0008517644472617723, No Iterations 3
ExecutionTime = 824.2 s  ClockTime = 827 s

Time = 92

velocityDampingConstraint velocityDamping damped 0 (0%) of cells, with max limit 300
smoothSolver:  Solving for Ux, Initial residual = 0.002840101963481583, Final residual = 0.0002793820010623018, No Iterations 4
smoothSolver:  Solving for Uy, Initial residual = 0.0119572849107178, Final residual = 0.001160957583083638, No Iterations 4
smoothSolver:  Solving for Uz, Initial residual = 0.01332899779485314, Final residual = 0.001324150036713065, No Iterations 4
[OGL LOG][Proc: 0]: global_index_init: 0.016 [ms]
[OGL LOG][Proc: 0]p_local_coeffs: call_update: 0 [ms]
[OGL LOG][Proc: 0]p_non_local_coeffs: call_update: 0 [ms]
[OGL LOG][Proc: 0]p: update_local_matrix_data: 68.111 [ms]
[OGL LOG][Proc: 0]p: update_non_local_matrix_data: 0.343 [ms]
[OGL LOG][Proc: 0]p_matrix: call_update: 3.248 [ms]
[OGL LOG][Proc: 0]p_rhs: call_update: 1.978 [ms]
[OGL LOG][Preconditioner.H:346] Generate preconditioner Multigrid MaxLevels 9 MinCoarseRows 10 ZeroGuess 1 Cycle v
[OGL LOG][Proc: 0]p: init_precond: 457.721 [ms]
[OGL LOG][StoppingCriterion.H:239] Creating stopping criterion with minIter 31 frequency 1
[OGL LOG][Proc: 0]p: generate_solver: 0.01 [ms]
[OGL LOG][Proc: 0]p: solve: 428.371 [ms]
[OGL LOG][Proc: 0]p: copy_x_back: 4.89 [ms]
[OGL LOG][lduLduBase.H:330] 
Statistics:
	Time per iteration: 13386 [mu s]
	Time per residual norm calculation: 1290.000000 [mu s]
	Time per iteration and DOF: 1.061179 [ns]
	Retrieve results bandwidth 2.582000 [GByte/s]
[OGL LOG][Proc: 0]p: solve_multi_gpu: 929.308 [ms]
MultigridcudaGKOCG:  Solving for p, Initial residual = 0.04952572159641341, Final residual = 0.0003075477288226786, No Iterations 32
time step continuity errors : sum local = 0.0002149407826244876, global = 2.444597458669908e-05, cumulative = 0.01308697997091193
smoothSolver:  Solving for nuTilda, Initial residual = 0.006457430326417994, Final residual = 0.0004879224111830822, No Iterations 4
ExecutionTime = 832.1900000000001 s  ClockTime = 835 s


    From virtual bool Foam::regIOobject::readIfModified()
    in file db/regIOobject/regIOobjectRead.C at line 271
        Re-reading object fvSolution from file "/hkfs/work/workspace/scratch/eq4036-windsorbody_setup/workspace/607a539f6d0a00be729beb972b04f385/case/system/fvSolution"
Time = 93

velocityDampingConstraint velocityDamping damped 0 (0%) of cells, with max limit 300
smoothSolver:  Solving for Ux, Initial residual = 0.002874450801760243, Final residual = 0.0002804091959127567, No Iterations 4
smoothSolver:  Solving for Uy, Initial residual = 0.01198557983213336, Final residual = 0.00116401826327598, No Iterations 4
smoothSolver:  Solving for Uz, Initial residual = 0.01335353126661878, Final residual = 0.001326729557472421, No Iterations 4
[OGL LOG][Proc: 0]: global_index_init: 2.489 [ms]
[OGL LOG][Proc: 0]p_local_coeffs: call_update: 0 [ms]
[OGL LOG][Proc: 0]p_non_local_coeffs: call_update: 0 [ms]
[OGL LOG][Proc: 0]p: update_local_matrix_data: 69.736 [ms]
[OGL LOG][Proc: 0]p: update_non_local_matrix_data: 0.365 [ms]
[OGL LOG][Proc: 0]p_matrix: call_update: 3.138 [ms]
[OGL LOG][Proc: 0]p_rhs: call_update: 2.092 [ms]
[OGL LOG][Preconditioner.H:346] Generate preconditioner Multigrid MaxLevels 9 MinCoarseRows 10 ZeroGuess 1 Cycle v
[OGL LOG][Proc: 0]p: init_precond: 469.947 [ms]
[OGL LOG][StoppingCriterion.H:239] Creating stopping criterion with minIter 19 frequency 1
[OGL LOG][Proc: 0]p: generate_solver: 0.008999999999999999 [ms]
[OGL LOG][Proc: 0]p: solve: 782.454 [ms]
[OGL LOG][Proc: 0]p: copy_x_back: 5.056 [ms]
[OGL LOG][lduLduBase.H:330] 
Statistics:
	Time per iteration: 13040 [mu s]
	Time per residual norm calculation: 1290.000000 [mu s]
	Time per iteration and DOF: 1.033750 [ns]
	Retrieve results bandwidth 2.497000 [GByte/s]
[OGL LOG][Proc: 0]p: solve_multi_gpu: 1294.996 [ms]
MultigridcudaGKOCG:  Solving for p, Initial residual = 0.04843970844318918, Final residual = 0.0004389359754266397, No Iterations 60
time step continuity errors : sum local = 0.0003083296775870463, global = -2.203630418016147e-06, cumulative = 0.01308477634049391
smoothSolver:  Solving for nuTilda, Initial residual = 0.009316971243168826, Final residual = 0.0008528099975576461, No Iterations 3
ExecutionTime = 840.49 s  ClockTime = 843 s

Time = 94

velocityDampingConstraint velocityDamping damped 0 (0%) of cells, with max limit 300
smoothSolver:  Solving for Ux, Initial residual = 0.002842534890756671, Final residual = 0.0002789327951412479, No Iterations 4
smoothSolver:  Solving for Uy, Initial residual = 0.01201207523365559, Final residual = 0.001167220955225629, No Iterations 4
smoothSolver:  Solving for Uz, Initial residual = 0.01337351487782313, Final residual = 0.001329824505730744, No Iterations 4
[OGL LOG][Proc: 0]: global_index_init: 0.016 [ms]
[OGL LOG][Proc: 0]p_local_coeffs: call_update: 0 [ms]
[OGL LOG][Proc: 0]p_non_local_coeffs: call_update: 0 [ms]
[OGL LOG][Proc: 0]p: update_local_matrix_data: 68.071 [ms]
[OGL LOG][Proc: 0]p: update_non_local_matrix_data: 0.346 [ms]
[OGL LOG][Proc: 0]p_matrix: call_update: 3.167 [ms]
[OGL LOG][Proc: 0]p_rhs: call_update: 1.843 [ms]
[OGL LOG][Preconditioner.H:346] Generate preconditioner Multigrid MaxLevels 9 MinCoarseRows 10 ZeroGuess 1 Cycle v
[OGL LOG][Proc: 0]p: init_precond: 442.515 [ms]
[OGL LOG][StoppingCriterion.H:239] Creating stopping criterion with minIter 36 frequency 1
[OGL LOG][Proc: 0]p: generate_solver: 0.008999999999999999 [ms]
[OGL LOG][Proc: 0]p: solve: 503.707 [ms]
[OGL LOG][Proc: 0]p: copy_x_back: 5.356 [ms]
[OGL LOG][lduLduBase.H:330] 
Statistics:
	Time per iteration: 13613 [mu s]
	Time per residual norm calculation: 1424.000000 [mu s]
	Time per iteration and DOF: 1.079174 [ns]
	Retrieve results bandwidth 2.358000 [GByte/s]
[OGL LOG][Proc: 0]p: solve_multi_gpu: 991.1420000000001 [ms]
MultigridcudaGKOCG:  Solving for p, Initial residual = 0.04470922903954244, Final residual = 0.0002891517935198092, No Iterations 37
time step continuity errors : sum local = 0.0002177366476558002, global = 3.154872233695459e-05, cumulative = 0.01311632506283087
smoothSolver:  Solving for nuTilda, Initial residual = 0.006405779527384111, Final residual = 0.000487660985925556, No Iterations 4
ExecutionTime = 848.53 s  ClockTime = 852 s

Time = 95

velocityDampingConstraint velocityDamping damped 0 (0%) of cells, with max limit 300
smoothSolver:  Solving for Ux, Initial residual = 0.002844458251175257, Final residual = 0.0002777388758872576, No Iterations 4
smoothSolver:  Solving for Uy, Initial residual = 0.01203451818318183, Final residual = 0.001169612931491965, No Iterations 4
smoothSolver:  Solving for Uz, Initial residual = 0.01336766894990795, Final residual = 0.001330376376152822, No Iterations 4
[OGL LOG][Proc: 0]: global_index_init: 0.152 [ms]
[OGL LOG][Proc: 0]p_local_coeffs: call_update: 0 [ms]
[OGL LOG][Proc: 0]p_non_local_coeffs: call_update: 0 [ms]
[OGL LOG][Proc: 0]p: update_local_matrix_data: 72.767 [ms]
[OGL LOG][Proc: 0]p: update_non_local_matrix_data: 0.328 [ms]
[OGL LOG][Proc: 0]p_matrix: call_update: 3.397 [ms]
[OGL LOG][Proc: 0]p_rhs: call_update: 1.677 [ms]
[OGL LOG][Preconditioner.H:346] Generate preconditioner Multigrid MaxLevels 9 MinCoarseRows 10 ZeroGuess 1 Cycle v
[OGL LOG][Proc: 0]p: init_precond: 438.833 [ms]
[OGL LOG][StoppingCriterion.H:239] Creating stopping criterion with minIter 22 frequency 1
[OGL LOG][Proc: 0]p: generate_solver: 0.008 [ms]
[OGL LOG][Proc: 0]p: solve: 384.193 [ms]
[OGL LOG][Proc: 0]p: copy_x_back: 5.015 [ms]
[OGL LOG][lduLduBase.H:330] 
Statistics:
	Time per iteration: 16704 [mu s]
	Time per residual norm calculation: 1277.000000 [mu s]
	Time per iteration and DOF: 1.324214 [ns]
	Retrieve results bandwidth 2.518000 [GByte/s]
[OGL LOG][Proc: 0]p: solve_multi_gpu: 863.294 [ms]
MultigridcudaGKOCG:  Solving for p, Initial residual = 0.04398133179922172, Final residual = 0.0003385719841491769, No Iterations 23
time step continuity errors : sum local = 0.0002553834921244645, global = -8.288627026933195e-07, cumulative = 0.01311549620012817
smoothSolver:  Solving for nuTilda, Initial residual = 0.009128577695916835, Final residual = 0.0008526361871019668, No Iterations 3
ExecutionTime = 856.45 s  ClockTime = 859 s

Time = 96

velocityDampingConstraint velocityDamping damped 0 (0%) of cells, with max limit 300
smoothSolver:  Solving for Ux, Initial residual = 0.002805794389023288, Final residual = 0.0002756314747019124, No Iterations 4
smoothSolver:  Solving for Uy, Initial residual = 0.01206739624351448, Final residual = 0.001173142445517898, No Iterations 4
smoothSolver:  Solving for Uz, Initial residual = 0.01338312580202106, Final residual = 0.001331964860037424, No Iterations 4
[OGL LOG][Proc: 0]: global_index_init: 0.016 [ms]
[OGL LOG][Proc: 0]p_local_coeffs: call_update: 0 [ms]
[OGL LOG][Proc: 0]p_non_local_coeffs: call_update: 0 [ms]
[OGL LOG][Proc: 0]p: update_local_matrix_data: 67.29600000000001 [ms]
[OGL LOG][Proc: 0]p: update_non_local_matrix_data: 0.344 [ms]
[OGL LOG][Proc: 0]p_matrix: call_update: 3.237 [ms]
[OGL LOG][Proc: 0]p_rhs: call_update: 1.948 [ms]
[OGL LOG][Preconditioner.H:346] Generate preconditioner Multigrid MaxLevels 9 MinCoarseRows 10 ZeroGuess 1 Cycle v
[OGL LOG][Proc: 0]p: init_precond: 439.902 [ms]
[OGL LOG][StoppingCriterion.H:239] Creating stopping criterion with minIter 13 frequency 1
[OGL LOG][Proc: 0]p: generate_solver: 0.008999999999999999 [ms]
[OGL LOG][Proc: 0]p: solve: 304.919 [ms]
[OGL LOG][Proc: 0]p: copy_x_back: 4.894 [ms]
[OGL LOG][lduLduBase.H:330] 
Statistics:
	Time per iteration: 17936 [mu s]
	Time per residual norm calculation: 1279.000000 [mu s]
	Time per iteration and DOF: 1.421882 [ns]
	Retrieve results bandwidth 2.580000 [GByte/s]
[OGL LOG][Proc: 0]p: solve_multi_gpu: 789.104 [ms]
MultigridcudaGKOCG:  Solving for p, Initial residual = 0.04373126145511767, Final residual = 0.0004212044226107249, No Iterations 17
time step continuity errors : sum local = 0.0003163335491799423, global = -8.40716847139573e-05, cumulative = 0.01303142451541422
smoothSolver:  Solving for nuTilda, Initial residual = 0.006350907823808098, Final residual = 0.000486716288091338, No Iterations 4
ExecutionTime = 864.33 s  ClockTime = 867 s

Time = 97

velocityDampingConstraint velocityDamping damped 0 (0%) of cells, with max limit 300
smoothSolver:  Solving for Ux, Initial residual = 0.002808697917098734, Final residual = 0.0002745067218336771, No Iterations 4
smoothSolver:  Solving for Uy, Initial residual = 0.01210261999328041, Final residual = 0.001177053770913209, No Iterations 4
smoothSolver:  Solving for Uz, Initial residual = 0.01339483311849067, Final residual = 0.001332848991129431, No Iterations 4
[OGL LOG][Proc: 0]: global_index_init: 0.017 [ms]
[OGL LOG][Proc: 0]p_local_coeffs: call_update: 0 [ms]
[OGL LOG][Proc: 0]p_non_local_coeffs: call_update: 0 [ms]
[OGL LOG][Proc: 0]p: update_local_matrix_data: 72.14400000000001 [ms]
[OGL LOG][Proc: 0]p: update_non_local_matrix_data: 0.314 [ms]
[OGL LOG][Proc: 0]p_matrix: call_update: 3.325 [ms]
[OGL LOG][Proc: 0]p_rhs: call_update: 1.906 [ms]
[OGL LOG][Preconditioner.H:346] Generate preconditioner Multigrid MaxLevels 9 MinCoarseRows 10 ZeroGuess 1 Cycle v
[OGL LOG][Proc: 0]p: init_precond: 436.073 [ms]
[OGL LOG][StoppingCriterion.H:239] Creating stopping criterion with minIter 10 frequency 1
[OGL LOG][Proc: 0]p: generate_solver: 0.008999999999999999 [ms]
[OGL LOG][Proc: 0]p: solve: 844.622 [ms]
[OGL LOG][Proc: 0]p: copy_x_back: 4.943 [ms]
[OGL LOG][lduLduBase.H:330] 
Statistics:
	Time per iteration: 13406 [mu s]
	Time per residual norm calculation: 1279.000000 [mu s]
	Time per iteration and DOF: 1.062764 [ns]
	Retrieve results bandwidth 2.555000 [GByte/s]
[OGL LOG][Proc: 0]p: solve_multi_gpu: 1319.464 [ms]
MultigridcudaGKOCG:  Solving for p, Initial residual = 0.04341996806163331, Final residual = 0.0004140504961810381, No Iterations 63
time step continuity errors : sum local = 0.0003091490044919656, global = 3.317291056046675e-06, cumulative = 0.01303474180647026
smoothSolver:  Solving for nuTilda, Initial residual = 0.008946798439914241, Final residual = 0.000851453351492899, No Iterations 3
ExecutionTime = 872.66 s  ClockTime = 876 s

Time = 98

velocityDampingConstraint velocityDamping damped 0 (0%) of cells, with max limit 300
smoothSolver:  Solving for Ux, Initial residual = 0.002786680506154799, Final residual = 0.0002737716783048499, No Iterations 4
smoothSolver:  Solving for Uy, Initial residual = 0.01214868619112804, Final residual = 0.001182696179238094, No Iterations 4
smoothSolver:  Solving for Uz, Initial residual = 0.01343916980130652, Final residual = 0.001336448237726649, No Iterations 4
[OGL LOG][Proc: 0]: global_index_init: 0.02 [ms]
[OGL LOG][Proc: 0]p_local_coeffs: call_update: 0 [ms]
[OGL LOG][Proc: 0]p_non_local_coeffs: call_update: 0 [ms]
[OGL LOG][Proc: 0]p: update_local_matrix_data: 68.761 [ms]
[OGL LOG][Proc: 0]p: update_non_local_matrix_data: 0.355 [ms]
[OGL LOG][Proc: 0]p_matrix: call_update: 2.606 [ms]
[OGL LOG][Proc: 0]p_rhs: call_update: 2.992 [ms]
[OGL LOG][Preconditioner.H:346] Generate preconditioner Multigrid MaxLevels 9 MinCoarseRows 10 ZeroGuess 1 Cycle v
[OGL LOG][Proc: 0]p: init_precond: 430.629 [ms]
[OGL LOG][StoppingCriterion.H:239] Creating stopping criterion with minIter 37 frequency 1
[OGL LOG][Proc: 0]p: generate_solver: 0.008999999999999999 [ms]
[OGL LOG][Proc: 0]p: solve: 546.237 [ms]
[OGL LOG][Proc: 0]p: copy_x_back: 4.487 [ms]
[OGL LOG][lduLduBase.H:330] 
Statistics:
	Time per iteration: 14374 [mu s]
	Time per residual norm calculation: 1286.000000 [mu s]
	Time per iteration and DOF: 1.139503 [ns]
	Retrieve results bandwidth 2.814000 [GByte/s]
[OGL LOG][Proc: 0]p: solve_multi_gpu: 1019.541 [ms]
MultigridcudaGKOCG:  Solving for p, Initial residual = 0.04631822929422424, Final residual = 0.0001457369422056688, No Iterations 38
time step continuity errors : sum local = 0.0001012233893913676, global = 7.415521323786218e-06, cumulative = 0.01304215732779405
smoothSolver:  Solving for nuTilda, Initial residual = 0.006292587935051682, Final residual = 0.0004854283970689842, No Iterations 4
ExecutionTime = 880.75 s  ClockTime = 884 s

Time = 99

velocityDampingConstraint velocityDamping damped 0 (0%) of cells, with max limit 300
smoothSolver:  Solving for Ux, Initial residual = 0.002809989834194287, Final residual = 0.0002738407998634161, No Iterations 4
smoothSolver:  Solving for Uy, Initial residual = 0.01219632215108937, Final residual = 0.001189557956888706, No Iterations 4
smoothSolver:  Solving for Uz, Initial residual = 0.0134798018410796, Final residual = 0.001340485973849091, No Iterations 4
[OGL LOG][Proc: 0]: global_index_init: 0.129 [ms]
[OGL LOG][Proc: 0]p_local_coeffs: call_update: 0 [ms]
[OGL LOG][Proc: 0]p_non_local_coeffs: call_update: 0 [ms]
[OGL LOG][Proc: 0]p: update_local_matrix_data: 72.29000000000001 [ms]
[OGL LOG][Proc: 0]p: update_non_local_matrix_data: 0.315 [ms]
[OGL LOG][Proc: 0]p_matrix: call_update: 2.835 [ms]
[OGL LOG][Proc: 0]p_rhs: call_update: 2.337 [ms]
[OGL LOG][Preconditioner.H:346] Generate preconditioner Multigrid MaxLevels 9 MinCoarseRows 10 ZeroGuess 1 Cycle v
[OGL LOG][Proc: 0]p: init_precond: 431.386 [ms]
[OGL LOG][StoppingCriterion.H:239] Creating stopping criterion with minIter 22 frequency 1
[OGL LOG][Proc: 0]p: generate_solver: 0.008999999999999999 [ms]
[OGL LOG][Proc: 0]p: solve: 834.05 [ms]
[OGL LOG][Proc: 0]p: copy_x_back: 4.968 [ms]
[OGL LOG][lduLduBase.H:330] 
Statistics:
	Time per iteration: 13452 [mu s]
	Time per residual norm calculation: 1282.000000 [mu s]
	Time per iteration and DOF: 1.066411 [ns]
	Retrieve results bandwidth 2.542000 [GByte/s]
[OGL LOG][Proc: 0]p: solve_multi_gpu: 1304.708 [ms]
MultigridcudaGKOCG:  Solving for p, Initial residual = 0.0455082968925657, Final residual = 0.0004382503015227115, No Iterations 62
time step continuity errors : sum local = 0.0003053442033011313, global = -3.249867002891075e-06, cumulative = 0.01303890746079116
smoothSolver:  Solving for nuTilda, Initial residual = 0.008767577983341435, Final residual = 0.0008495322023104536, No Iterations 3
ExecutionTime = 889.1 s  ClockTime = 892 s

Time = 100

velocityDampingConstraint velocityDamping damped 0 (0%) of cells, with max limit 300
smoothSolver:  Solving for Ux, Initial residual = 0.00277811155679181, Final residual = 0.0002723992346415902, No Iterations 4
smoothSolver:  Solving for Uy, Initial residual = 0.01225197542708567, Final residual = 0.001198385657823306, No Iterations 4
smoothSolver:  Solving for Uz, Initial residual = 0.01350775746630543, Final residual = 0.001345900400143112, No Iterations 4
[OGL LOG][Proc: 0]: global_index_init: 0.021 [ms]
[OGL LOG][Proc: 0]p_local_coeffs: call_update: 0 [ms]
[OGL LOG][Proc: 0]p_non_local_coeffs: call_update: 0 [ms]
[OGL LOG][Proc: 0]p: update_local_matrix_data: 68.274 [ms]
[OGL LOG][Proc: 0]p: update_non_local_matrix_data: 0.369 [ms]
[OGL LOG][Proc: 0]p_matrix: call_update: 2.752 [ms]
[OGL LOG][Proc: 0]p_rhs: call_update: 2.185 [ms]
[OGL LOG][Preconditioner.H:346] Generate preconditioner Multigrid MaxLevels 9 MinCoarseRows 10 ZeroGuess 1 Cycle v
[OGL LOG][Proc: 0]p: init_precond: 479.222 [ms]
[OGL LOG][StoppingCriterion.H:239] Creating stopping criterion with minIter 37 frequency 1
[OGL LOG][Proc: 0]p: generate_solver: 0.008 [ms]
[OGL LOG][Proc: 0]p: solve: 652.398 [ms]
[OGL LOG][Proc: 0]p: copy_x_back: 4.883 [ms]
[OGL LOG][lduLduBase.H:330] 
Statistics:
	Time per iteration: 13880 [mu s]
	Time per residual norm calculation: 1279.000000 [mu s]
	Time per iteration and DOF: 1.100341 [ns]
	Retrieve results bandwidth 2.586000 [GByte/s]
[OGL LOG][Proc: 0]p: solve_multi_gpu: 1186.534 [ms]
MultigridcudaGKOCG:  Solving for p, Initial residual = 0.04282636624256317, Final residual = 0.0003963384576366644, No Iterations 47
time step continuity errors : sum local = 0.0002913966525076847, global = 1.9033018380318e-05, cumulative = 0.01305794047917148
smoothSolver:  Solving for nuTilda, Initial residual = 0.006229038147243152, Final residual = 0.0004837139281950593, No Iterations 4
ExecutionTime = 897.26 s  ClockTime = 900 s

End

Finalising parallel run
