/*---------------------------------------------------------------------------*\
| =========                 |                                                 |
| \\      /  F ield         | OpenFOAM: The Open Source CFD Toolbox           |
|  \\    /   O peration     | Version:  2306                                  |
|   \\  /    A nd           | Website:  www.openfoam.com                      |
|    \\/     M anipulation  |                                                 |
\*---------------------------------------------------------------------------*/
Build  : a6e826bd55-20230630 OPENFOAM=2306 version=v2306
Arch   : "LSB;label=32;scalar=64"
Exec   : icoFoam -parallel -case /tmp/lidDrivenCavity3D/workspace/dde77a7eaa6a5ec70ba7a83de52f7b16/case
Date   : Dec 09 2023
Time   : 15:14:10
Host   : nla-gpu2.ianm.kit.edu
PID    : 277370
I/O    : uncollated
Case   : /tmp/lidDrivenCavity3D/workspace/dde77a7eaa6a5ec70ba7a83de52f7b16/case
nProcs : 8
Hosts  :
(
    (nla-gpu2.ianm.kit.edu 8)
)
Pstream initialized with:
    floatTransfer      : false
    nProcsSimpleSum    : 0
    nonBlockingExchange: 0 (tuning: 0)
    exchange algorithm : -1
    commsType          : nonBlocking
    polling iterations : 0
trapFpe: Floating point exception trapping enabled (FOAM_SIGFPE).
fileModificationChecking : Monitoring run-time modified files using timeStampMaster (fileModificationSkew 5, maxFileModificationPolls 20)
allowSystemOperations : Allowing user-supplied system call operations

// * * * * * * * * * * * * * * * * * * * * * * * * * * * * * * * * * * * * * //
Create time

--> FOAM Warning : 
    From void* Foam::dlLibraryTable::openLibrary(const Foam::fileName&, bool)
    in file db/dynamicLibrary/dlLibraryTable/dlLibraryTable.C at line 188
    Could not load "libpetscFoam.so"
libpetscFoam.so: cannot open shared object file: No such file or directory
Create mesh for time = 0


PISO: Operating solver in PISO mode

Reading transportProperties

Reading field p

Reading field U

Reading/calculating face flux field phi


Starting time loop

Time = 0.000125

Courant Number mean: 8.02505e-18 max: 4.85723e-14
[INFO] MatrixAssemblyU: 816.767 [ms]
DILUPBiCGStab:  Solving for Ux, Initial residual = 1, Final residual = 0.0211815, No Iterations 5
DILUPBiCGStab:  Solving for Uy:  solution singularity
DILUPBiCGStab:  Solving for Uz:  solution singularity
[INFO] MomentumPredictor: 3800.75 [ms]
[INFO] MatrixAssemblyPI: 824.638 [ms]
[INFO] AdjustPhi: 46.856 [ms]
[INFO] ConstrainPressure: 0.013 [ms]
[INFO] MatrixAssemblyPII: 233.018 [ms]
[OGL LOG][lduLduBase.H:119] Initialising OGL
	OGL commit:  5ef1233
	Branch: feat/on_device_permute 
	Build type: Release
	Ginkgo version: 1.7.0 ( develop)
	Ginkgo commit: sparse-communicator
	MPI is GPU aware: 1
	Forces host buffer based communication: 0
	CPU ranks per GPU: 1
	Matrix format: Coo
	End OGL_INFO
[OGL LOG][Proc: 0]: global_index_init: 1.925 [ms]
[OGL LOG][Proc: 0]p_local_cols: call_init: 0.035 [ms]
[OGL LOG][Proc: 0]p_local_rows: call_init: 0.003 [ms]
[OGL LOG][Proc: 0]p_local_ldu_map: call_init: 0.215 [ms]
[OGL LOG][Proc: 0]p_local_coeffs: call_init: 0.016 [ms]
[OGL LOG][Proc: 0]p_non_local_cols: call_init: 0.004 [ms]
[OGL LOG][Proc: 0]p_non_local_rows: call_init: 0.002 [ms]
[OGL LOG][Proc: 0]p_non_local_ldu_map: call_init: 0.002 [ms]
[OGL LOG][Proc: 0]p_non_local_coeffs: call_init: 0.002 [ms]
[OGL LOG][Proc: 0]p: init_local_sparsity_pattern: 1225.14 [ms]
[OGL LOG][Proc: 0]p: init_non_local_sparsity_pattern: 34.23 [ms]
[OGL LOG][Proc: 0]p: update_local_matrix_data: 110.95 [ms]
[OGL LOG][Proc: 0]p: update_non_local_matrix_data: 0.43 [ms]
[OGL LOG][Proc: 0]device_partition: call_init: 0.242 [ms]
[OGL LOG][Proc: 0]p_matrix: call_init: 354.133 [ms]
[OGL LOG][Proc: 0]p_rhs: call_init: 21.197 [ms]
[OGL LOG][Proc: 0]p_solution: call_init: 4.729 [ms]
[OGL LOG][Proc: 0]p: init_precond: 0.118 [ms]
[OGL LOG][StoppingCriterion.H:373] Creating stopping criterion with minIter 0 frequency 1
[OGL LOG][Proc: 0]p: generate_solver: 0.04 [ms]
[OGL LOG][Proc: 0]p: solve: 14589 [ms]
[OGL LOG][Proc: 0]p: copy_x_back: 21.43 [ms]
[OGL LOG][lduLduBase.H:330] 
Statistics:
	Time per iteration: 4486 [mu s]
	Time per residual norm calculation: 1326.000000 [mu s]
	Time per iteration and DOF: 0.070094 [ns]
	Retrieve results bandwidth 2.986000 [GByte/s]
[OGL LOG][Proc: 0]p: solve_multi_gpu: 15035.6 [ms]
nonehipGKOCG:  Solving for p, Initial residual = 1, Final residual = 9.89296e-05, No Iterations 3252
[INFO] SolveP: 16663.7 [ms]
time step continuity errors : sum local = 2.51544e-09, global = -2.93804e-21, cumulative = -2.93804e-21
[INFO] ContinuityError: 114.853 [ms]
[INFO] CorrectBoundary: 1.541 [ms]
[INFO] PISOStep: 18148.1 [ms]
[INFO] MatrixAssemblyPI: 788.2 [ms]
[INFO] AdjustPhi: 51.536 [ms]
[INFO] ConstrainPressure: 0.004 [ms]
[INFO] MatrixAssemblyPII: 231.267 [ms]
[OGL LOG][Proc: 0]: global_index_init: 0.285 [ms]
[OGL LOG][Proc: 0]p_local_coeffs: call_update: 0.003 [ms]
[OGL LOG][Proc: 0]p_non_local_coeffs: call_update: 0 [ms]
[OGL LOG][Proc: 0]p: update_local_matrix_data: 90.951 [ms]
[OGL LOG][Proc: 0]p: update_non_local_matrix_data: 0.433 [ms]
[OGL LOG][Proc: 0]p_matrix: call_update: 52.94 [ms]
[OGL LOG][Proc: 0]p_rhs: call_update: 16.146 [ms]
[OGL LOG][Proc: 0]p: init_precond: 0.066 [ms]
[OGL LOG][StoppingCriterion.H:373] Creating stopping criterion with minIter 1951 frequency 20
[OGL LOG][Proc: 0]p: generate_solver: 0.006 [ms]
[OGL LOG][Proc: 0]p: solve: 12204.9 [ms]
[OGL LOG][Proc: 0]p: copy_x_back: 24.862 [ms]
[OGL LOG][lduLduBase.H:330] 
Statistics:
	Time per iteration: 3765 [mu s]
	Time per residual norm calculation: 379.000000 [mu s]
	Time per iteration and DOF: 0.058828 [ns]
	Retrieve results bandwidth 2.574000 [GByte/s]
[OGL LOG][Proc: 0]p: solve_multi_gpu: 12304 [ms]
nonehipGKOCG:  Solving for p, Initial residual = 0.822351, Final residual = 9.13534e-05, No Iterations 3241
[INFO] SolveP: 12421.7 [ms]
time step continuity errors : sum local = 2.79752e-09, global = 3.69604e-22, cumulative = -2.56843e-21
[INFO] ContinuityError: 110.782 [ms]
[INFO] CorrectBoundary: 3.515 [ms]
[INFO] PISOStep: 13867.7 [ms]
[INFO] TimeStep: 36750.9 [ms]
ExecutionTime = 47.74 s  ClockTime = 41 s

Time = 0.00025

Courant Number mean: 0.0108822 max: 0.437683
[INFO] MatrixAssemblyU: 613.921 [ms]
DILUPBiCGStab:  Solving for Ux, Initial residual = 0.108151, Final residual = 0.0127621, No Iterations 5
DILUPBiCGStab:  Solving for Uy, Initial residual = 0.484293, Final residual = 0.0502291, No Iterations 5
DILUPBiCGStab:  Solving for Uz, Initial residual = 0.996436, Final residual = 0.114506, No Iterations 5
[INFO] MomentumPredictor: 7040.02 [ms]
[INFO] MatrixAssemblyPI: 804.772 [ms]
[INFO] AdjustPhi: 57.24 [ms]
[INFO] ConstrainPressure: 0.004 [ms]
[INFO] MatrixAssemblyPII: 233.851 [ms]
[OGL LOG][Proc: 0]: global_index_init: 0.422 [ms]
[OGL LOG][Proc: 0]p_local_coeffs: call_update: 0 [ms]
[OGL LOG][Proc: 0]p_non_local_coeffs: call_update: 0 [ms]
[OGL LOG][Proc: 0]p: update_local_matrix_data: 91.385 [ms]
[OGL LOG][Proc: 0]p: update_non_local_matrix_data: 0.401 [ms]
[OGL LOG][Proc: 0]p_matrix: call_update: 54.791 [ms]
[OGL LOG][Proc: 0]p_rhs: call_update: 12.088 [ms]
[OGL LOG][Proc: 0]p: init_precond: 0.057 [ms]
[OGL LOG][StoppingCriterion.H:373] Creating stopping criterion with minIter 1944 frequency 12
[OGL LOG][Proc: 0]p: generate_solver: 0.005 [ms]
[OGL LOG][Proc: 0]p: solve: 12212.4 [ms]
[OGL LOG][Proc: 0]p: copy_x_back: 20.684 [ms]
[OGL LOG][lduLduBase.H:330] 
Statistics:
	Time per iteration: 3824 [mu s]
	Time per residual norm calculation: 383.000000 [mu s]
	Time per iteration and DOF: 0.059750 [ns]
	Retrieve results bandwidth 3.094000 [GByte/s]
[OGL LOG][Proc: 0]p: solve_multi_gpu: 12307 [ms]
nonehipGKOCG:  Solving for p, Initial residual = 0.905673, Final residual = 9.29965e-05, No Iterations 3193
[INFO] SolveP: 12424.8 [ms]
time step continuity errors : sum local = 6.49844e-09, global = 2.91874e-22, cumulative = -2.27656e-21
[INFO] ContinuityError: 114.807 [ms]
[INFO] CorrectBoundary: 1.972 [ms]
[INFO] PISOStep: 13896.5 [ms]
[INFO] MatrixAssemblyPI: 788.712 [ms]
[INFO] AdjustPhi: 47.805 [ms]
[INFO] ConstrainPressure: 0.004 [ms]
[INFO] MatrixAssemblyPII: 231.847 [ms]
[OGL LOG][Proc: 0]: global_index_init: 0.188 [ms]
[OGL LOG][Proc: 0]p_local_coeffs: call_update: 0 [ms]
[OGL LOG][Proc: 0]p_non_local_coeffs: call_update: 0 [ms]
[OGL LOG][Proc: 0]p: update_local_matrix_data: 92.934 [ms]
[OGL LOG][Proc: 0]p: update_non_local_matrix_data: 0.414 [ms]
[OGL LOG][Proc: 0]p_matrix: call_update: 59.308 [ms]
[OGL LOG][Proc: 0]p_rhs: call_update: 8.362 [ms]
[OGL LOG][Proc: 0]p: init_precond: 0.06 [ms]
[OGL LOG][StoppingCriterion.H:373] Creating stopping criterion with minIter 1915 frequency 11
[OGL LOG][Proc: 0]p: generate_solver: 0.006 [ms]
[OGL LOG][Proc: 0]p: solve: 13033.4 [ms]
[OGL LOG][Proc: 0]p: copy_x_back: 20.51 [ms]
[OGL LOG][lduLduBase.H:330] 
Statistics:
	Time per iteration: 4084 [mu s]
	Time per residual norm calculation: 378.000000 [mu s]
	Time per iteration and DOF: 0.063812 [ns]
	Retrieve results bandwidth 3.120000 [GByte/s]
[OGL LOG][Proc: 0]p: solve_multi_gpu: 13124.1 [ms]
nonehipGKOCG:  Solving for p, Initial residual = 0.856953, Final residual = 8.61813e-05, No Iterations 3191
[INFO] SolveP: 13244.4 [ms]
time step continuity errors : sum local = 6.13412e-09, global = 7.80293e-22, cumulative = -1.49627e-21
[INFO] ContinuityError: 112.6 [ms]
[INFO] CorrectBoundary: 3.015 [ms]
[INFO] PISOStep: 14691.7 [ms]
[INFO] TimeStep: 36348.2 [ms]
ExecutionTime = 91.93 s  ClockTime = 78 s

Time = 0.000375

Courant Number mean: 0.016989 max: 0.511334
[INFO] MatrixAssemblyU: 619.641 [ms]
DILUPBiCGStab:  Solving for Ux, Initial residual = 0.0537301, Final residual = 0.00524953, No Iterations 5
DILUPBiCGStab:  Solving for Uy, Initial residual = 0.261852, Final residual = 0.0256294, No Iterations 5
DILUPBiCGStab:  Solving for Uz, Initial residual = 0.875475, Final residual = 0.0870102, No Iterations 5
[INFO] MomentumPredictor: 7051.65 [ms]
[INFO] MatrixAssemblyPI: 806.641 [ms]
[INFO] AdjustPhi: 50.586 [ms]
[INFO] ConstrainPressure: 0.005 [ms]
[INFO] MatrixAssemblyPII: 232.434 [ms]
[OGL LOG][Proc: 0]: global_index_init: 0.687 [ms]
[OGL LOG][Proc: 0]p_local_coeffs: call_update: 0 [ms]
[OGL LOG][Proc: 0]p_non_local_coeffs: call_update: 0 [ms]
[OGL LOG][Proc: 0]p: update_local_matrix_data: 91.31 [ms]
[OGL LOG][Proc: 0]p: update_non_local_matrix_data: 0.421 [ms]
[OGL LOG][Proc: 0]p_matrix: call_update: 51.86 [ms]
[OGL LOG][Proc: 0]p_rhs: call_update: 22.368 [ms]
[OGL LOG][Proc: 0]p: init_precond: 0.054 [ms]
[OGL LOG][StoppingCriterion.H:373] Creating stopping criterion with minIter 1914 frequency 11
[OGL LOG][Proc: 0]p: generate_solver: 0.005 [ms]
[OGL LOG][Proc: 0]p: solve: 7467.62 [ms]
[OGL LOG][Proc: 0]p: copy_x_back: 21.255 [ms]
[OGL LOG][lduLduBase.H:330] 
Statistics:
	Time per iteration: 3899 [mu s]
	Time per residual norm calculation: 391.000000 [mu s]
	Time per iteration and DOF: 0.060922 [ns]
	Retrieve results bandwidth 3.011000 [GByte/s]
[OGL LOG][Proc: 0]p: solve_multi_gpu: 7568.26 [ms]
nonehipGKOCG:  Solving for p, Initial residual = 0.940501, Final residual = 3.91766e-05, No Iterations 1915
[INFO] SolveP: 7685.03 [ms]
time step continuity errors : sum local = 3.6805e-09, global = 1.95383e-22, cumulative = -1.30088e-21
[INFO] ContinuityError: 114.81 [ms]
[INFO] CorrectBoundary: 1.681 [ms]
[INFO] PISOStep: 9152.06 [ms]
[INFO] MatrixAssemblyPI: 782.297 [ms]
[INFO] AdjustPhi: 50.415 [ms]
[INFO] ConstrainPressure: 0.004 [ms]
[INFO] MatrixAssemblyPII: 230.565 [ms]
[OGL LOG][Proc: 0]: global_index_init: 0.952 [ms]
[OGL LOG][Proc: 0]p_local_coeffs: call_update: 0 [ms]
[OGL LOG][Proc: 0]p_non_local_coeffs: call_update: 0 [ms]
[OGL LOG][Proc: 0]p: update_local_matrix_data: 91.791 [ms]
[OGL LOG][Proc: 0]p: update_non_local_matrix_data: 0.433 [ms]
[OGL LOG][Proc: 0]p_matrix: call_update: 56.162 [ms]
[OGL LOG][Proc: 0]p_rhs: call_update: 13.811 [ms]
[OGL LOG][Proc: 0]p: init_precond: 0.053 [ms]
[OGL LOG][StoppingCriterion.H:373] Creating stopping criterion with minIter 1149 frequency 9
[OGL LOG][Proc: 0]p: generate_solver: 0.005 [ms]
[OGL LOG][Proc: 0]p: solve: 6149.09 [ms]
[OGL LOG][Proc: 0]p: copy_x_back: 23.777 [ms]
[OGL LOG][lduLduBase.H:330] 
Statistics:
	Time per iteration: 3992 [mu s]
	Time per residual norm calculation: 375.000000 [mu s]
	Time per iteration and DOF: 0.062375 [ns]
	Retrieve results bandwidth 2.691000 [GByte/s]
[OGL LOG][Proc: 0]p: solve_multi_gpu: 6244.86 [ms]
nonehipGKOCG:  Solving for p, Initial residual = 0.90876, Final residual = 9.25422e-05, No Iterations 1540
[INFO] SolveP: 6360.26 [ms]
time step continuity errors : sum local = 8.16155e-09, global = -2.34178e-22, cumulative = -1.53506e-21
[INFO] ContinuityError: 115.067 [ms]
[INFO] CorrectBoundary: 10.444 [ms]
[INFO] PISOStep: 7807.24 [ms]
[INFO] TimeStep: 24733.4 [ms]
ExecutionTime = 120.86 s  ClockTime = 103 s

Time = 0.0005

Courant Number mean: 0.0206053 max: 0.477587
[INFO] MatrixAssemblyU: 613.846 [ms]
DILUPBiCGStab:  Solving for Ux, Initial residual = 0.0416097, Final residual = 0.00486291, No Iterations 5
DILUPBiCGStab:  Solving for Uy, Initial residual = 0.21408, Final residual = 0.02322, No Iterations 5
DILUPBiCGStab:  Solving for Uz, Initial residual = 0.780966, Final residual = 0.0637282, No Iterations 5
[INFO] MomentumPredictor: 7023.46 [ms]
[INFO] MatrixAssemblyPI: 806.872 [ms]
[INFO] AdjustPhi: 43.73 [ms]
[INFO] ConstrainPressure: 0.004 [ms]
[INFO] MatrixAssemblyPII: 230.728 [ms]
[OGL LOG][Proc: 0]: global_index_init: 0.044 [ms]
[OGL LOG][Proc: 0]p_local_coeffs: call_update: 0 [ms]
[OGL LOG][Proc: 0]p_non_local_coeffs: call_update: 0 [ms]
[OGL LOG][Proc: 0]p: update_local_matrix_data: 91.856 [ms]
[OGL LOG][Proc: 0]p: update_non_local_matrix_data: 0.429 [ms]
[OGL LOG][Proc: 0]p_matrix: call_update: 52.422 [ms]
[OGL LOG][Proc: 0]p_rhs: call_update: 21.26 [ms]
[OGL LOG][Proc: 0]p: init_precond: 0.055 [ms]
[OGL LOG][StoppingCriterion.H:373] Creating stopping criterion with minIter 924 frequency 7
[OGL LOG][Proc: 0]p: generate_solver: 0.005 [ms]
[OGL LOG][Proc: 0]p: solve: 5910.77 [ms]
[OGL LOG][Proc: 0]p: copy_x_back: 20.978 [ms]
[OGL LOG][lduLduBase.H:330] 
Statistics:
	Time per iteration: 3853 [mu s]
	Time per residual norm calculation: 378.000000 [mu s]
	Time per iteration and DOF: 0.060203 [ns]
	Retrieve results bandwidth 3.050000 [GByte/s]
[OGL LOG][Proc: 0]p: solve_multi_gpu: 6010.7 [ms]
nonehipGKOCG:  Solving for p, Initial residual = 0.936909, Final residual = 9.13683e-05, No Iterations 1534
[INFO] SolveP: 6127.04 [ms]
time step continuity errors : sum local = 1.02736e-08, global = 8.79551e-22, cumulative = -6.5551e-22
[INFO] ContinuityError: 115.382 [ms]
[INFO] CorrectBoundary: 3.837 [ms]
[INFO] PISOStep: 7585.08 [ms]
[INFO] MatrixAssemblyPI: 791.836 [ms]
[INFO] AdjustPhi: 45.133 [ms]
[INFO] ConstrainPressure: 0.004 [ms]
[INFO] MatrixAssemblyPII: 231.013 [ms]
[OGL LOG][Proc: 0]: global_index_init: 1.145 [ms]
[OGL LOG][Proc: 0]p_local_coeffs: call_update: 0 [ms]
[OGL LOG][Proc: 0]p_non_local_coeffs: call_update: 0 [ms]
[OGL LOG][Proc: 0]p: update_local_matrix_data: 91.473 [ms]
[OGL LOG][Proc: 0]p: update_non_local_matrix_data: 0.407 [ms]
[OGL LOG][Proc: 0]p_matrix: call_update: 51.013 [ms]
[OGL LOG][Proc: 0]p_rhs: call_update: 16.501 [ms]
[OGL LOG][Proc: 0]p: init_precond: 0.057 [ms]
[OGL LOG][StoppingCriterion.H:373] Creating stopping criterion with minIter 920 frequency 7
[OGL LOG][Proc: 0]p: generate_solver: 0.006 [ms]
[OGL LOG][Proc: 0]p: solve: 5930.69 [ms]
[OGL LOG][Proc: 0]p: copy_x_back: 20.843 [ms]
[OGL LOG][lduLduBase.H:330] 
Statistics:
	Time per iteration: 3919 [mu s]
	Time per residual norm calculation: 381.000000 [mu s]
	Time per iteration and DOF: 0.061234 [ns]
	Retrieve results bandwidth 3.070000 [GByte/s]
[OGL LOG][Proc: 0]p: solve_multi_gpu: 6022.17 [ms]
nonehipGKOCG:  Solving for p, Initial residual = 0.879588, Final residual = 9.43841e-05, No Iterations 1513
[INFO] SolveP: 6142 [ms]
time step continuity errors : sum local = 1.04576e-08, global = 9.0447e-23, cumulative = -5.65063e-22
[INFO] ContinuityError: 111.471 [ms]
[INFO] CorrectBoundary: 2.007 [ms]
[INFO] PISOStep: 7581.15 [ms]
[INFO] TimeStep: 22909.5 [ms]
ExecutionTime = 147.46 s  ClockTime = 125 s

Time = 0.000625

Courant Number mean: 0.0236937 max: 0.555602
[INFO] MatrixAssemblyU: 614.796 [ms]
DILUPBiCGStab:  Solving for Ux, Initial residual = 0.0376099, Final residual = 0.00440315, No Iterations 5
DILUPBiCGStab:  Solving for Uy, Initial residual = 0.184685, Final residual = 0.0189851, No Iterations 5
DILUPBiCGStab:  Solving for Uz, Initial residual = 0.751228, Final residual = 0.0545548, No Iterations 5
[INFO] MomentumPredictor: 7039.52 [ms]
[INFO] MatrixAssemblyPI: 804.207 [ms]
[INFO] AdjustPhi: 46.19 [ms]
[INFO] ConstrainPressure: 0.005 [ms]
[INFO] MatrixAssemblyPII: 229.634 [ms]
[OGL LOG][Proc: 0]: global_index_init: 0.378 [ms]
[OGL LOG][Proc: 0]p_local_coeffs: call_update: 0 [ms]
[OGL LOG][Proc: 0]p_non_local_coeffs: call_update: 0 [ms]
[OGL LOG][Proc: 0]p: update_local_matrix_data: 91.821 [ms]
[OGL LOG][Proc: 0]p: update_non_local_matrix_data: 0.413 [ms]
[OGL LOG][Proc: 0]p_matrix: call_update: 55.43 [ms]
[OGL LOG][Proc: 0]p_rhs: call_update: 16.803 [ms]
[OGL LOG][Proc: 0]p: init_precond: 0.05 [ms]
[OGL LOG][StoppingCriterion.H:373] Creating stopping criterion with minIter 907 frequency 7
[OGL LOG][Proc: 0]p: generate_solver: 0.005 [ms]
[OGL LOG][Proc: 0]p: solve: 11830.6 [ms]
[OGL LOG][Proc: 0]p: copy_x_back: 20.6 [ms]
[OGL LOG][lduLduBase.H:330] 
Statistics:
	Time per iteration: 3848 [mu s]
	Time per residual norm calculation: 391.000000 [mu s]
	Time per iteration and DOF: 0.060125 [ns]
	Retrieve results bandwidth 3.106000 [GByte/s]
[OGL LOG][Proc: 0]p: solve_multi_gpu: 11928.6 [ms]
nonehipGKOCG:  Solving for p, Initial residual = 0.953546, Final residual = 9.45647e-05, No Iterations 3074
[INFO] SolveP: 12055.3 [ms]
time step continuity errors : sum local = 1.16829e-08, global = 7.21095e-22, cumulative = 1.56032e-22
[INFO] ContinuityError: 112.945 [ms]
[INFO] CorrectBoundary: 1.465 [ms]
[INFO] PISOStep: 13513.7 [ms]
[INFO] MatrixAssemblyPI: 784.664 [ms]
[INFO] AdjustPhi: 51.045 [ms]
[INFO] ConstrainPressure: 0.005 [ms]
[INFO] MatrixAssemblyPII: 230.745 [ms]
[OGL LOG][Proc: 0]: global_index_init: 0.317 [ms]
[OGL LOG][Proc: 0]p_local_coeffs: call_update: 0 [ms]
[OGL LOG][Proc: 0]p_non_local_coeffs: call_update: 0 [ms]
[OGL LOG][Proc: 0]p: update_local_matrix_data: 91.449 [ms]
[OGL LOG][Proc: 0]p: update_non_local_matrix_data: 0.415 [ms]
[OGL LOG][Proc: 0]p_matrix: call_update: 57.904 [ms]
[OGL LOG][Proc: 0]p_rhs: call_update: 17.831 [ms]
[OGL LOG][Proc: 0]p: init_precond: 0.054 [ms]
[OGL LOG][StoppingCriterion.H:373] Creating stopping criterion with minIter 1844 frequency 11
[OGL LOG][Proc: 0]p: generate_solver: 0.005 [ms]
[OGL LOG][Proc: 0]p: solve: 11745.2 [ms]
[OGL LOG][Proc: 0]p: copy_x_back: 21.071 [ms]
[OGL LOG][lduLduBase.H:330] 
Statistics:
	Time per iteration: 3997 [mu s]
	Time per residual norm calculation: 387.000000 [mu s]
	Time per iteration and DOF: 0.062453 [ns]
	Retrieve results bandwidth 3.037000 [GByte/s]
[OGL LOG][Proc: 0]p: solve_multi_gpu: 11844.6 [ms]
nonehipGKOCG:  Solving for p, Initial residual = 0.915146, Final residual = 9.78607e-05, No Iterations 2938
[INFO] SolveP: 11966 [ms]
time step continuity errors : sum local = 1.2018e-08, global = 3.67785e-22, cumulative = 5.23817e-22
[INFO] ContinuityError: 112.448 [ms]
[INFO] CorrectBoundary: 5.318 [ms]
[INFO] PISOStep: 13408.8 [ms]
[INFO] TimeStep: 34681.2 [ms]
ExecutionTime = 189.5 s  ClockTime = 160 s

Time = 0.00075

Courant Number mean: 0.0260431 max: 0.483404
[INFO] MatrixAssemblyU: 614.701 [ms]
DILUPBiCGStab:  Solving for Ux, Initial residual = 0.0354207, Final residual = 0.00412333, No Iterations 5
DILUPBiCGStab:  Solving for Uy, Initial residual = 0.171424, Final residual = 0.0161206, No Iterations 5
DILUPBiCGStab:  Solving for Uz, Initial residual = 0.696316, Final residual = 0.0459943, No Iterations 5
[INFO] MomentumPredictor: 7033.19 [ms]
[INFO] MatrixAssemblyPI: 811.157 [ms]
[INFO] AdjustPhi: 50.537 [ms]
[INFO] ConstrainPressure: 0.004 [ms]
[INFO] MatrixAssemblyPII: 229.886 [ms]
[OGL LOG][Proc: 0]: global_index_init: 0.465 [ms]
[OGL LOG][Proc: 0]p_local_coeffs: call_update: 0 [ms]
[OGL LOG][Proc: 0]p_non_local_coeffs: call_update: 0 [ms]
[OGL LOG][Proc: 0]p: update_local_matrix_data: 91.241 [ms]
[OGL LOG][Proc: 0]p: update_non_local_matrix_data: 0.428 [ms]
[OGL LOG][Proc: 0]p_matrix: call_update: 55.54 [ms]
[OGL LOG][Proc: 0]p_rhs: call_update: 13.387 [ms]
[OGL LOG][Proc: 0]p: init_precond: 0.055 [ms]
[OGL LOG][StoppingCriterion.H:373] Creating stopping criterion with minIter 1762 frequency 10
[OGL LOG][Proc: 0]p: generate_solver: 0.006 [ms]
[OGL LOG][Proc: 0]p: solve: 11987.2 [ms]
[OGL LOG][Proc: 0]p: copy_x_back: 23.234 [ms]
[OGL LOG][lduLduBase.H:330] 
Statistics:
	Time per iteration: 3865 [mu s]
	Time per residual norm calculation: 371.000000 [mu s]
	Time per iteration and DOF: 0.060391 [ns]
	Retrieve results bandwidth 2.754000 [GByte/s]
[OGL LOG][Proc: 0]p: solve_multi_gpu: 12083.9 [ms]
nonehipGKOCG:  Solving for p, Initial residual = 0.950369, Final residual = 9.48901e-05, No Iterations 3101
[INFO] SolveP: 12198.6 [ms]
time step continuity errors : sum local = 1.3517e-08, global = 3.88109e-22, cumulative = 9.11927e-22
[INFO] ContinuityError: 115.355 [ms]
[INFO] CorrectBoundary: 2.795 [ms]
[INFO] PISOStep: 13670.7 [ms]
[INFO] MatrixAssemblyPI: 785.714 [ms]
[INFO] AdjustPhi: 49.684 [ms]
[INFO] ConstrainPressure: 0.004 [ms]
[INFO] MatrixAssemblyPII: 230.58 [ms]
[OGL LOG][Proc: 0]: global_index_init: 0.466 [ms]
[OGL LOG][Proc: 0]p_local_coeffs: call_update: 0 [ms]
[OGL LOG][Proc: 0]p_non_local_coeffs: call_update: 0 [ms]
[OGL LOG][Proc: 0]p: update_local_matrix_data: 91.374 [ms]
[OGL LOG][Proc: 0]p: update_non_local_matrix_data: 0.408 [ms]
[OGL LOG][Proc: 0]p_matrix: call_update: 61.34 [ms]
[OGL LOG][Proc: 0]p_rhs: call_update: 15.609 [ms]
[OGL LOG][Proc: 0]p: init_precond: 0.052 [ms]
[OGL LOG][StoppingCriterion.H:373] Creating stopping criterion with minIter 1860 frequency 11
[OGL LOG][Proc: 0]p: generate_solver: 0.006 [ms]
[OGL LOG][Proc: 0]p: solve: 12267.5 [ms]
[OGL LOG][Proc: 0]p: copy_x_back: 21.158 [ms]
[OGL LOG][lduLduBase.H:330] 
Statistics:
	Time per iteration: 3967 [mu s]
	Time per residual norm calculation: 372.000000 [mu s]
	Time per iteration and DOF: 0.061984 [ns]
	Retrieve results bandwidth 3.024000 [GByte/s]
[OGL LOG][Proc: 0]p: solve_multi_gpu: 12369.4 [ms]
nonehipGKOCG:  Solving for p, Initial residual = 0.89073, Final residual = 9.59623e-05, No Iterations 3092
[INFO] SolveP: 12485.8 [ms]
time step continuity errors : sum local = 1.38874e-08, global = 4.28053e-22, cumulative = 1.33998e-21
[INFO] ContinuityError: 114.883 [ms]
[INFO] CorrectBoundary: 1.425 [ms]
[INFO] PISOStep: 13928.6 [ms]
[INFO] TimeStep: 35349.9 [ms]
ExecutionTime = 232.41 s  ClockTime = 196 s

Time = 0.000875

Courant Number mean: 0.028264 max: 0.611479
[INFO] MatrixAssemblyU: 613.848 [ms]
DILUPBiCGStab:  Solving for Ux, Initial residual = 0.0350632, Final residual = 0.00388805, No Iterations 5
DILUPBiCGStab:  Solving for Uy, Initial residual = 0.176341, Final residual = 0.0153429, No Iterations 5
DILUPBiCGStab:  Solving for Uz, Initial residual = 0.69123, Final residual = 0.0406532, No Iterations 5
[INFO] MomentumPredictor: 7025.8 [ms]
[INFO] MatrixAssemblyPI: 802.854 [ms]
[INFO] AdjustPhi: 49.442 [ms]
[INFO] ConstrainPressure: 0.004 [ms]
[INFO] MatrixAssemblyPII: 229.878 [ms]
[OGL LOG][Proc: 0]: global_index_init: 0.22 [ms]
[OGL LOG][Proc: 0]p_local_coeffs: call_update: 0 [ms]
[OGL LOG][Proc: 0]p_non_local_coeffs: call_update: 0 [ms]
[OGL LOG][Proc: 0]p: update_local_matrix_data: 91.562 [ms]
[OGL LOG][Proc: 0]p: update_non_local_matrix_data: 0.42 [ms]
[OGL LOG][Proc: 0]p_matrix: call_update: 66.184 [ms]
[OGL LOG][Proc: 0]p_rhs: call_update: 14.594 [ms]
[OGL LOG][Proc: 0]p: init_precond: 0.05 [ms]
[OGL LOG][StoppingCriterion.H:373] Creating stopping criterion with minIter 1855 frequency 11
[OGL LOG][Proc: 0]p: generate_solver: 0.007 [ms]
[OGL LOG][Proc: 0]p: solve: 11959.6 [ms]
[OGL LOG][Proc: 0]p: copy_x_back: 21.364 [ms]
[OGL LOG][lduLduBase.H:330] 
Statistics:
	Time per iteration: 3867 [mu s]
	Time per residual norm calculation: 379.000000 [mu s]
	Time per iteration and DOF: 0.060422 [ns]
	Retrieve results bandwidth 2.995000 [GByte/s]
[OGL LOG][Proc: 0]p: solve_multi_gpu: 12069.8 [ms]
nonehipGKOCG:  Solving for p, Initial residual = 0.961377, Final residual = 8.59599e-05, No Iterations 3092
[INFO] SolveP: 12191.7 [ms]
time step continuity errors : sum local = 1.3864e-08, global = 8.55344e-22, cumulative = 2.19532e-21
[INFO] ContinuityError: 112.56 [ms]
[INFO] CorrectBoundary: 1.609 [ms]
[INFO] PISOStep: 13653.2 [ms]
[INFO] MatrixAssemblyPI: 789.634 [ms]
[INFO] AdjustPhi: 48.643 [ms]
[INFO] ConstrainPressure: 0.003 [ms]
[INFO] MatrixAssemblyPII: 230.241 [ms]
[OGL LOG][Proc: 0]: global_index_init: 0.762 [ms]
[OGL LOG][Proc: 0]p_local_coeffs: call_update: 0 [ms]
[OGL LOG][Proc: 0]p_non_local_coeffs: call_update: 0 [ms]
[OGL LOG][Proc: 0]p: update_local_matrix_data: 91.888 [ms]
[OGL LOG][Proc: 0]p: update_non_local_matrix_data: 0.394 [ms]
[OGL LOG][Proc: 0]p_matrix: call_update: 74.379 [ms]
[OGL LOG][Proc: 0]p_rhs: call_update: 13.115 [ms]
[OGL LOG][Proc: 0]p: init_precond: 0.052 [ms]
[OGL LOG][StoppingCriterion.H:373] Creating stopping criterion with minIter 1855 frequency 11
[OGL LOG][Proc: 0]p: generate_solver: 0.005 [ms]
[OGL LOG][Proc: 0]p: solve: 12622.6 [ms]
[OGL LOG][Proc: 0]p: copy_x_back: 20.467 [ms]
[OGL LOG][lduLduBase.H:330] 
Statistics:
	Time per iteration: 4082 [mu s]
	Time per residual norm calculation: 362.000000 [mu s]
	Time per iteration and DOF: 0.063781 [ns]
	Retrieve results bandwidth 3.126000 [GByte/s]
[OGL LOG][Proc: 0]p: solve_multi_gpu: 12732.9 [ms]
nonehipGKOCG:  Solving for p, Initial residual = 0.917466, Final residual = 8.56897e-05, No Iterations 3092
[INFO] SolveP: 12850.5 [ms]
time step continuity errors : sum local = 1.37702e-08, global = -1.66199e-22, cumulative = 2.02912e-21
[INFO] ContinuityError: 112.327 [ms]
[INFO] CorrectBoundary: 2.01 [ms]
[INFO] PISOStep: 14294.2 [ms]
[INFO] TimeStep: 35690.3 [ms]
ExecutionTime = 275.64 s  ClockTime = 231 s

Time = 0.001

Courant Number mean: 0.0300284 max: 0.490999
[INFO] MatrixAssemblyU: 612.447 [ms]
DILUPBiCGStab:  Solving for Ux, Initial residual = 0.0362123, Final residual = 0.00374599, No Iterations 5
DILUPBiCGStab:  Solving for Uy, Initial residual = 0.170058, Final residual = 0.0132328, No Iterations 5
DILUPBiCGStab:  Solving for Uz, Initial residual = 0.67778, Final residual = 0.0377956, No Iterations 5
[INFO] MomentumPredictor: 7024.95 [ms]
[INFO] MatrixAssemblyPI: 805.274 [ms]
[INFO] AdjustPhi: 47.077 [ms]
[INFO] ConstrainPressure: 0.004 [ms]
[INFO] MatrixAssemblyPII: 230.1 [ms]
[OGL LOG][Proc: 0]: global_index_init: 0.224 [ms]
[OGL LOG][Proc: 0]p_local_coeffs: call_update: 0 [ms]
[OGL LOG][Proc: 0]p_non_local_coeffs: call_update: 0 [ms]
[OGL LOG][Proc: 0]p: update_local_matrix_data: 91.354 [ms]
[OGL LOG][Proc: 0]p: update_non_local_matrix_data: 0.433 [ms]
[OGL LOG][Proc: 0]p_matrix: call_update: 77.806 [ms]
[OGL LOG][Proc: 0]p_rhs: call_update: 13.03 [ms]
[OGL LOG][Proc: 0]p: init_precond: 0.054 [ms]
[OGL LOG][StoppingCriterion.H:373] Creating stopping criterion with minIter 1855 frequency 10
[OGL LOG][Proc: 0]p: generate_solver: 0.005 [ms]
[OGL LOG][Proc: 0]p: solve: 12035.9 [ms]
[OGL LOG][Proc: 0]p: copy_x_back: 20.589 [ms]
[OGL LOG][lduLduBase.H:330] 
Statistics:
	Time per iteration: 3893 [mu s]
	Time per residual norm calculation: 378.000000 [mu s]
	Time per iteration and DOF: 0.060828 [ns]
	Retrieve results bandwidth 3.108000 [GByte/s]
[OGL LOG][Proc: 0]p: solve_multi_gpu: 12153.2 [ms]
nonehipGKOCG:  Solving for p, Initial residual = 0.959296, Final residual = 9.18384e-05, No Iterations 3091
[INFO] SolveP: 12272.7 [ms]
time step continuity errors : sum local = 1.70533e-08, global = 1.09832e-21, cumulative = 3.12745e-21
[INFO] ContinuityError: 116.091 [ms]
[INFO] CorrectBoundary: 3.714 [ms]
[INFO] PISOStep: 13738.1 [ms]
[INFO] MatrixAssemblyPI: 789.65 [ms]
[INFO] AdjustPhi: 48.373 [ms]
[INFO] ConstrainPressure: 0.004 [ms]
[INFO] MatrixAssemblyPII: 229.99 [ms]
[OGL LOG][Proc: 0]: global_index_init: 1.225 [ms]
[OGL LOG][Proc: 0]p_local_coeffs: call_update: 0 [ms]
[OGL LOG][Proc: 0]p_non_local_coeffs: call_update: 0 [ms]
[OGL LOG][Proc: 0]p: update_local_matrix_data: 92.054 [ms]
[OGL LOG][Proc: 0]p: update_non_local_matrix_data: 0.393 [ms]
[OGL LOG][Proc: 0]p_matrix: call_update: 82.467 [ms]
[OGL LOG][Proc: 0]p_rhs: call_update: 9.322 [ms]
[OGL LOG][Proc: 0]p: init_precond: 0.053 [ms]
[OGL LOG][StoppingCriterion.H:373] Creating stopping criterion with minIter 1854 frequency 11
[OGL LOG][Proc: 0]p: generate_solver: 0.005 [ms]
[OGL LOG][Proc: 0]p: solve: 12822.8 [ms]
[OGL LOG][Proc: 0]p: copy_x_back: 21.13 [ms]
[OGL LOG][lduLduBase.H:330] 
Statistics:
	Time per iteration: 4161 [mu s]
	Time per residual norm calculation: 384.000000 [mu s]
	Time per iteration and DOF: 0.065016 [ns]
	Retrieve results bandwidth 3.028000 [GByte/s]
[OGL LOG][Proc: 0]p: solve_multi_gpu: 12938.7 [ms]
nonehipGKOCG:  Solving for p, Initial residual = 0.897713, Final residual = 9.82528e-05, No Iterations 3081
[INFO] SolveP: 13058.1 [ms]
time step continuity errors : sum local = 1.85157e-08, global = 5.89793e-22, cumulative = 3.71724e-21
[INFO] ContinuityError: 118.624 [ms]
[INFO] CorrectBoundary: 1.508 [ms]
[INFO] PISOStep: 14508.7 [ms]
[INFO] TimeStep: 35987.6 [ms]
ExecutionTime = 319.16 s  ClockTime = 267 s

Time = 0.001125

Courant Number mean: 0.0318559 max: 0.695113
[INFO] MatrixAssemblyU: 616.223 [ms]
DILUPBiCGStab:  Solving for Ux, Initial residual = 0.0374946, Final residual = 0.00354476, No Iterations 5
DILUPBiCGStab:  Solving for Uy, Initial residual = 0.187154, Final residual = 0.0137048, No Iterations 5
DILUPBiCGStab:  Solving for Uz, Initial residual = 0.689724, Final residual = 0.0359729, No Iterations 5
[INFO] MomentumPredictor: 7016.24 [ms]
[INFO] MatrixAssemblyPI: 806.166 [ms]
[INFO] AdjustPhi: 45.305 [ms]
[INFO] ConstrainPressure: 0.005 [ms]
[INFO] MatrixAssemblyPII: 230.425 [ms]
[OGL LOG][Proc: 0]: global_index_init: 0.328 [ms]
[OGL LOG][Proc: 0]p_local_coeffs: call_update: 0 [ms]
[OGL LOG][Proc: 0]p_non_local_coeffs: call_update: 0 [ms]
[OGL LOG][Proc: 0]p: update_local_matrix_data: 90.907 [ms]
[OGL LOG][Proc: 0]p: update_non_local_matrix_data: 0.428 [ms]
[OGL LOG][Proc: 0]p_matrix: call_update: 80.93 [ms]
[OGL LOG][Proc: 0]p_rhs: call_update: 13.226 [ms]
[OGL LOG][Proc: 0]p: init_precond: 0.051 [ms]
[OGL LOG][StoppingCriterion.H:373] Creating stopping criterion with minIter 1848 frequency 11
[OGL LOG][Proc: 0]p: generate_solver: 0.006 [ms]
[OGL LOG][Proc: 0]p: solve: 12129.7 [ms]
[OGL LOG][Proc: 0]p: copy_x_back: 20.237 [ms]
[OGL LOG][lduLduBase.H:330] 
Statistics:
	Time per iteration: 3936 [mu s]
	Time per residual norm calculation: 370.000000 [mu s]
	Time per iteration and DOF: 0.061500 [ns]
	Retrieve results bandwidth 3.162000 [GByte/s]
[OGL LOG][Proc: 0]p: solve_multi_gpu: 12247.8 [ms]
nonehipGKOCG:  Solving for p, Initial residual = 0.967373, Final residual = 9.01763e-05, No Iterations 3081
[INFO] SolveP: 12366.5 [ms]
time step continuity errors : sum local = 1.92312e-08, global = 5.93657e-22, cumulative = 4.3109e-21
[INFO] ContinuityError: 115.467 [ms]
[INFO] CorrectBoundary: 5.601 [ms]
[INFO] PISOStep: 13833.7 [ms]
[INFO] MatrixAssemblyPI: 786.036 [ms]
[INFO] AdjustPhi: 52.978 [ms]
[INFO] ConstrainPressure: 0.005 [ms]
[INFO] MatrixAssemblyPII: 231.601 [ms]
[OGL LOG][Proc: 0]: global_index_init: 0.036 [ms]
[OGL LOG][Proc: 0]p_local_coeffs: call_update: 0 [ms]
[OGL LOG][Proc: 0]p_non_local_coeffs: call_update: 0 [ms]
[OGL LOG][Proc: 0]p: update_local_matrix_data: 91.294 [ms]
[OGL LOG][Proc: 0]p: update_non_local_matrix_data: 0.412 [ms]
[OGL LOG][Proc: 0]p_matrix: call_update: 87.822 [ms]
[OGL LOG][Proc: 0]p_rhs: call_update: 10.289 [ms]
[OGL LOG][Proc: 0]p: init_precond: 0.055 [ms]
[OGL LOG][StoppingCriterion.H:373] Creating stopping criterion with minIter 1848 frequency 11
[OGL LOG][Proc: 0]p: generate_solver: 0.004 [ms]
[OGL LOG][Proc: 0]p: solve: 12894.1 [ms]
[OGL LOG][Proc: 0]p: copy_x_back: 22.038 [ms]
[OGL LOG][lduLduBase.H:330] 
Statistics:
	Time per iteration: 4200 [mu s]
	Time per residual norm calculation: 384.000000 [mu s]
	Time per iteration and DOF: 0.065625 [ns]
	Retrieve results bandwidth 2.904000 [GByte/s]
[OGL LOG][Proc: 0]p: solve_multi_gpu: 13017.5 [ms]
nonehipGKOCG:  Solving for p, Initial residual = 0.918665, Final residual = 9.95287e-05, No Iterations 3070
[INFO] SolveP: 13135.5 [ms]
time step continuity errors : sum local = 2.1198e-08, global = 2.18789e-22, cumulative = 4.52969e-21
[INFO] ContinuityError: 111.678 [ms]
[INFO] CorrectBoundary: 4.374 [ms]
[INFO] PISOStep: 14582.6 [ms]
[INFO] TimeStep: 36151.5 [ms]
ExecutionTime = 362.81 s  ClockTime = 303 s

Time = 0.00125

Courant Number mean: 0.0332829 max: 0.507064
[INFO] MatrixAssemblyU: 611.569 [ms]
DILUPBiCGStab:  Solving for Ux, Initial residual = 0.0409484, Final residual = 0.0036077, No Iterations 5
DILUPBiCGStab:  Solving for Uy, Initial residual = 0.18608, Final residual = 0.0120941, No Iterations 5
DILUPBiCGStab:  Solving for Uz, Initial residual = 0.690834, Final residual = 0.0348617, No Iterations 5
[INFO] MomentumPredictor: 7027.36 [ms]
[INFO] MatrixAssemblyPI: 804.227 [ms]
[INFO] AdjustPhi: 46.483 [ms]
[INFO] ConstrainPressure: 0.004 [ms]
[INFO] MatrixAssemblyPII: 231.868 [ms]
[OGL LOG][Proc: 0]: global_index_init: 0.495 [ms]
[OGL LOG][Proc: 0]p_local_coeffs: call_update: 0 [ms]
[OGL LOG][Proc: 0]p_non_local_coeffs: call_update: 0 [ms]
[OGL LOG][Proc: 0]p: update_local_matrix_data: 91.589 [ms]
[OGL LOG][Proc: 0]p: update_non_local_matrix_data: 0.386 [ms]
[OGL LOG][Proc: 0]p_matrix: call_update: 79.682 [ms]
[OGL LOG][Proc: 0]p_rhs: call_update: 15.128 [ms]
[OGL LOG][Proc: 0]p: init_precond: 0.051 [ms]
[OGL LOG][StoppingCriterion.H:373] Creating stopping criterion with minIter 1842 frequency 11
[OGL LOG][Proc: 0]p: generate_solver: 0.006 [ms]
[OGL LOG][Proc: 0]p: solve: 12082.5 [ms]
[OGL LOG][Proc: 0]p: copy_x_back: 20.356 [ms]
[OGL LOG][lduLduBase.H:330] 
Statistics:
	Time per iteration: 3935 [mu s]
	Time per residual norm calculation: 370.000000 [mu s]
	Time per iteration and DOF: 0.061484 [ns]
	Retrieve results bandwidth 3.144000 [GByte/s]
[OGL LOG][Proc: 0]p: solve_multi_gpu: 12200.5 [ms]
nonehipGKOCG:  Solving for p, Initial residual = 0.966717, Final residual = 9.45062e-05, No Iterations 3070
[INFO] SolveP: 12319.7 [ms]
time step continuity errors : sum local = 2.3498e-08, global = 1.54634e-21, cumulative = 6.07603e-21
[INFO] ContinuityError: 113.741 [ms]
[INFO] CorrectBoundary: 1.399 [ms]
[INFO] PISOStep: 13775.5 [ms]
[INFO] MatrixAssemblyPI: 787.958 [ms]
[INFO] AdjustPhi: 45.083 [ms]
[INFO] ConstrainPressure: 0.004 [ms]
[INFO] MatrixAssemblyPII: 230.088 [ms]
[OGL LOG][Proc: 0]: global_index_init: 0.239 [ms]
[OGL LOG][Proc: 0]p_local_coeffs: call_update: 0 [ms]
[OGL LOG][Proc: 0]p_non_local_coeffs: call_update: 0 [ms]
[OGL LOG][Proc: 0]p: update_local_matrix_data: 91.236 [ms]
[OGL LOG][Proc: 0]p: update_non_local_matrix_data: 0.434 [ms]
[OGL LOG][Proc: 0]p_matrix: call_update: 79.924 [ms]
[OGL LOG][Proc: 0]p_rhs: call_update: 17.063 [ms]
[OGL LOG][Proc: 0]p: init_precond: 0.051 [ms]
[OGL LOG][StoppingCriterion.H:373] Creating stopping criterion with minIter 1842 frequency 11
[OGL LOG][Proc: 0]p: generate_solver: 0.004 [ms]
[OGL LOG][Proc: 0]p: solve: 12506.7 [ms]
[OGL LOG][Proc: 0]p: copy_x_back: 21.837 [ms]
[OGL LOG][lduLduBase.H:330] 
Statistics:
	Time per iteration: 4073 [mu s]
	Time per residual norm calculation: 377.000000 [mu s]
	Time per iteration and DOF: 0.063641 [ns]
	Retrieve results bandwidth 2.930000 [GByte/s]
[OGL LOG][Proc: 0]p: solve_multi_gpu: 12629.3 [ms]
nonehipGKOCG:  Solving for p, Initial residual = 0.903572, Final residual = 9.57937e-05, No Iterations 3070
[INFO] SolveP: 12747.5 [ms]
time step continuity errors : sum local = 2.41399e-08, global = 6.57557e-22, cumulative = 6.73359e-21
[INFO] ContinuityError: 115.273 [ms]
[INFO] CorrectBoundary: 1.947 [ms]
[INFO] PISOStep: 14189.1 [ms]
[INFO] TimeStep: 35707.3 [ms]
ExecutionTime = 406.02 s  ClockTime = 339 s

Time = 0.001375

Courant Number mean: 0.0349039 max: 0.826018
[INFO] MatrixAssemblyU: 616.23 [ms]
DILUPBiCGStab:  Solving for Ux, Initial residual = 0.0437727, Final residual = 0.00345852, No Iterations 5
DILUPBiCGStab:  Solving for Uy, Initial residual = 0.210133, Final residual = 0.0131209, No Iterations 5
DILUPBiCGStab:  Solving for Uz, Initial residual = 0.705782, Final residual = 0.0343464, No Iterations 5
[INFO] MomentumPredictor: 7028.99 [ms]
[INFO] MatrixAssemblyPI: 802.656 [ms]
[INFO] AdjustPhi: 49.003 [ms]
[INFO] ConstrainPressure: 0.004 [ms]
[INFO] MatrixAssemblyPII: 230.739 [ms]
[OGL LOG][Proc: 0]: global_index_init: 0.622 [ms]
[OGL LOG][Proc: 0]p_local_coeffs: call_update: 0 [ms]
[OGL LOG][Proc: 0]p_non_local_coeffs: call_update: 0 [ms]
[OGL LOG][Proc: 0]p: update_local_matrix_data: 91.159 [ms]
[OGL LOG][Proc: 0]p: update_non_local_matrix_data: 0.43 [ms]
[OGL LOG][Proc: 0]p_matrix: call_update: 84.847 [ms]
[OGL LOG][Proc: 0]p_rhs: call_update: 7.339 [ms]
[OGL LOG][Proc: 0]p: init_precond: 0.054 [ms]
[OGL LOG][StoppingCriterion.H:373] Creating stopping criterion with minIter 1842 frequency 11
[OGL LOG][Proc: 0]p: generate_solver: 0.006 [ms]
[OGL LOG][Proc: 0]p: solve: 12096.2 [ms]
[OGL LOG][Proc: 0]p: copy_x_back: 21.433 [ms]
[OGL LOG][lduLduBase.H:330] 
Statistics:
	Time per iteration: 3940 [mu s]
	Time per residual norm calculation: 365.000000 [mu s]
	Time per iteration and DOF: 0.061562 [ns]
	Retrieve results bandwidth 2.986000 [GByte/s]
[OGL LOG][Proc: 0]p: solve_multi_gpu: 12214.9 [ms]
nonehipGKOCG:  Solving for p, Initial residual = 0.972347, Final residual = 9.89008e-05, No Iterations 3070
[INFO] SolveP: 12331.9 [ms]
time step continuity errors : sum local = 2.85978e-08, global = 6.40962e-22, cumulative = 7.37455e-21
[INFO] ContinuityError: 113.086 [ms]
[INFO] CorrectBoundary: 2.378 [ms]
[INFO] PISOStep: 13786.8 [ms]
[INFO] MatrixAssemblyPI: 787.339 [ms]
[INFO] AdjustPhi: 46.794 [ms]
[INFO] ConstrainPressure: 0.004 [ms]
[INFO] MatrixAssemblyPII: 231.545 [ms]
[OGL LOG][Proc: 0]: global_index_init: 0.473 [ms]
[OGL LOG][Proc: 0]p_local_coeffs: call_update: 0 [ms]
[OGL LOG][Proc: 0]p_non_local_coeffs: call_update: 0 [ms]
[OGL LOG][Proc: 0]p: update_local_matrix_data: 91.867 [ms]
[OGL LOG][Proc: 0]p: update_non_local_matrix_data: 0.388 [ms]
[OGL LOG][Proc: 0]p_matrix: call_update: 85.918 [ms]
[OGL LOG][Proc: 0]p_rhs: call_update: 8.863 [ms]
[OGL LOG][Proc: 0]p: init_precond: 0.053 [ms]
[OGL LOG][StoppingCriterion.H:373] Creating stopping criterion with minIter 1842 frequency 11
[OGL LOG][Proc: 0]p: generate_solver: 0.006 [ms]
[OGL LOG][Proc: 0]p: solve: 12563.9 [ms]
[OGL LOG][Proc: 0]p: copy_x_back: 20.397 [ms]
[OGL LOG][lduLduBase.H:330] 
Statistics:
	Time per iteration: 4092 [mu s]
	Time per residual norm calculation: 377.000000 [mu s]
	Time per iteration and DOF: 0.063937 [ns]
	Retrieve results bandwidth 3.137000 [GByte/s]
[OGL LOG][Proc: 0]p: solve_multi_gpu: 12682 [ms]
nonehipGKOCG:  Solving for p, Initial residual = 0.919681, Final residual = 9.92896e-05, No Iterations 3070
[INFO] SolveP: 12803.9 [ms]
time step continuity errors : sum local = 2.87306e-08, global = 6.25245e-22, cumulative = 7.99979e-21
[INFO] ContinuityError: 115.603 [ms]
[INFO] CorrectBoundary: 4.627 [ms]
[INFO] PISOStep: 14246.9 [ms]
[INFO] TimeStep: 35784.2 [ms]
ExecutionTime = 449.27 s  ClockTime = 375 s

Time = 0.0015

Courant Number mean: 0.0361123 max: 0.5986
[INFO] MatrixAssemblyU: 619.116 [ms]
DILUPBiCGStab:  Solving for Ux, Initial residual = 0.0493676, Final residual = 0.00365861, No Iterations 5
DILUPBiCGStab:  Solving for Uy, Initial residual = 0.214691, Final residual = 0.0120472, No Iterations 5
DILUPBiCGStab:  Solving for Uz, Initial residual = 0.710325, Final residual = 0.0338819, No Iterations 5
[INFO] MomentumPredictor: 7035.61 [ms]
[INFO] MatrixAssemblyPI: 805.368 [ms]
[INFO] AdjustPhi: 49.364 [ms]
[INFO] ConstrainPressure: 0.005 [ms]
[INFO] MatrixAssemblyPII: 230.259 [ms]
[OGL LOG][Proc: 0]: global_index_init: 0.478 [ms]
[OGL LOG][Proc: 0]p_local_coeffs: call_update: 0 [ms]
[OGL LOG][Proc: 0]p_non_local_coeffs: call_update: 0 [ms]
[OGL LOG][Proc: 0]p: update_local_matrix_data: 91.472 [ms]
[OGL LOG][Proc: 0]p: update_non_local_matrix_data: 0.42 [ms]
[OGL LOG][Proc: 0]p_matrix: call_update: 82.437 [ms]
[OGL LOG][Proc: 0]p_rhs: call_update: 9.093 [ms]
[OGL LOG][Proc: 0]p: init_precond: 0.056 [ms]
[OGL LOG][StoppingCriterion.H:373] Creating stopping criterion with minIter 1842 frequency 11
[OGL LOG][Proc: 0]p: generate_solver: 0.005 [ms]
[OGL LOG][Proc: 0]p: solve: 11957.6 [ms]
[OGL LOG][Proc: 0]p: copy_x_back: 21.566 [ms]
[OGL LOG][lduLduBase.H:330] 
Statistics:
	Time per iteration: 3881 [mu s]
	Time per residual norm calculation: 381.000000 [mu s]
	Time per iteration and DOF: 0.060641 [ns]
	Retrieve results bandwidth 2.967000 [GByte/s]
[OGL LOG][Proc: 0]p: solve_multi_gpu: 12074.9 [ms]
nonehipGKOCG:  Solving for p, Initial residual = 0.972607, Final residual = 9.2368e-05, No Iterations 3081
[INFO] SolveP: 12192.9 [ms]
time step continuity errors : sum local = 3.13655e-08, global = 5.82839e-22, cumulative = 8.58263e-21
[INFO] ContinuityError: 113.987 [ms]
[INFO] CorrectBoundary: 1.419 [ms]
[INFO] PISOStep: 13653.1 [ms]
[INFO] MatrixAssemblyPI: 783.124 [ms]
[INFO] AdjustPhi: 49.901 [ms]
[INFO] ConstrainPressure: 0.004 [ms]
[INFO] MatrixAssemblyPII: 233.325 [ms]
[OGL LOG][Proc: 0]: global_index_init: 0.744 [ms]
[OGL LOG][Proc: 0]p_local_coeffs: call_update: 0 [ms]
[OGL LOG][Proc: 0]p_non_local_coeffs: call_update: 0 [ms]
[OGL LOG][Proc: 0]p: update_local_matrix_data: 91.055 [ms]
[OGL LOG][Proc: 0]p: update_non_local_matrix_data: 0.405 [ms]
[OGL LOG][Proc: 0]p_matrix: call_update: 78.438 [ms]
[OGL LOG][Proc: 0]p_rhs: call_update: 17.663 [ms]
[OGL LOG][Proc: 0]p: init_precond: 0.052 [ms]
[OGL LOG][StoppingCriterion.H:373] Creating stopping criterion with minIter 1848 frequency 11
[OGL LOG][Proc: 0]p: generate_solver: 0.006 [ms]
[OGL LOG][Proc: 0]p: solve: 12551.5 [ms]
[OGL LOG][Proc: 0]p: copy_x_back: 21.475 [ms]
[OGL LOG][lduLduBase.H:330] 
Statistics:
	Time per iteration: 4088 [mu s]
	Time per residual norm calculation: 387.000000 [mu s]
	Time per iteration and DOF: 0.063875 [ns]
	Retrieve results bandwidth 2.980000 [GByte/s]
[OGL LOG][Proc: 0]p: solve_multi_gpu: 12674.2 [ms]
nonehipGKOCG:  Solving for p, Initial residual = 0.908735, Final residual = 9.81814e-05, No Iterations 3070
[INFO] SolveP: 12790.7 [ms]
time step continuity errors : sum local = 3.37476e-08, global = 5.50928e-22, cumulative = 9.13356e-21
[INFO] ContinuityError: 113.603 [ms]
[INFO] CorrectBoundary: 2.419 [ms]
[INFO] PISOStep: 14231.7 [ms]
[INFO] TimeStep: 35642.9 [ms]
ExecutionTime = 492.41 s  ClockTime = 410 s

Time = 0.001625

Courant Number mean: 0.0376292 max: 1.14476
[INFO] MatrixAssemblyU: 630.793 [ms]
DILUPBiCGStab:  Solving for Ux, Initial residual = 0.0541272, Final residual = 0.0036143, No Iterations 5
DILUPBiCGStab:  Solving for Uy, Initial residual = 0.243594, Final residual = 0.0133122, No Iterations 5
DILUPBiCGStab:  Solving for Uz, Initial residual = 0.723491, Final residual = 0.033721, No Iterations 5
[INFO] MomentumPredictor: 7030.53 [ms]
[INFO] MatrixAssemblyPI: 805.107 [ms]
[INFO] AdjustPhi: 53.376 [ms]
[INFO] ConstrainPressure: 0.004 [ms]
[INFO] MatrixAssemblyPII: 230.102 [ms]
[OGL LOG][Proc: 0]: global_index_init: 0.519 [ms]
[OGL LOG][Proc: 0]p_local_coeffs: call_update: 0 [ms]
[OGL LOG][Proc: 0]p_non_local_coeffs: call_update: 0 [ms]
[OGL LOG][Proc: 0]p: update_local_matrix_data: 91.806 [ms]
[OGL LOG][Proc: 0]p: update_non_local_matrix_data: 0.434 [ms]
[OGL LOG][Proc: 0]p_matrix: call_update: 76.301 [ms]
[OGL LOG][Proc: 0]p_rhs: call_update: 14.88 [ms]
[OGL LOG][Proc: 0]p: init_precond: 0.052 [ms]
[OGL LOG][StoppingCriterion.H:373] Creating stopping criterion with minIter 1842 frequency 11
[OGL LOG][Proc: 0]p: generate_solver: 0.004 [ms]
[OGL LOG][Proc: 0]p: solve: 11852.7 [ms]
[OGL LOG][Proc: 0]p: copy_x_back: 20.615 [ms]
[OGL LOG][lduLduBase.H:330] 
Statistics:
	Time per iteration: 3847 [mu s]
	Time per residual norm calculation: 389.000000 [mu s]
	Time per iteration and DOF: 0.060109 [ns]
	Retrieve results bandwidth 3.104000 [GByte/s]
[OGL LOG][Proc: 0]p: solve_multi_gpu: 11968.8 [ms]
nonehipGKOCG:  Solving for p, Initial residual = 0.976284, Final residual = 9.26715e-05, No Iterations 3081
[INFO] SolveP: 12088.3 [ms]
time step continuity errors : sum local = 3.69429e-08, global = 3.62292e-22, cumulative = 9.49585e-21
[INFO] ContinuityError: 113.53 [ms]
[INFO] CorrectBoundary: 2.26 [ms]
[INFO] PISOStep: 13551.2 [ms]
[INFO] MatrixAssemblyPI: 782.821 [ms]
[INFO] AdjustPhi: 50.699 [ms]
[INFO] ConstrainPressure: 0.004 [ms]
[INFO] MatrixAssemblyPII: 232.08 [ms]
[OGL LOG][Proc: 0]: global_index_init: 0.227 [ms]
[OGL LOG][Proc: 0]p_local_coeffs: call_update: 0 [ms]
[OGL LOG][Proc: 0]p_non_local_coeffs: call_update: 0 [ms]
[OGL LOG][Proc: 0]p: update_local_matrix_data: 90.58 [ms]
[OGL LOG][Proc: 0]p: update_non_local_matrix_data: 0.393 [ms]
[OGL LOG][Proc: 0]p_matrix: call_update: 73.015 [ms]
[OGL LOG][Proc: 0]p_rhs: call_update: 24.324 [ms]
[OGL LOG][Proc: 0]p: init_precond: 0.053 [ms]
[OGL LOG][StoppingCriterion.H:373] Creating stopping criterion with minIter 1848 frequency 11
[OGL LOG][Proc: 0]p: generate_solver: 0.008 [ms]
[OGL LOG][Proc: 0]p: solve: 12222.3 [ms]
[OGL LOG][Proc: 0]p: copy_x_back: 20.617 [ms]
[OGL LOG][lduLduBase.H:330] 
Statistics:
	Time per iteration: 3981 [mu s]
	Time per residual norm calculation: 366.000000 [mu s]
	Time per iteration and DOF: 0.062203 [ns]
	Retrieve results bandwidth 3.104000 [GByte/s]
[OGL LOG][Proc: 0]p: solve_multi_gpu: 12344.4 [ms]
nonehipGKOCG:  Solving for p, Initial residual = 0.920465, Final residual = 9.7651e-05, No Iterations 3070
[INFO] SolveP: 12460.1 [ms]
time step continuity errors : sum local = 3.90261e-08, global = 9.97812e-22, cumulative = 1.04937e-20
[INFO] ContinuityError: 113.264 [ms]
[INFO] CorrectBoundary: 1.868 [ms]
[INFO] PISOStep: 13900.6 [ms]
[INFO] TimeStep: 35216.4 [ms]
ExecutionTime = 535.12 s  ClockTime = 446 s

Time = 0.00175

Courant Number mean: 0.0386973 max: 1.02176
[INFO] MatrixAssemblyU: 616.427 [ms]
DILUPBiCGStab:  Solving for Ux, Initial residual = 0.0623303, Final residual = 0.00390936, No Iterations 5
DILUPBiCGStab:  Solving for Uy, Initial residual = 0.254357, Final residual = 0.0127571, No Iterations 5
DILUPBiCGStab:  Solving for Uz, Initial residual = 0.72828, Final residual = 0.0334872, No Iterations 5
[INFO] MomentumPredictor: 7031.06 [ms]
[INFO] MatrixAssemblyPI: 807.162 [ms]
[INFO] AdjustPhi: 50.188 [ms]
[INFO] ConstrainPressure: 0.004 [ms]
[INFO] MatrixAssemblyPII: 230.234 [ms]
[OGL LOG][Proc: 0]: global_index_init: 0.744 [ms]
[OGL LOG][Proc: 0]p_local_coeffs: call_update: 0 [ms]
[OGL LOG][Proc: 0]p_non_local_coeffs: call_update: 0 [ms]
[OGL LOG][Proc: 0]p: update_local_matrix_data: 91.398 [ms]
[OGL LOG][Proc: 0]p: update_non_local_matrix_data: 0.405 [ms]
[OGL LOG][Proc: 0]p_matrix: call_update: 65.994 [ms]
[OGL LOG][Proc: 0]p_rhs: call_update: 33.932 [ms]
[OGL LOG][Proc: 0]p: init_precond: 0.05 [ms]
[OGL LOG][StoppingCriterion.H:373] Creating stopping criterion with minIter 1842 frequency 11
[OGL LOG][Proc: 0]p: generate_solver: 0.006 [ms]
[OGL LOG][Proc: 0]p: solve: 12018 [ms]
[OGL LOG][Proc: 0]p: copy_x_back: 20.406 [ms]
[OGL LOG][lduLduBase.H:330] 
Statistics:
	Time per iteration: 3900 [mu s]
	Time per residual norm calculation: 376.000000 [mu s]
	Time per iteration and DOF: 0.060937 [ns]
	Retrieve results bandwidth 3.136000 [GByte/s]
[OGL LOG][Proc: 0]p: solve_multi_gpu: 12146.6 [ms]
nonehipGKOCG:  Solving for p, Initial residual = 0.976921, Final residual = 9.46015e-05, No Iterations 3081
[INFO] SolveP: 12261.6 [ms]
time step continuity errors : sum local = 4.45364e-08, global = -1.33551e-22, cumulative = 1.03601e-20
[INFO] ContinuityError: 110.601 [ms]
[INFO] CorrectBoundary: 3.091 [ms]
[INFO] PISOStep: 13727.6 [ms]
[INFO] MatrixAssemblyPI: 782.494 [ms]
[INFO] AdjustPhi: 51.292 [ms]
[INFO] ConstrainPressure: 0.004 [ms]
[INFO] MatrixAssemblyPII: 230.66 [ms]
[OGL LOG][Proc: 0]: global_index_init: 0.144 [ms]
[OGL LOG][Proc: 0]p_local_coeffs: call_update: 0 [ms]
[OGL LOG][Proc: 0]p_non_local_coeffs: call_update: 0 [ms]
[OGL LOG][Proc: 0]p: update_local_matrix_data: 91.636 [ms]
[OGL LOG][Proc: 0]p: update_non_local_matrix_data: 0.417 [ms]
[OGL LOG][Proc: 0]p_matrix: call_update: 62.223 [ms]
[OGL LOG][Proc: 0]p_rhs: call_update: 26.601 [ms]
[OGL LOG][Proc: 0]p: init_precond: 0.059 [ms]
[OGL LOG][StoppingCriterion.H:373] Creating stopping criterion with minIter 1848 frequency 11
[OGL LOG][Proc: 0]p: generate_solver: 0.005 [ms]
[OGL LOG][Proc: 0]p: solve: 12302.8 [ms]
[OGL LOG][Proc: 0]p: copy_x_back: 20.777 [ms]
[OGL LOG][lduLduBase.H:330] 
Statistics:
	Time per iteration: 4007 [mu s]
	Time per residual norm calculation: 374.000000 [mu s]
	Time per iteration and DOF: 0.062609 [ns]
	Retrieve results bandwidth 3.080000 [GByte/s]
[OGL LOG][Proc: 0]p: solve_multi_gpu: 12415.4 [ms]
nonehipGKOCG:  Solving for p, Initial residual = 0.912812, Final residual = 9.96266e-05, No Iterations 3070
[INFO] SolveP: 12533.3 [ms]
time step continuity errors : sum local = 4.74252e-08, global = 5.04024e-22, cumulative = 1.08641e-20
[INFO] ContinuityError: 113.46 [ms]
[INFO] CorrectBoundary: 2.289 [ms]
[INFO] PISOStep: 13973 [ms]
[INFO] TimeStep: 35451.7 [ms]
ExecutionTime = 578.13 s  ClockTime = 481 s

Time = 0.001875

Courant Number mean: 0.0401861 max: 1.68542
[INFO] MatrixAssemblyU: 617.848 [ms]
DILUPBiCGStab:  Solving for Ux, Initial residual = 0.0694982, Final residual = 0.00400804, No Iterations 5
DILUPBiCGStab:  Solving for Uy, Initial residual = 0.287049, Final residual = 0.0141138, No Iterations 5
DILUPBiCGStab:  Solving for Uz, Initial residual = 0.737718, Final residual = 0.0333833, No Iterations 5
[INFO] MomentumPredictor: 7008.92 [ms]
[INFO] MatrixAssemblyPI: 802.41 [ms]
[INFO] AdjustPhi: 48.477 [ms]
[INFO] ConstrainPressure: 0.004 [ms]
[INFO] MatrixAssemblyPII: 234.06 [ms]
[OGL LOG][Proc: 0]: global_index_init: 0.035 [ms]
[OGL LOG][Proc: 0]p_local_coeffs: call_update: 0 [ms]
[OGL LOG][Proc: 0]p_non_local_coeffs: call_update: 0 [ms]
[OGL LOG][Proc: 0]p: update_local_matrix_data: 91.199 [ms]
[OGL LOG][Proc: 0]p: update_non_local_matrix_data: 0.406 [ms]
[OGL LOG][Proc: 0]p_matrix: call_update: 62.692 [ms]
[OGL LOG][Proc: 0]p_rhs: call_update: 19.541 [ms]
[OGL LOG][Proc: 0]p: init_precond: 0.05 [ms]
[OGL LOG][StoppingCriterion.H:373] Creating stopping criterion with minIter 1842 frequency 11
[OGL LOG][Proc: 0]p: generate_solver: 0.006 [ms]
[OGL LOG][Proc: 0]p: solve: 11888.4 [ms]
[OGL LOG][Proc: 0]p: copy_x_back: 20.994 [ms]
[OGL LOG][lduLduBase.H:330] 
Statistics:
	Time per iteration: 3858 [mu s]
	Time per residual norm calculation: 379.000000 [mu s]
	Time per iteration and DOF: 0.060281 [ns]
	Retrieve results bandwidth 3.048000 [GByte/s]
[OGL LOG][Proc: 0]p: solve_multi_gpu: 11996.6 [ms]
nonehipGKOCG:  Solving for p, Initial residual = 0.979098, Final residual = 9.51727e-05, No Iterations 3081
[INFO] SolveP: 12113.2 [ms]
time step continuity errors : sum local = 5.29513e-08, global = 1.34675e-23, cumulative = 1.08776e-20
[INFO] ContinuityError: 114.66 [ms]
[INFO] CorrectBoundary: 3.18 [ms]
[INFO] PISOStep: 13576.5 [ms]
[INFO] MatrixAssemblyPI: 786.889 [ms]
[INFO] AdjustPhi: 52.939 [ms]
[INFO] ConstrainPressure: 0.005 [ms]
[INFO] MatrixAssemblyPII: 231.208 [ms]
[OGL LOG][Proc: 0]: global_index_init: 0.153 [ms]
[OGL LOG][Proc: 0]p_local_coeffs: call_update: 0 [ms]
[OGL LOG][Proc: 0]p_non_local_coeffs: call_update: 0 [ms]
[OGL LOG][Proc: 0]p: update_local_matrix_data: 91.924 [ms]
[OGL LOG][Proc: 0]p: update_non_local_matrix_data: 0.413 [ms]
[OGL LOG][Proc: 0]p_matrix: call_update: 59.097 [ms]
[OGL LOG][Proc: 0]p_rhs: call_update: 16.331 [ms]
[OGL LOG][Proc: 0]p: init_precond: 0.052 [ms]
[OGL LOG][StoppingCriterion.H:373] Creating stopping criterion with minIter 1848 frequency 11
[OGL LOG][Proc: 0]p: generate_solver: 0.006 [ms]
[OGL LOG][Proc: 0]p: solve: 12652.6 [ms]
[OGL LOG][Proc: 0]p: copy_x_back: 20.575 [ms]
[OGL LOG][lduLduBase.H:330] 
Statistics:
	Time per iteration: 4106 [mu s]
	Time per residual norm calculation: 351.000000 [mu s]
	Time per iteration and DOF: 0.064156 [ns]
	Retrieve results bandwidth 3.110000 [GByte/s]
[OGL LOG][Proc: 0]p: solve_multi_gpu: 12751.7 [ms]
nonehipGKOCG:  Solving for p, Initial residual = 0.920946, Final residual = 9.1455e-05, No Iterations 3081
[INFO] SolveP: 12873.8 [ms]
time step continuity errors : sum local = 5.10891e-08, global = 6.15526e-22, cumulative = 1.14931e-20
[INFO] ContinuityError: 114.77 [ms]
[INFO] CorrectBoundary: 1.623 [ms]
[INFO] PISOStep: 14324.1 [ms]
[INFO] TimeStep: 35631.5 [ms]
ExecutionTime = 621.32 s  ClockTime = 517 s

Time = 0.002

Courant Number mean: 0.041187 max: 1.72735
[INFO] MatrixAssemblyU: 613.973 [ms]
DILUPBiCGStab:  Solving for Ux, Initial residual = 0.0812807, Final residual = 0.00442286, No Iterations 5
DILUPBiCGStab:  Solving for Uy, Initial residual = 0.304258, Final residual = 0.0140033, No Iterations 5
DILUPBiCGStab:  Solving for Uz, Initial residual = 0.741471, Final residual = 0.0331585, No Iterations 5
[INFO] MomentumPredictor: 7032.68 [ms]
[INFO] MatrixAssemblyPI: 800.98 [ms]
[INFO] AdjustPhi: 54.882 [ms]
[INFO] ConstrainPressure: 0.004 [ms]
[INFO] MatrixAssemblyPII: 231.062 [ms]
[OGL LOG][Proc: 0]: global_index_init: 0.49 [ms]
[OGL LOG][Proc: 0]p_local_coeffs: call_update: 0 [ms]
[OGL LOG][Proc: 0]p_non_local_coeffs: call_update: 0 [ms]
[OGL LOG][Proc: 0]p: update_local_matrix_data: 91.818 [ms]
[OGL LOG][Proc: 0]p: update_non_local_matrix_data: 0.418 [ms]
[OGL LOG][Proc: 0]p_matrix: call_update: 52.442 [ms]
[OGL LOG][Proc: 0]p_rhs: call_update: 20.13 [ms]
[OGL LOG][Proc: 0]p: init_precond: 0.051 [ms]
[OGL LOG][StoppingCriterion.H:373] Creating stopping criterion with minIter 1848 frequency 10
[OGL LOG][Proc: 0]p: generate_solver: 0.005 [ms]
[OGL LOG][Proc: 0]p: solve: 12025.5 [ms]
[OGL LOG][Proc: 0]p: copy_x_back: 21.728 [ms]
[OGL LOG][lduLduBase.H:330] 
Statistics:
	Time per iteration: 3903 [mu s]
	Time per residual norm calculation: 368.000000 [mu s]
	Time per iteration and DOF: 0.060984 [ns]
	Retrieve results bandwidth 2.945000 [GByte/s]
[OGL LOG][Proc: 0]p: solve_multi_gpu: 12122.8 [ms]
nonehipGKOCG:  Solving for p, Initial residual = 0.980226, Final residual = 9.73578e-05, No Iterations 3081
[INFO] SolveP: 12241.4 [ms]
time step continuity errors : sum local = 6.42691e-08, global = 1.26998e-22, cumulative = 1.16201e-20
[INFO] ContinuityError: 116.38 [ms]
[INFO] CorrectBoundary: 4.609 [ms]
[INFO] PISOStep: 13711.5 [ms]
[INFO] MatrixAssemblyPI: 785.041 [ms]
[INFO] AdjustPhi: 55.105 [ms]
[INFO] ConstrainPressure: 0.004 [ms]
[INFO] MatrixAssemblyPII: 229.39 [ms]
[OGL LOG][Proc: 0]: global_index_init: 0.261 [ms]
[OGL LOG][Proc: 0]p_local_coeffs: call_update: 0 [ms]
[OGL LOG][Proc: 0]p_non_local_coeffs: call_update: 0 [ms]
[OGL LOG][Proc: 0]p: update_local_matrix_data: 91.35 [ms]
[OGL LOG][Proc: 0]p: update_non_local_matrix_data: 0.408 [ms]
[OGL LOG][Proc: 0]p_matrix: call_update: 61.242 [ms]
[OGL LOG][Proc: 0]p_rhs: call_update: 10.203 [ms]
[OGL LOG][Proc: 0]p: init_precond: 0.049 [ms]
[OGL LOG][StoppingCriterion.H:373] Creating stopping criterion with minIter 1848 frequency 11
[OGL LOG][Proc: 0]p: generate_solver: 0.005 [ms]
[OGL LOG][Proc: 0]p: solve: 12551.6 [ms]
[OGL LOG][Proc: 0]p: copy_x_back: 20.473 [ms]
[OGL LOG][lduLduBase.H:330] 
Statistics:
	Time per iteration: 4073 [mu s]
	Time per residual norm calculation: 367.000000 [mu s]
	Time per iteration and DOF: 0.063641 [ns]
	Retrieve results bandwidth 3.126000 [GByte/s]
[OGL LOG][Proc: 0]p: solve_multi_gpu: 12648 [ms]
nonehipGKOCG:  Solving for p, Initial residual = 0.915896, Final residual = 9.49217e-05, No Iterations 3081
[INFO] SolveP: 12769.8 [ms]
time step continuity errors : sum local = 6.33072e-08, global = -1.66522e-22, cumulative = 1.14536e-20
[INFO] ContinuityError: 112.068 [ms]
[INFO] CorrectBoundary: 2.835 [ms]
[INFO] PISOStep: 14218.8 [ms]
[INFO] TimeStep: 35680.5 [ms]
ExecutionTime = 664.54 s  ClockTime = 552 s

Time = 0.002125

Courant Number mean: 0.0427188 max: 2.56761
[INFO] MatrixAssemblyU: 608.603 [ms]
DILUPBiCGStab:  Solving for Ux, Initial residual = 0.0915581, Final residual = 0.0046883, No Iterations 5
DILUPBiCGStab:  Solving for Uy, Initial residual = 0.340013, Final residual = 0.0154238, No Iterations 5
DILUPBiCGStab:  Solving for Uz, Initial residual = 0.747532, Final residual = 0.033051, No Iterations 5
[INFO] MomentumPredictor: 7025.61 [ms]
[INFO] MatrixAssemblyPI: 802.095 [ms]
[INFO] AdjustPhi: 54.332 [ms]
[INFO] ConstrainPressure: 0.004 [ms]
[INFO] MatrixAssemblyPII: 231.139 [ms]
[OGL LOG][Proc: 0]: global_index_init: 0.046 [ms]
[OGL LOG][Proc: 0]p_local_coeffs: call_update: 0 [ms]
[OGL LOG][Proc: 0]p_non_local_coeffs: call_update: 0 [ms]
[OGL LOG][Proc: 0]p: update_local_matrix_data: 90.997 [ms]
[OGL LOG][Proc: 0]p: update_non_local_matrix_data: 0.382 [ms]
[OGL LOG][Proc: 0]p_matrix: call_update: 58.354 [ms]
[OGL LOG][Proc: 0]p_rhs: call_update: 11.361 [ms]
[OGL LOG][Proc: 0]p: init_precond: 0.05 [ms]
[OGL LOG][StoppingCriterion.H:373] Creating stopping criterion with minIter 1848 frequency 10
[OGL LOG][Proc: 0]p: generate_solver: 0.005 [ms]
[OGL LOG][Proc: 0]p: solve: 12062.5 [ms]
[OGL LOG][Proc: 0]p: copy_x_back: 20.357 [ms]
[OGL LOG][lduLduBase.H:330] 
Statistics:
	Time per iteration: 3915 [mu s]
	Time per residual norm calculation: 371.000000 [mu s]
	Time per iteration and DOF: 0.061172 [ns]
	Retrieve results bandwidth 3.143000 [GByte/s]
[OGL LOG][Proc: 0]p: solve_multi_gpu: 12157.8 [ms]
nonehipGKOCG:  Solving for p, Initial residual = 0.981276, Final residual = 9.95198e-05, No Iterations 3081
[INFO] SolveP: 12275.3 [ms]
time step continuity errors : sum local = 7.82813e-08, global = 1.66186e-21, cumulative = 1.31155e-20
[INFO] ContinuityError: 115.404 [ms]
[INFO] CorrectBoundary: 2.524 [ms]
[INFO] PISOStep: 13737.5 [ms]
[INFO] MatrixAssemblyPI: 786.724 [ms]
[INFO] AdjustPhi: 52.045 [ms]
[INFO] ConstrainPressure: 0.004 [ms]
[INFO] MatrixAssemblyPII: 231.118 [ms]
[OGL LOG][Proc: 0]: global_index_init: 0.536 [ms]
[OGL LOG][Proc: 0]p_local_coeffs: call_update: 0 [ms]
[OGL LOG][Proc: 0]p_non_local_coeffs: call_update: 0 [ms]
[OGL LOG][Proc: 0]p: update_local_matrix_data: 92.032 [ms]
[OGL LOG][Proc: 0]p: update_non_local_matrix_data: 0.406 [ms]
[OGL LOG][Proc: 0]p_matrix: call_update: 50.99 [ms]
[OGL LOG][Proc: 0]p_rhs: call_update: 19.138 [ms]
[OGL LOG][Proc: 0]p: init_precond: 0.051 [ms]
[OGL LOG][StoppingCriterion.H:373] Creating stopping criterion with minIter 1848 frequency 11
[OGL LOG][Proc: 0]p: generate_solver: 0.005 [ms]
[OGL LOG][Proc: 0]p: solve: 12485.1 [ms]
[OGL LOG][Proc: 0]p: copy_x_back: 20.467 [ms]
[OGL LOG][lduLduBase.H:330] 
Statistics:
	Time per iteration: 4052 [mu s]
	Time per residual norm calculation: 366.000000 [mu s]
	Time per iteration and DOF: 0.063312 [ns]
	Retrieve results bandwidth 3.126000 [GByte/s]
[OGL LOG][Proc: 0]p: solve_multi_gpu: 12579.1 [ms]
nonehipGKOCG:  Solving for p, Initial residual = 0.920956, Final residual = 9.93442e-05, No Iterations 3081
[INFO] SolveP: 12694.6 [ms]
time step continuity errors : sum local = 7.85709e-08, global = 1.15474e-21, cumulative = 1.42702e-20
[INFO] ContinuityError: 111.618 [ms]
[INFO] CorrectBoundary: 4.42 [ms]
[INFO] PISOStep: 14145.3 [ms]
[INFO] TimeStep: 35620.2 [ms]
ExecutionTime = 707.72 s  ClockTime = 588 s

Time = 0.00225

Courant Number mean: 0.0437363 max: 2.88702
[INFO] MatrixAssemblyU: 612.46 [ms]
DILUPBiCGStab:  Solving for Ux, Initial residual = 0.108494, Final residual = 0.00529417, No Iterations 5
DILUPBiCGStab:  Solving for Uy, Initial residual = 0.363501, Final residual = 0.0156983, No Iterations 5
DILUPBiCGStab:  Solving for Uz, Initial residual = 0.750187, Final residual = 0.0328603, No Iterations 5
[INFO] MomentumPredictor: 7022.12 [ms]
[INFO] MatrixAssemblyPI: 803.295 [ms]
[INFO] AdjustPhi: 49.071 [ms]
[INFO] ConstrainPressure: 0.005 [ms]
[INFO] MatrixAssemblyPII: 230.282 [ms]
[OGL LOG][Proc: 0]: global_index_init: 0.129 [ms]
[OGL LOG][Proc: 0]p_local_coeffs: call_update: 0 [ms]
[OGL LOG][Proc: 0]p_non_local_coeffs: call_update: 0 [ms]
[OGL LOG][Proc: 0]p: update_local_matrix_data: 91.617 [ms]
[OGL LOG][Proc: 0]p: update_non_local_matrix_data: 0.397 [ms]
[OGL LOG][Proc: 0]p_matrix: call_update: 55.869 [ms]
[OGL LOG][Proc: 0]p_rhs: call_update: 10.667 [ms]
[OGL LOG][Proc: 0]p: init_precond: 0.051 [ms]
[OGL LOG][StoppingCriterion.H:373] Creating stopping criterion with minIter 1848 frequency 10
[OGL LOG][Proc: 0]p: generate_solver: 0.005 [ms]
[OGL LOG][Proc: 0]p: solve: 11896.5 [ms]
[OGL LOG][Proc: 0]p: copy_x_back: 20.997 [ms]
[OGL LOG][lduLduBase.H:330] 
Statistics:
	Time per iteration: 3848 [mu s]
	Time per residual norm calculation: 360.000000 [mu s]
	Time per iteration and DOF: 0.060125 [ns]
	Retrieve results bandwidth 3.048000 [GByte/s]
[OGL LOG][Proc: 0]p: solve_multi_gpu: 11986.9 [ms]
nonehipGKOCG:  Solving for p, Initial residual = 0.982527, Final residual = 8.644e-05, No Iterations 3091
[INFO] SolveP: 12103.2 [ms]
time step continuity errors : sum local = 8.13275e-08, global = 1.0423e-21, cumulative = 1.53125e-20
[INFO] ContinuityError: 114.988 [ms]
[INFO] CorrectBoundary: 1.577 [ms]
[INFO] PISOStep: 13561.9 [ms]
[INFO] MatrixAssemblyPI: 783.375 [ms]
[INFO] AdjustPhi: 48.867 [ms]
[INFO] ConstrainPressure: 0.004 [ms]
[INFO] MatrixAssemblyPII: 231.617 [ms]
[OGL LOG][Proc: 0]: global_index_init: 0.775 [ms]
[OGL LOG][Proc: 0]p_local_coeffs: call_update: 0 [ms]
[OGL LOG][Proc: 0]p_non_local_coeffs: call_update: 0 [ms]
[OGL LOG][Proc: 0]p: update_local_matrix_data: 91.615 [ms]
[OGL LOG][Proc: 0]p: update_non_local_matrix_data: 0.406 [ms]
[OGL LOG][Proc: 0]p_matrix: call_update: 53.869 [ms]
[OGL LOG][Proc: 0]p_rhs: call_update: 15.354 [ms]
[OGL LOG][Proc: 0]p: init_precond: 0.049 [ms]
[OGL LOG][StoppingCriterion.H:373] Creating stopping criterion with minIter 1854 frequency 11
[OGL LOG][Proc: 0]p: generate_solver: 0.005 [ms]
[OGL LOG][Proc: 0]p: solve: 12541.6 [ms]
[OGL LOG][Proc: 0]p: copy_x_back: 20.525 [ms]
[OGL LOG][lduLduBase.H:330] 
Statistics:
	Time per iteration: 4070 [mu s]
	Time per residual norm calculation: 365.000000 [mu s]
	Time per iteration and DOF: 0.063594 [ns]
	Retrieve results bandwidth 3.118000 [GByte/s]
[OGL LOG][Proc: 0]p: solve_multi_gpu: 12634.3 [ms]
nonehipGKOCG:  Solving for p, Initial residual = 0.918052, Final residual = 9.63759e-05, No Iterations 3081
[INFO] SolveP: 12754.7 [ms]
time step continuity errors : sum local = 9.15608e-08, global = 2.49033e-22, cumulative = 1.55615e-20
[INFO] ContinuityError: 113.748 [ms]
[INFO] CorrectBoundary: 3.605 [ms]
[INFO] PISOStep: 14194.5 [ms]
[INFO] TimeStep: 35494.9 [ms]
ExecutionTime = 750.76 s  ClockTime = 624 s

Time = 0.002375

Courant Number mean: 0.0453983 max: 4.00923
[INFO] MatrixAssemblyU: 617.445 [ms]
DILUPBiCGStab:  Solving for Ux, Initial residual = 0.122771, Final residual = 0.00574398, No Iterations 5
DILUPBiCGStab:  Solving for Uy, Initial residual = 0.400519, Final residual = 0.0171622, No Iterations 5
DILUPBiCGStab:  Solving for Uz, Initial residual = 0.753959, Final residual = 0.0327904, No Iterations 5
[INFO] MomentumPredictor: 7041.23 [ms]
[INFO] MatrixAssemblyPI: 802.862 [ms]
[INFO] AdjustPhi: 48.479 [ms]
[INFO] ConstrainPressure: 0.005 [ms]
[INFO] MatrixAssemblyPII: 230.465 [ms]
[OGL LOG][Proc: 0]: global_index_init: 0.041 [ms]
[OGL LOG][Proc: 0]p_local_coeffs: call_update: 0 [ms]
[OGL LOG][Proc: 0]p_non_local_coeffs: call_update: 0 [ms]
[OGL LOG][Proc: 0]p: update_local_matrix_data: 91.464 [ms]
[OGL LOG][Proc: 0]p: update_non_local_matrix_data: 0.433 [ms]
[OGL LOG][Proc: 0]p_matrix: call_update: 56.606 [ms]
[OGL LOG][Proc: 0]p_rhs: call_update: 15.275 [ms]
[OGL LOG][Proc: 0]p: init_precond: 0.06 [ms]
[OGL LOG][StoppingCriterion.H:373] Creating stopping criterion with minIter 1848 frequency 10
[OGL LOG][Proc: 0]p: generate_solver: 0.005 [ms]
[OGL LOG][Proc: 0]p: solve: 11964.9 [ms]
[OGL LOG][Proc: 0]p: copy_x_back: 20.798 [ms]
[OGL LOG][lduLduBase.H:330] 
Statistics:
	Time per iteration: 3870 [mu s]
	Time per residual norm calculation: 388.000000 [mu s]
	Time per iteration and DOF: 0.060469 [ns]
	Retrieve results bandwidth 3.077000 [GByte/s]
[OGL LOG][Proc: 0]p: solve_multi_gpu: 12061 [ms]
nonehipGKOCG:  Solving for p, Initial residual = 0.982961, Final residual = 9.20957e-05, No Iterations 3091
[INFO] SolveP: 12176.6 [ms]
time step continuity errors : sum local = 1.04041e-07, global = -1.75776e-23, cumulative = 1.5544e-20
[INFO] ContinuityError: 112.321 [ms]
[INFO] CorrectBoundary: 3.975 [ms]
[INFO] PISOStep: 13637.7 [ms]
[INFO] MatrixAssemblyPI: 783.679 [ms]
[INFO] AdjustPhi: 47.977 [ms]
[INFO] ConstrainPressure: 0.004 [ms]
[INFO] MatrixAssemblyPII: 231.85 [ms]
[OGL LOG][Proc: 0]: global_index_init: 0.287 [ms]
[OGL LOG][Proc: 0]p_local_coeffs: call_update: 0 [ms]
[OGL LOG][Proc: 0]p_non_local_coeffs: call_update: 0 [ms]
[OGL LOG][Proc: 0]p: update_local_matrix_data: 91.599 [ms]
[OGL LOG][Proc: 0]p: update_non_local_matrix_data: 0.42 [ms]
[OGL LOG][Proc: 0]p_matrix: call_update: 56.599 [ms]
[OGL LOG][Proc: 0]p_rhs: call_update: 16.577 [ms]
[OGL LOG][Proc: 0]p: init_precond: 0.051 [ms]
[OGL LOG][StoppingCriterion.H:373] Creating stopping criterion with minIter 1854 frequency 11
[OGL LOG][Proc: 0]p: generate_solver: 0.005 [ms]
[OGL LOG][Proc: 0]p: solve: 12258.6 [ms]
[OGL LOG][Proc: 0]p: copy_x_back: 20.749 [ms]
[OGL LOG][lduLduBase.H:330] 
Statistics:
	Time per iteration: 3964 [mu s]
	Time per residual norm calculation: 369.000000 [mu s]
	Time per iteration and DOF: 0.061937 [ns]
	Retrieve results bandwidth 3.084000 [GByte/s]
[OGL LOG][Proc: 0]p: solve_multi_gpu: 12355.5 [ms]
nonehipGKOCG:  Solving for p, Initial residual = 0.921234, Final residual = 8.28056e-05, No Iterations 3092
[INFO] SolveP: 12475.6 [ms]
time step continuity errors : sum local = 9.41607e-08, global = 3.70163e-22, cumulative = 1.59141e-20
[INFO] ContinuityError: 113.67 [ms]
[INFO] CorrectBoundary: 1.728 [ms]
[INFO] PISOStep: 13914.8 [ms]
[INFO] TimeStep: 35314.2 [ms]
ExecutionTime = 793.66 s  ClockTime = 659 s

Time = 0.0025

Courant Number mean: 0.0465471 max: 4.77681
[INFO] MatrixAssemblyU: 613.779 [ms]
DILUPBiCGStab:  Solving for Ux, Initial residual = 0.146647, Final residual = 0.00662051, No Iterations 5
DILUPBiCGStab:  Solving for Uy, Initial residual = 0.42856, Final residual = 0.0177467, No Iterations 5
DILUPBiCGStab:  Solving for Uz, Initial residual = 0.755405, Final residual = 0.032557, No Iterations 5
[INFO] MomentumPredictor: 7030.85 [ms]
[INFO] MatrixAssemblyPI: 807.945 [ms]
[INFO] AdjustPhi: 51.549 [ms]
[INFO] ConstrainPressure: 0.004 [ms]
[INFO] MatrixAssemblyPII: 230.811 [ms]
[OGL LOG][Proc: 0]: global_index_init: 0.227 [ms]
[OGL LOG][Proc: 0]p_local_coeffs: call_update: 0 [ms]
[OGL LOG][Proc: 0]p_non_local_coeffs: call_update: 0 [ms]
[OGL LOG][Proc: 0]p: update_local_matrix_data: 91.61 [ms]
[OGL LOG][Proc: 0]p: update_non_local_matrix_data: 0.432 [ms]
[OGL LOG][Proc: 0]p_matrix: call_update: 62.264 [ms]
[OGL LOG][Proc: 0]p_rhs: call_update: 6.791 [ms]
[OGL LOG][Proc: 0]p: init_precond: 0.056 [ms]
[OGL LOG][StoppingCriterion.H:373] Creating stopping criterion with minIter 1855 frequency 11
[OGL LOG][Proc: 0]p: generate_solver: 0.006 [ms]
[OGL LOG][Proc: 0]p: solve: 11952.6 [ms]
[OGL LOG][Proc: 0]p: copy_x_back: 20.988 [ms]
[OGL LOG][lduLduBase.H:330] 
Statistics:
	Time per iteration: 3865 [mu s]
	Time per residual norm calculation: 399.000000 [mu s]
	Time per iteration and DOF: 0.060391 [ns]
	Retrieve results bandwidth 3.049000 [GByte/s]
[OGL LOG][Proc: 0]p: solve_multi_gpu: 12045.8 [ms]
nonehipGKOCG:  Solving for p, Initial residual = 0.983883, Final residual = 8.78203e-05, No Iterations 3092
[INFO] SolveP: 12163.7 [ms]
time step continuity errors : sum local = 1.1949e-07, global = -5.03184e-22, cumulative = 1.54109e-20
[INFO] ContinuityError: 113.982 [ms]
[INFO] CorrectBoundary: 3.857 [ms]
[INFO] PISOStep: 13632.2 [ms]
[INFO] MatrixAssemblyPI: 783.418 [ms]
[INFO] AdjustPhi: 49.598 [ms]
[INFO] ConstrainPressure: 0.004 [ms]
[INFO] MatrixAssemblyPII: 230.761 [ms]
[OGL LOG][Proc: 0]: global_index_init: 0.382 [ms]
[OGL LOG][Proc: 0]p_local_coeffs: call_update: 0 [ms]
[OGL LOG][Proc: 0]p_non_local_coeffs: call_update: 0 [ms]
[OGL LOG][Proc: 0]p: update_local_matrix_data: 91.944 [ms]
[OGL LOG][Proc: 0]p: update_non_local_matrix_data: 0.424 [ms]
[OGL LOG][Proc: 0]p_matrix: call_update: 51.4 [ms]
[OGL LOG][Proc: 0]p_rhs: call_update: 18.364 [ms]
[OGL LOG][Proc: 0]p: init_precond: 0.05 [ms]
[OGL LOG][StoppingCriterion.H:373] Creating stopping criterion with minIter 1855 frequency 11
[OGL LOG][Proc: 0]p: generate_solver: 0.005 [ms]
[OGL LOG][Proc: 0]p: solve: 12685.5 [ms]
[OGL LOG][Proc: 0]p: copy_x_back: 20.817 [ms]
[OGL LOG][lduLduBase.H:330] 
Statistics:
	Time per iteration: 4102 [mu s]
	Time per residual norm calculation: 357.000000 [mu s]
	Time per iteration and DOF: 0.064094 [ns]
	Retrieve results bandwidth 3.074000 [GByte/s]
[OGL LOG][Proc: 0]p: solve_multi_gpu: 12779 [ms]
nonehipGKOCG:  Solving for p, Initial residual = 0.919386, Final residual = 8.38279e-05, No Iterations 3092
[INFO] SolveP: 12896.1 [ms]
time step continuity errors : sum local = 1.15145e-07, global = 1.19471e-21, cumulative = 1.66057e-20
[INFO] ContinuityError: 116.103 [ms]
[INFO] CorrectBoundary: 3.195 [ms]
[INFO] PISOStep: 14336.2 [ms]
[INFO] TimeStep: 35717.9 [ms]
ExecutionTime = 836.97 s  ClockTime = 695 s

End

Finalising parallel run
