/*---------------------------------------------------------------------------*\
| =========                 |                                                 |
| \\      /  F ield         | OpenFOAM: The Open Source CFD Toolbox           |
|  \\    /   O peration     | Version:  2306                                  |
|   \\  /    A nd           | Website:  www.openfoam.com                      |
|    \\/     M anipulation  |                                                 |
\*---------------------------------------------------------------------------*/
Build  : a6e826bd55-20230630 OPENFOAM=2306 version=v2306
Arch   : "LSB;label=32;scalar=64"
Exec   : icoFoam -parallel -case /tmp/lidDrivenCavity3D/workspace/d6db05f02e3d23bcd04551a38e59996b/case
Date   : Dec 11 2023
Time   : 06:27:03
Host   : nla-gpu2.ianm.kit.edu
PID    : 318630
I/O    : uncollated
Case   : /tmp/lidDrivenCavity3D/workspace/d6db05f02e3d23bcd04551a38e59996b/case
nProcs : 32
Hosts  :
(
    (nla-gpu2.ianm.kit.edu 32)
)
Pstream initialized with:
    floatTransfer      : false
    nProcsSimpleSum    : 0
    nonBlockingExchange: 0 (tuning: 0)
    exchange algorithm : -1
    commsType          : nonBlocking
    polling iterations : 0
trapFpe: Floating point exception trapping enabled (FOAM_SIGFPE).
fileModificationChecking : Monitoring run-time modified files using timeStampMaster (fileModificationSkew 5, maxFileModificationPolls 20)
allowSystemOperations : Allowing user-supplied system call operations

// * * * * * * * * * * * * * * * * * * * * * * * * * * * * * * * * * * * * * //
Create time

--> FOAM Warning : 
    From void* Foam::dlLibraryTable::openLibrary(const Foam::fileName&, bool)
    in file db/dynamicLibrary/dlLibraryTable/dlLibraryTable.C at line 188
    Could not load "libpetscFoam.so"
libpetscFoam.so: cannot open shared object file: No such file or directory
Create mesh for time = 0


PISO: Operating solver in PISO mode

Reading transportProperties

Reading field p

Reading field U

Reading/calculating face flux field phi


Starting time loop

Time = 0.000125

Courant Number mean: 8.02505e-18 max: 4.85723e-14
[INFO] MatrixAssemblyU: 570.026 [ms]
DILUPBiCGStab:  Solving for Ux, Initial residual = 1, Final residual = 0.0215184, No Iterations 5
DILUPBiCGStab:  Solving for Uy:  solution singularity
DILUPBiCGStab:  Solving for Uz:  solution singularity
[INFO] MomentumPredictor: 2076.63 [ms]
[INFO] MatrixAssemblyPI: 589.532 [ms]
[INFO] AdjustPhi: 27.908 [ms]
[INFO] ConstrainPressure: 0.015 [ms]
[INFO] MatrixAssemblyPII: 167.169 [ms]
DICPCG:  Solving for p, Initial residual = 1, Final residual = 9.77144e-05, No Iterations 1229
[INFO] SolveP: 123229 [ms]
time step continuity errors : sum local = 2.47877e-09, global = 3.515e-22, cumulative = 3.515e-22
[INFO] ContinuityError: 57.866 [ms]
[INFO] CorrectBoundary: 1.533 [ms]
[INFO] PISOStep: 124262 [ms]
[INFO] MatrixAssemblyPI: 556.628 [ms]
[INFO] AdjustPhi: 25.34 [ms]
[INFO] ConstrainPressure: 0.004 [ms]
[INFO] MatrixAssemblyPII: 167.132 [ms]
DICPCG:  Solving for p, Initial residual = 0.82208, Final residual = 9.84812e-05, No Iterations 1225
[INFO] SolveP: 122507 [ms]
time step continuity errors : sum local = 3.00993e-09, global = 8.85402e-23, cumulative = 4.4004e-22
[INFO] ContinuityError: 59.338 [ms]
[INFO] CorrectBoundary: 1.389 [ms]
[INFO] PISOStep: 123504 [ms]
[INFO] TimeStep: 250475 [ms]
ExecutionTime = 261.66 s  ClockTime = 265 s

Time = 0.00025

Courant Number mean: 0.0108529 max: 0.437705
[INFO] MatrixAssemblyU: 506.808 [ms]
DILUPBiCGStab:  Solving for Ux, Initial residual = 0.108167, Final residual = 0.0135461, No Iterations 5
DILUPBiCGStab:  Solving for Uy, Initial residual = 0.484636, Final residual = 0.0533657, No Iterations 5
DILUPBiCGStab:  Solving for Uz, Initial residual = 0.990099, Final residual = 0.120279, No Iterations 5
[INFO] MomentumPredictor: 3937.36 [ms]
[INFO] MatrixAssemblyPI: 576.108 [ms]
[INFO] AdjustPhi: 25.574 [ms]
[INFO] ConstrainPressure: 0.004 [ms]
[INFO] MatrixAssemblyPII: 166.312 [ms]
DICPCG:  Solving for p, Initial residual = 0.908271, Final residual = 9.91275e-05, No Iterations 667
[INFO] SolveP: 66793 [ms]
time step continuity errors : sum local = 7.93515e-09, global = 9.17188e-22, cumulative = 1.35723e-21
[INFO] ContinuityError: 58.105 [ms]
[INFO] CorrectBoundary: 1.69 [ms]
[INFO] PISOStep: 67810.6 [ms]
[INFO] MatrixAssemblyPI: 558.358 [ms]
[INFO] AdjustPhi: 25.988 [ms]
[INFO] ConstrainPressure: 0.005 [ms]
[INFO] MatrixAssemblyPII: 166.448 [ms]
DICPCG:  Solving for p, Initial residual = 0.859155, Final residual = 9.80067e-05, No Iterations 658
[INFO] SolveP: 66099.2 [ms]
time step continuity errors : sum local = 7.40296e-09, global = 5.37409e-22, cumulative = 1.89464e-21
[INFO] ContinuityError: 59.437 [ms]
[INFO] CorrectBoundary: 1.519 [ms]
[INFO] PISOStep: 67099.4 [ms]
[INFO] TimeStep: 139416 [ms]
ExecutionTime = 400.37 s  ClockTime = 404 s

Time = 0.000375

Courant Number mean: 0.0169392 max: 0.511584
[INFO] MatrixAssemblyU: 508.889 [ms]
DILUPBiCGStab:  Solving for Ux, Initial residual = 0.0536189, Final residual = 0.00547043, No Iterations 5
DILUPBiCGStab:  Solving for Uy, Initial residual = 0.262369, Final residual = 0.0268394, No Iterations 5
DILUPBiCGStab:  Solving for Uz, Initial residual = 0.871638, Final residual = 0.0882115, No Iterations 5
[INFO] MomentumPredictor: 3936.63 [ms]
[INFO] MatrixAssemblyPI: 576.065 [ms]
[INFO] AdjustPhi: 24.105 [ms]
[INFO] ConstrainPressure: 0.004 [ms]
[INFO] MatrixAssemblyPII: 166.957 [ms]
DICPCG:  Solving for p, Initial residual = 0.941528, Final residual = 9.56453e-05, No Iterations 1216
[INFO] SolveP: 121690 [ms]
time step continuity errors : sum local = 8.56373e-09, global = -3.92009e-22, cumulative = 1.50263e-21
[INFO] ContinuityError: 61.216 [ms]
[INFO] CorrectBoundary: 0.792 [ms]
[INFO] PISOStep: 122705 [ms]
[INFO] MatrixAssemblyPI: 559.139 [ms]
[INFO] AdjustPhi: 24.829 [ms]
[INFO] ConstrainPressure: 0.004 [ms]
[INFO] MatrixAssemblyPII: 162.749 [ms]
DICPCG:  Solving for p, Initial residual = 0.908883, Final residual = 9.65342e-05, No Iterations 1215
[INFO] SolveP: 121596 [ms]
time step continuity errors : sum local = 8.57695e-09, global = -1.24643e-23, cumulative = 1.49016e-21
[INFO] ContinuityError: 61.654 [ms]
[INFO] CorrectBoundary: 1.94 [ms]
[INFO] PISOStep: 122596 [ms]
[INFO] TimeStep: 249809 [ms]
ExecutionTime = 648.94 s  ClockTime = 654 s

Time = 0.0005

Courant Number mean: 0.0205477 max: 0.477564
[INFO] MatrixAssemblyU: 510.71 [ms]
DILUPBiCGStab:  Solving for Ux, Initial residual = 0.0416646, Final residual = 0.00508761, No Iterations 5
DILUPBiCGStab:  Solving for Uy, Initial residual = 0.214074, Final residual = 0.0243827, No Iterations 5
DILUPBiCGStab:  Solving for Uz, Initial residual = 0.785516, Final residual = 0.0641338, No Iterations 5
[INFO] MomentumPredictor: 3930.08 [ms]
[INFO] MatrixAssemblyPI: 575.593 [ms]
[INFO] AdjustPhi: 24.848 [ms]
[INFO] ConstrainPressure: 0.004 [ms]
[INFO] MatrixAssemblyPII: 165.282 [ms]
DICPCG:  Solving for p, Initial residual = 0.93832, Final residual = 9.95092e-05, No Iterations 574
[INFO] SolveP: 57571.4 [ms]
time step continuity errors : sum local = 1.27339e-08, global = 4.94654e-22, cumulative = 1.98482e-21
[INFO] ContinuityError: 58.142 [ms]
[INFO] CorrectBoundary: 1.178 [ms]
[INFO] PISOStep: 58585.7 [ms]
[INFO] MatrixAssemblyPI: 557.867 [ms]
[INFO] AdjustPhi: 24.692 [ms]
[INFO] ConstrainPressure: 0.005 [ms]
[INFO] MatrixAssemblyPII: 164.124 [ms]
DICPCG:  Solving for p, Initial residual = 0.880512, Final residual = 9.80531e-05, No Iterations 566
[INFO] SolveP: 56813.2 [ms]
time step continuity errors : sum local = 1.154e-08, global = 9.39005e-22, cumulative = 2.92382e-21
[INFO] ContinuityError: 59.391 [ms]
[INFO] CorrectBoundary: 1.255 [ms]
[INFO] PISOStep: 57811 [ms]
[INFO] TimeStep: 120899 [ms]
ExecutionTime = 769.24 s  ClockTime = 775 s

Time = 0.000625

Courant Number mean: 0.0236173 max: 0.556181
[INFO] MatrixAssemblyU: 503.466 [ms]
DILUPBiCGStab:  Solving for Ux, Initial residual = 0.0375055, Final residual = 0.00458336, No Iterations 5
DILUPBiCGStab:  Solving for Uy, Initial residual = 0.185959, Final residual = 0.0205766, No Iterations 5
DILUPBiCGStab:  Solving for Uz, Initial residual = 0.763003, Final residual = 0.0599201, No Iterations 5
[INFO] MomentumPredictor: 3937.01 [ms]
[INFO] MatrixAssemblyPI: 575.676 [ms]
[INFO] AdjustPhi: 24.521 [ms]
[INFO] ConstrainPressure: 0.005 [ms]
[INFO] MatrixAssemblyPII: 166.431 [ms]
DICPCG:  Solving for p, Initial residual = 0.954465, Final residual = 9.90481e-05, No Iterations 1211
[INFO] SolveP: 121431 [ms]
time step continuity errors : sum local = 1.24311e-08, global = -3.7395e-22, cumulative = 2.54987e-21
[INFO] ContinuityError: 60.651 [ms]
[INFO] CorrectBoundary: 1.262 [ms]
[INFO] PISOStep: 122447 [ms]
[INFO] MatrixAssemblyPI: 556.715 [ms]
[INFO] AdjustPhi: 26.571 [ms]
[INFO] ConstrainPressure: 0.004 [ms]
[INFO] MatrixAssemblyPII: 162.876 [ms]
DICPCG:  Solving for p, Initial residual = 0.915042, Final residual = 9.98065e-05, No Iterations 1210
[INFO] SolveP: 121331 [ms]
time step continuity errors : sum local = 1.24544e-08, global = 7.62564e-22, cumulative = 3.31244e-21
[INFO] ContinuityError: 59.82 [ms]
[INFO] CorrectBoundary: 0.601 [ms]
[INFO] PISOStep: 122330 [ms]
[INFO] TimeStep: 249279 [ms]
ExecutionTime = 1017.31 s  ClockTime = 1024 s

Time = 0.00075

Courant Number mean: 0.0259542 max: 0.48335
[INFO] MatrixAssemblyU: 500.622 [ms]
DILUPBiCGStab:  Solving for Ux, Initial residual = 0.0354745, Final residual = 0.00440378, No Iterations 5
DILUPBiCGStab:  Solving for Uy, Initial residual = 0.171981, Final residual = 0.017415, No Iterations 5
DILUPBiCGStab:  Solving for Uz, Initial residual = 0.704933, Final residual = 0.0474579, No Iterations 5
[INFO] MomentumPredictor: 3936.73 [ms]
[INFO] MatrixAssemblyPI: 573.503 [ms]
[INFO] AdjustPhi: 26.511 [ms]
[INFO] ConstrainPressure: 0.003 [ms]
[INFO] MatrixAssemblyPII: 166.267 [ms]
DICPCG:  Solving for p, Initial residual = 0.95158, Final residual = 9.57309e-05, No Iterations 1208
[INFO] SolveP: 120899 [ms]
time step continuity errors : sum local = 1.39066e-08, global = -1.49605e-22, cumulative = 3.16283e-21
[INFO] ContinuityError: 60.183 [ms]
[INFO] CorrectBoundary: 2.91 [ms]
[INFO] PISOStep: 121914 [ms]
[INFO] MatrixAssemblyPI: 560.217 [ms]
[INFO] AdjustPhi: 31.754 [ms]
[INFO] ConstrainPressure: 0.004 [ms]
[INFO] MatrixAssemblyPII: 163.407 [ms]
DICPCG:  Solving for p, Initial residual = 0.891259, Final residual = 9.73289e-05, No Iterations 1207
[INFO] SolveP: 120784 [ms]
time step continuity errors : sum local = 1.43642e-08, global = 8.0924e-22, cumulative = 3.97207e-21
[INFO] ContinuityError: 60.953 [ms]
[INFO] CorrectBoundary: 3.564 [ms]
[INFO] PISOStep: 121791 [ms]
[INFO] TimeStep: 248204 [ms]
ExecutionTime = 1264.27 s  ClockTime = 1273 s

Time = 0.000875

Courant Number mean: 0.0281474 max: 0.612439
[INFO] MatrixAssemblyU: 501.191 [ms]
DILUPBiCGStab:  Solving for Ux, Initial residual = 0.0351378, Final residual = 0.00418092, No Iterations 5
DILUPBiCGStab:  Solving for Uy, Initial residual = 0.176867, Final residual = 0.0165925, No Iterations 5
DILUPBiCGStab:  Solving for Uz, Initial residual = 0.694539, Final residual = 0.0432528, No Iterations 5
[INFO] MomentumPredictor: 3936.68 [ms]
[INFO] MatrixAssemblyPI: 570.732 [ms]
[INFO] AdjustPhi: 29.331 [ms]
[INFO] ConstrainPressure: 0.003 [ms]
[INFO] MatrixAssemblyPII: 166.993 [ms]
DICPCG:  Solving for p, Initial residual = 0.962409, Final residual = 9.96809e-05, No Iterations 1196
[INFO] SolveP: 119679 [ms]
time step continuity errors : sum local = 1.63811e-08, global = 1.9885e-22, cumulative = 4.17092e-21
[INFO] ContinuityError: 59.968 [ms]
[INFO] CorrectBoundary: 2.421 [ms]
[INFO] PISOStep: 120693 [ms]
[INFO] MatrixAssemblyPI: 556.716 [ms]
[INFO] AdjustPhi: 27.216 [ms]
[INFO] ConstrainPressure: 0.004 [ms]
[INFO] MatrixAssemblyPII: 164.891 [ms]
DICPCG:  Solving for p, Initial residual = 0.917532, Final residual = 9.84693e-05, No Iterations 1195
[INFO] SolveP: 119868 [ms]
time step continuity errors : sum local = 1.61263e-08, global = 7.14616e-22, cumulative = 4.88554e-21
[INFO] ContinuityError: 60.051 [ms]
[INFO] CorrectBoundary: 1.978 [ms]
[INFO] PISOStep: 120866 [ms]
[INFO] TimeStep: 246061 [ms]
ExecutionTime = 1509.11 s  ClockTime = 1519 s

Time = 0.001

Courant Number mean: 0.0298938 max: 0.491022
[INFO] MatrixAssemblyU: 506.136 [ms]
DILUPBiCGStab:  Solving for Ux, Initial residual = 0.0362471, Final residual = 0.00403717, No Iterations 5
DILUPBiCGStab:  Solving for Uy, Initial residual = 0.170388, Final residual = 0.0143499, No Iterations 5
DILUPBiCGStab:  Solving for Uz, Initial residual = 0.686128, Final residual = 0.039399, No Iterations 5
[INFO] MomentumPredictor: 3930.83 [ms]
[INFO] MatrixAssemblyPI: 574.102 [ms]
[INFO] AdjustPhi: 26.229 [ms]
[INFO] ConstrainPressure: 0.003 [ms]
[INFO] MatrixAssemblyPII: 166.334 [ms]
DICPCG:  Solving for p, Initial residual = 0.960343, Final residual = 9.88632e-05, No Iterations 1183
[INFO] SolveP: 118301 [ms]
time step continuity errors : sum local = 1.87046e-08, global = 1.82264e-21, cumulative = 6.70818e-21
[INFO] ContinuityError: 59.957 [ms]
[INFO] CorrectBoundary: 3.061 [ms]
[INFO] PISOStep: 119315 [ms]
[INFO] MatrixAssemblyPI: 557.831 [ms]
[INFO] AdjustPhi: 26.431 [ms]
[INFO] ConstrainPressure: 0.003 [ms]
[INFO] MatrixAssemblyPII: 165.915 [ms]
DICPCG:  Solving for p, Initial residual = 0.898158, Final residual = 9.94921e-05, No Iterations 1182
[INFO] SolveP: 118304 [ms]
time step continuity errors : sum local = 1.91037e-08, global = 6.27315e-22, cumulative = 7.33549e-21
[INFO] ContinuityError: 59.698 [ms]
[INFO] CorrectBoundary: 2.531 [ms]
[INFO] PISOStep: 119303 [ms]
[INFO] TimeStep: 243117 [ms]
ExecutionTime = 1751.07 s  ClockTime = 1762 s

Time = 0.001125

Courant Number mean: 0.031696 max: 0.696025
[INFO] MatrixAssemblyU: 508.935 [ms]
DILUPBiCGStab:  Solving for Ux, Initial residual = 0.0374912, Final residual = 0.00381905, No Iterations 5
DILUPBiCGStab:  Solving for Uy, Initial residual = 0.187276, Final residual = 0.0147907, No Iterations 5
DILUPBiCGStab:  Solving for Uz, Initial residual = 0.692678, Final residual = 0.039002, No Iterations 5
[INFO] MomentumPredictor: 3930.53 [ms]
[INFO] MatrixAssemblyPI: 573.36 [ms]
[INFO] AdjustPhi: 26.984 [ms]
[INFO] ConstrainPressure: 0.004 [ms]
[INFO] MatrixAssemblyPII: 166.165 [ms]
DICPCG:  Solving for p, Initial residual = 0.968171, Final residual = 9.99916e-05, No Iterations 1173
[INFO] SolveP: 117542 [ms]
time step continuity errors : sum local = 2.16761e-08, global = 1.72247e-21, cumulative = 9.05796e-21
[INFO] ContinuityError: 59.529 [ms]
[INFO] CorrectBoundary: 1.095 [ms]
[INFO] PISOStep: 118557 [ms]
[INFO] MatrixAssemblyPI: 558.498 [ms]
[INFO] AdjustPhi: 25.272 [ms]
[INFO] ConstrainPressure: 0.003 [ms]
[INFO] MatrixAssemblyPII: 166.668 [ms]
DICPCG:  Solving for p, Initial residual = 0.918577, Final residual = 9.89719e-05, No Iterations 1171
[INFO] SolveP: 117563 [ms]
time step continuity errors : sum local = 2.1431e-08, global = 7.42588e-22, cumulative = 9.80055e-21
[INFO] ContinuityError: 59.794 [ms]
[INFO] CorrectBoundary: 1.641 [ms]
[INFO] PISOStep: 118562 [ms]
[INFO] TimeStep: 241620 [ms]
ExecutionTime = 1991.54 s  ClockTime = 2003 s

Time = 0.00125

Courant Number mean: 0.0331095 max: 0.507105
[INFO] MatrixAssemblyU: 504.853 [ms]
DILUPBiCGStab:  Solving for Ux, Initial residual = 0.0408548, Final residual = 0.00387979, No Iterations 5
DILUPBiCGStab:  Solving for Uy, Initial residual = 0.186066, Final residual = 0.0130677, No Iterations 5
DILUPBiCGStab:  Solving for Uz, Initial residual = 0.701265, Final residual = 0.0377146, No Iterations 5
[INFO] MomentumPredictor: 3936.45 [ms]
[INFO] MatrixAssemblyPI: 574.14 [ms]
[INFO] AdjustPhi: 25.569 [ms]
[INFO] ConstrainPressure: 0.003 [ms]
[INFO] MatrixAssemblyPII: 165.919 [ms]
DICPCG:  Solving for p, Initial residual = 0.967547, Final residual = 9.94254e-05, No Iterations 1172
[INFO] SolveP: 117326 [ms]
time step continuity errors : sum local = 2.50972e-08, global = 7.80393e-22, cumulative = 1.05809e-20
[INFO] ContinuityError: 59.524 [ms]
[INFO] CorrectBoundary: 1.888 [ms]
[INFO] PISOStep: 118341 [ms]
[INFO] MatrixAssemblyPI: 558.345 [ms]
[INFO] AdjustPhi: 26.027 [ms]
[INFO] ConstrainPressure: 0.004 [ms]
[INFO] MatrixAssemblyPII: 164.241 [ms]
DICPCG:  Solving for p, Initial residual = 0.903711, Final residual = 9.92484e-05, No Iterations 1170
[INFO] SolveP: 117190 [ms]
time step continuity errors : sum local = 2.53922e-08, global = 9.11198e-22, cumulative = 1.14921e-20
[INFO] ContinuityError: 60.155 [ms]
[INFO] CorrectBoundary: 2.496 [ms]
[INFO] PISOStep: 118188 [ms]
[INFO] TimeStep: 241032 [ms]
ExecutionTime = 2231.4 s  ClockTime = 2244 s

Time = 0.001375

Courant Number mean: 0.0347081 max: 0.825565
[INFO] MatrixAssemblyU: 497.597 [ms]
DILUPBiCGStab:  Solving for Ux, Initial residual = 0.0436246, Final residual = 0.00371611, No Iterations 5
DILUPBiCGStab:  Solving for Uy, Initial residual = 0.209824, Final residual = 0.0141141, No Iterations 5
DILUPBiCGStab:  Solving for Uz, Initial residual = 0.706869, Final residual = 0.0380577, No Iterations 5
[INFO] MomentumPredictor: 3950.85 [ms]
[INFO] MatrixAssemblyPI: 574.438 [ms]
[INFO] AdjustPhi: 25.804 [ms]
[INFO] ConstrainPressure: 0.003 [ms]
[INFO] MatrixAssemblyPII: 166.245 [ms]
DICPCG:  Solving for p, Initial residual = 0.973115, Final residual = 9.90001e-05, No Iterations 1165
[INFO] SolveP: 116748 [ms]
time step continuity errors : sum local = 2.90118e-08, global = 3.11149e-22, cumulative = 1.18033e-20
[INFO] ContinuityError: 59.952 [ms]
[INFO] CorrectBoundary: 3.382 [ms]
[INFO] PISOStep: 117763 [ms]
[INFO] MatrixAssemblyPI: 557.258 [ms]
[INFO] AdjustPhi: 26.852 [ms]
[INFO] ConstrainPressure: 0.003 [ms]
[INFO] MatrixAssemblyPII: 162.005 [ms]
DICPCG:  Solving for p, Initial residual = 0.919397, Final residual = 9.97485e-05, No Iterations 1163
[INFO] SolveP: 116623 [ms]
time step continuity errors : sum local = 2.92564e-08, global = 5.35431e-22, cumulative = 1.23387e-20
[INFO] ContinuityError: 59.645 [ms]
[INFO] CorrectBoundary: 3.553 [ms]
[INFO] PISOStep: 117622 [ms]
[INFO] TimeStep: 239896 [ms]
ExecutionTime = 2470.15 s  ClockTime = 2484 s

Time = 0.0015

Courant Number mean: 0.0359085 max: 0.597536
[INFO] MatrixAssemblyU: 496.538 [ms]
DILUPBiCGStab:  Solving for Ux, Initial residual = 0.0490664, Final residual = 0.00391474, No Iterations 5
DILUPBiCGStab:  Solving for Uy, Initial residual = 0.214139, Final residual = 0.0129346, No Iterations 5
DILUPBiCGStab:  Solving for Uz, Initial residual = 0.719693, Final residual = 0.0371465, No Iterations 5
[INFO] MomentumPredictor: 3942.53 [ms]
[INFO] MatrixAssemblyPI: 574.517 [ms]
[INFO] AdjustPhi: 26.174 [ms]
[INFO] ConstrainPressure: 0.003 [ms]
[INFO] MatrixAssemblyPII: 166.136 [ms]
DICPCG:  Solving for p, Initial residual = 0.973352, Final residual = 9.87517e-05, No Iterations 1170
[INFO] SolveP: 117219 [ms]
time step continuity errors : sum local = 3.39303e-08, global = 1.96761e-21, cumulative = 1.43063e-20
[INFO] ContinuityError: 59.052 [ms]
[INFO] CorrectBoundary: 2.04 [ms]
[INFO] PISOStep: 118233 [ms]
[INFO] MatrixAssemblyPI: 552.731 [ms]
[INFO] AdjustPhi: 30.922 [ms]
[INFO] ConstrainPressure: 0.003 [ms]
[INFO] MatrixAssemblyPII: 166.727 [ms]
DICPCG:  Solving for p, Initial residual = 0.90854, Final residual = 9.93067e-05, No Iterations 1168
[INFO] SolveP: 117024 [ms]
time step continuity errors : sum local = 3.45416e-08, global = 1.0571e-21, cumulative = 1.53634e-20
[INFO] ContinuityError: 61.494 [ms]
[INFO] CorrectBoundary: 2.593 [ms]
[INFO] PISOStep: 118023 [ms]
[INFO] TimeStep: 240758 [ms]
ExecutionTime = 2709.76 s  ClockTime = 2725 s

Time = 0.001625

Courant Number mean: 0.0374033 max: 1.14772
[INFO] MatrixAssemblyU: 497.716 [ms]
DILUPBiCGStab:  Solving for Ux, Initial residual = 0.0537284, Final residual = 0.00386245, No Iterations 5
DILUPBiCGStab:  Solving for Uy, Initial residual = 0.242658, Final residual = 0.0142571, No Iterations 5
DILUPBiCGStab:  Solving for Uz, Initial residual = 0.722266, Final residual = 0.0369965, No Iterations 5
[INFO] MomentumPredictor: 3941.92 [ms]
[INFO] MatrixAssemblyPI: 573.406 [ms]
[INFO] AdjustPhi: 26.561 [ms]
[INFO] ConstrainPressure: 0.002 [ms]
[INFO] MatrixAssemblyPII: 166.205 [ms]
DICPCG:  Solving for p, Initial residual = 0.976908, Final residual = 9.79277e-05, No Iterations 1170
[INFO] SolveP: 117184 [ms]
time step continuity errors : sum local = 3.94335e-08, global = 3.11938e-22, cumulative = 1.56754e-20
[INFO] ContinuityError: 60.155 [ms]
[INFO] CorrectBoundary: 1.63 [ms]
[INFO] PISOStep: 118199 [ms]
[INFO] MatrixAssemblyPI: 558.56 [ms]
[INFO] AdjustPhi: 25.331 [ms]
[INFO] ConstrainPressure: 0.003 [ms]
[INFO] MatrixAssemblyPII: 165.512 [ms]
DICPCG:  Solving for p, Initial residual = 0.920141, Final residual = 9.86581e-05, No Iterations 1168
[INFO] SolveP: 117025 [ms]
time step continuity errors : sum local = 3.98334e-08, global = 4.53153e-22, cumulative = 1.61285e-20
[INFO] ContinuityError: 59.363 [ms]
[INFO] CorrectBoundary: 2.862 [ms]
[INFO] PISOStep: 118023 [ms]
[INFO] TimeStep: 240723 [ms]
ExecutionTime = 2949.31 s  ClockTime = 2966 s

Time = 0.00175

Courant Number mean: 0.038467 max: 1.02089
[INFO] MatrixAssemblyU: 498.172 [ms]
DILUPBiCGStab:  Solving for Ux, Initial residual = 0.0616956, Final residual = 0.00415513, No Iterations 5
DILUPBiCGStab:  Solving for Uy, Initial residual = 0.253077, Final residual = 0.0136019, No Iterations 5
DILUPBiCGStab:  Solving for Uz, Initial residual = 0.733247, Final residual = 0.0363503, No Iterations 5
[INFO] MomentumPredictor: 3946.31 [ms]
[INFO] MatrixAssemblyPI: 571.953 [ms]
[INFO] AdjustPhi: 28.007 [ms]
[INFO] ConstrainPressure: 0.003 [ms]
[INFO] MatrixAssemblyPII: 165.154 [ms]
DICPCG:  Solving for p, Initial residual = 0.977599, Final residual = 9.80069e-05, No Iterations 1172
[INFO] SolveP: 117471 [ms]
time step continuity errors : sum local = 4.65406e-08, global = -1.81863e-22, cumulative = 1.59467e-20
[INFO] ContinuityError: 60.408 [ms]
[INFO] CorrectBoundary: 3.199 [ms]
[INFO] PISOStep: 118485 [ms]
[INFO] MatrixAssemblyPI: 557.183 [ms]
[INFO] AdjustPhi: 27.28 [ms]
[INFO] ConstrainPressure: 0.004 [ms]
[INFO] MatrixAssemblyPII: 165.35 [ms]
DICPCG:  Solving for p, Initial residual = 0.912618, Final residual = 9.84047e-05, No Iterations 1170
[INFO] SolveP: 117236 [ms]
time step continuity errors : sum local = 4.72555e-08, global = 7.45251e-22, cumulative = 1.66919e-20
[INFO] ContinuityError: 60.032 [ms]
[INFO] CorrectBoundary: 3.057 [ms]
[INFO] PISOStep: 118236 [ms]
[INFO] TimeStep: 241227 [ms]
ExecutionTime = 3189.38 s  ClockTime = 3207 s

Time = 0.001875

Courant Number mean: 0.0399316 max: 1.68234
[INFO] MatrixAssemblyU: 502.631 [ms]
DILUPBiCGStab:  Solving for Ux, Initial residual = 0.0687071, Final residual = 0.00425452, No Iterations 5
DILUPBiCGStab:  Solving for Uy, Initial residual = 0.285305, Final residual = 0.0150417, No Iterations 5
DILUPBiCGStab:  Solving for Uz, Initial residual = 0.735025, Final residual = 0.0363612, No Iterations 5
[INFO] MomentumPredictor: 3941.22 [ms]
[INFO] MatrixAssemblyPI: 575.317 [ms]
[INFO] AdjustPhi: 24.743 [ms]
[INFO] ConstrainPressure: 0.005 [ms]
[INFO] MatrixAssemblyPII: 166.796 [ms]
DICPCG:  Solving for p, Initial residual = 0.979703, Final residual = 9.92889e-05, No Iterations 1168
[INFO] SolveP: 117041 [ms]
time step continuity errors : sum local = 5.56049e-08, global = 3.35481e-21, cumulative = 2.00467e-20
[INFO] ContinuityError: 59.689 [ms]
[INFO] CorrectBoundary: 6.37 [ms]
[INFO] PISOStep: 118056 [ms]
[INFO] MatrixAssemblyPI: 556.61 [ms]
[INFO] AdjustPhi: 28.258 [ms]
[INFO] ConstrainPressure: 0.003 [ms]
[INFO] MatrixAssemblyPII: 165.654 [ms]
DICPCG:  Solving for p, Initial residual = 0.92062, Final residual = 9.93728e-05, No Iterations 1166
[INFO] SolveP: 116959 [ms]
time step continuity errors : sum local = 5.58851e-08, global = 8.18573e-22, cumulative = 2.08653e-20
[INFO] ContinuityError: 60.115 [ms]
[INFO] CorrectBoundary: 6.666 [ms]
[INFO] PISOStep: 117959 [ms]
[INFO] TimeStep: 240521 [ms]
ExecutionTime = 3428.75 s  ClockTime = 3448 s

Time = 0.002

Courant Number mean: 0.0409293 max: 1.71621
[INFO] MatrixAssemblyU: 499.155 [ms]
DILUPBiCGStab:  Solving for Ux, Initial residual = 0.0801216, Final residual = 0.00466702, No Iterations 5
DILUPBiCGStab:  Solving for Uy, Initial residual = 0.302004, Final residual = 0.0148274, No Iterations 5
DILUPBiCGStab:  Solving for Uz, Initial residual = 0.744637, Final residual = 0.036103, No Iterations 5
[INFO] MomentumPredictor: 3940.61 [ms]
[INFO] MatrixAssemblyPI: 574.016 [ms]
[INFO] AdjustPhi: 25.039 [ms]
[INFO] ConstrainPressure: 0.004 [ms]
[INFO] MatrixAssemblyPII: 166.347 [ms]
DICPCG:  Solving for p, Initial residual = 0.980818, Final residual = 9.83442e-05, No Iterations 1173
[INFO] SolveP: 117353 [ms]
time step continuity errors : sum local = 6.52132e-08, global = -1.87204e-21, cumulative = 1.89933e-20
[INFO] ContinuityError: 59.978 [ms]
[INFO] CorrectBoundary: 2.325 [ms]
[INFO] PISOStep: 118364 [ms]
[INFO] MatrixAssemblyPI: 554.053 [ms]
[INFO] AdjustPhi: 31.123 [ms]
[INFO] ConstrainPressure: 0.004 [ms]
[INFO] MatrixAssemblyPII: 162.564 [ms]
DICPCG:  Solving for p, Initial residual = 0.915626, Final residual = 9.67033e-05, No Iterations 1171
[INFO] SolveP: 117300 [ms]
time step continuity errors : sum local = 6.47951e-08, global = 8.94131e-22, cumulative = 1.98874e-20
[INFO] ContinuityError: 60.015 [ms]
[INFO] CorrectBoundary: 1.728 [ms]
[INFO] PISOStep: 118300 [ms]
[INFO] TimeStep: 241165 [ms]
ExecutionTime = 3668.72 s  ClockTime = 3689 s

Time = 0.002125

Courant Number mean: 0.042432 max: 2.54807
[INFO] MatrixAssemblyU: 495.612 [ms]
DILUPBiCGStab:  Solving for Ux, Initial residual = 0.0901717, Final residual = 0.0049427, No Iterations 5
DILUPBiCGStab:  Solving for Uy, Initial residual = 0.337274, Final residual = 0.0163763, No Iterations 5
DILUPBiCGStab:  Solving for Uz, Initial residual = 0.744156, Final residual = 0.0358145, No Iterations 5
[INFO] MomentumPredictor: 3943.31 [ms]
[INFO] MatrixAssemblyPI: 574.973 [ms]
[INFO] AdjustPhi: 25.277 [ms]
[INFO] ConstrainPressure: 0.003 [ms]
[INFO] MatrixAssemblyPII: 166.432 [ms]
DICPCG:  Solving for p, Initial residual = 0.981884, Final residual = 9.88048e-05, No Iterations 1172
[INFO] SolveP: 117503 [ms]
time step continuity errors : sum local = 7.78504e-08, global = -1.36472e-21, cumulative = 1.85227e-20
[INFO] ContinuityError: 59.547 [ms]
[INFO] CorrectBoundary: 3.049 [ms]
[INFO] PISOStep: 118517 [ms]
[INFO] MatrixAssemblyPI: 552.551 [ms]
[INFO] AdjustPhi: 31.35 [ms]
[INFO] ConstrainPressure: 0.003 [ms]
[INFO] MatrixAssemblyPII: 162.839 [ms]
DICPCG:  Solving for p, Initial residual = 0.920598, Final residual = 9.93798e-05, No Iterations 1170
[INFO] SolveP: 117320 [ms]
time step continuity errors : sum local = 7.87438e-08, global = 1.25318e-21, cumulative = 1.97758e-20
[INFO] ContinuityError: 59.756 [ms]
[INFO] CorrectBoundary: 1.984 [ms]
[INFO] PISOStep: 118318 [ms]
[INFO] TimeStep: 241337 [ms]
ExecutionTime = 3908.82 s  ClockTime = 3930 s

Time = 0.00225

Courant Number mean: 0.043444 max: 2.85574
[INFO] MatrixAssemblyU: 495.438 [ms]
DILUPBiCGStab:  Solving for Ux, Initial residual = 0.106524, Final residual = 0.00554083, No Iterations 5
DILUPBiCGStab:  Solving for Uy, Initial residual = 0.360186, Final residual = 0.0165345, No Iterations 5
DILUPBiCGStab:  Solving for Uz, Initial residual = 0.751471, Final residual = 0.0355558, No Iterations 5
[INFO] MomentumPredictor: 3945.52 [ms]
[INFO] MatrixAssemblyPI: 574.681 [ms]
[INFO] AdjustPhi: 25.079 [ms]
[INFO] ConstrainPressure: 0.004 [ms]
[INFO] MatrixAssemblyPII: 166.101 [ms]
DICPCG:  Solving for p, Initial residual = 0.983086, Final residual = 9.76772e-05, No Iterations 1172
[INFO] SolveP: 117328 [ms]
time step continuity errors : sum local = 9.18396e-08, global = -1.11681e-20, cumulative = 8.60771e-21
[INFO] ContinuityError: 59.574 [ms]
[INFO] CorrectBoundary: 2.39 [ms]
[INFO] PISOStep: 118341 [ms]
[INFO] MatrixAssemblyPI: 554.037 [ms]
[INFO] AdjustPhi: 30.021 [ms]
[INFO] ConstrainPressure: 0.003 [ms]
[INFO] MatrixAssemblyPII: 162.556 [ms]
DICPCG:  Solving for p, Initial residual = 0.917619, Final residual = 9.91723e-05, No Iterations 1170
[INFO] SolveP: 117208 [ms]
time step continuity errors : sum local = 9.41697e-08, global = 7.65918e-23, cumulative = 8.68431e-21
[INFO] ContinuityError: 59.621 [ms]
[INFO] CorrectBoundary: 1.637 [ms]
[INFO] PISOStep: 118206 [ms]
[INFO] TimeStep: 241050 [ms]
ExecutionTime = 4148.64 s  ClockTime = 4171 s

Time = 0.002375

Courant Number mean: 0.0450682 max: 3.95879
[INFO] MatrixAssemblyU: 496.001 [ms]
DILUPBiCGStab:  Solving for Ux, Initial residual = 0.12049, Final residual = 0.0060182, No Iterations 5
DILUPBiCGStab:  Solving for Uy, Initial residual = 0.396803, Final residual = 0.0181639, No Iterations 5
DILUPBiCGStab:  Solving for Uz, Initial residual = 0.750369, Final residual = 0.035431, No Iterations 5
[INFO] MomentumPredictor: 3944.31 [ms]
[INFO] MatrixAssemblyPI: 575.048 [ms]
[INFO] AdjustPhi: 24.784 [ms]
[INFO] ConstrainPressure: 0.006 [ms]
[INFO] MatrixAssemblyPII: 166.098 [ms]
DICPCG:  Solving for p, Initial residual = 0.983523, Final residual = 9.98611e-05, No Iterations 1180
[INFO] SolveP: 118146 [ms]
time step continuity errors : sum local = 1.1246e-07, global = -2.28819e-22, cumulative = 8.45549e-21
[INFO] ContinuityError: 59.521 [ms]
[INFO] CorrectBoundary: 3.004 [ms]
[INFO] PISOStep: 119159 [ms]
[INFO] MatrixAssemblyPI: 554.39 [ms]
[INFO] AdjustPhi: 30.027 [ms]
[INFO] ConstrainPressure: 0.003 [ms]
[INFO] MatrixAssemblyPII: 163.009 [ms]
DICPCG:  Solving for p, Initial residual = 0.920837, Final residual = 9.99453e-05, No Iterations 1174
[INFO] SolveP: 117687 [ms]
time step continuity errors : sum local = 1.13314e-07, global = -4.85193e-22, cumulative = 7.97029e-21
[INFO] ContinuityError: 59.98 [ms]
[INFO] CorrectBoundary: 2.636 [ms]
[INFO] PISOStep: 118686 [ms]
[INFO] TimeStep: 242348 [ms]
ExecutionTime = 4389.75 s  ClockTime = 4413 s

Time = 0.0025

Courant Number mean: 0.0462035 max: 4.70251
[INFO] MatrixAssemblyU: 495.87 [ms]
DILUPBiCGStab:  Solving for Ux, Initial residual = 0.143516, Final residual = 0.00688183, No Iterations 5
DILUPBiCGStab:  Solving for Uy, Initial residual = 0.424331, Final residual = 0.018627, No Iterations 5
DILUPBiCGStab:  Solving for Uz, Initial residual = 0.755029, Final residual = 0.0349812, No Iterations 5
[INFO] MomentumPredictor: 3944.04 [ms]
[INFO] MatrixAssemblyPI: 573.74 [ms]
[INFO] AdjustPhi: 26.297 [ms]
[INFO] ConstrainPressure: 0.003 [ms]
[INFO] MatrixAssemblyPII: 165.87 [ms]
DICPCG:  Solving for p, Initial residual = 0.984381, Final residual = 9.97611e-05, No Iterations 1197
[INFO] SolveP: 119838 [ms]
time step continuity errors : sum local = 1.34843e-07, global = 7.34159e-21, cumulative = 1.53119e-20
[INFO] ContinuityError: 59.614 [ms]
[INFO] CorrectBoundary: 3.44 [ms]
[INFO] PISOStep: 120852 [ms]
[INFO] MatrixAssemblyPI: 553.466 [ms]
[INFO] AdjustPhi: 30.394 [ms]
[INFO] ConstrainPressure: 0.002 [ms]
[INFO] MatrixAssemblyPII: 164.093 [ms]
DICPCG:  Solving for p, Initial residual = 0.918934, Final residual = 9.95599e-05, No Iterations 1174
[INFO] SolveP: 117570 [ms]
time step continuity errors : sum local = 1.3588e-07, global = 5.13059e-22, cumulative = 1.58249e-20
[INFO] ContinuityError: 60.736 [ms]
[INFO] CorrectBoundary: 1.804 [ms]
[INFO] PISOStep: 118568 [ms]
[INFO] TimeStep: 243922 [ms]
ExecutionTime = 4632.43 s  ClockTime = 4657 s

End

Finalising parallel run
