/*---------------------------------------------------------------------------*\
| =========                 |                                                 |
| \\      /  F ield         | OpenFOAM: The Open Source CFD Toolbox           |
|  \\    /   O peration     | Version:  2306                                  |
|   \\  /    A nd           | Website:  www.openfoam.com                      |
|    \\/     M anipulation  |                                                 |
\*---------------------------------------------------------------------------*/
Build  : c423ebec-20231012 OPENFOAM=2306 version=v2306
Arch   : "LSB;label=32;scalar=64"
Exec   : decomposePar -force
Date   : Feb 16 2024
Time   : 09:04:55
Host   : hkn1670.localdomain
PID    : 3269632
--> FOAM Warning : 
    From Foam::fileName Foam::cwd_L()
    in file POSIX.C at line 552
    PWD is not the cwd() - reverting to physical description
I/O    : uncollated
--> FOAM Warning : 
    From Foam::fileName Foam::cwd_L()
    in file POSIX.C at line 552
    PWD is not the cwd() - reverting to physical description
Case   : /hkfs/work/workspace/scratch/eq4036-windsorbody_setup/workspace/0410ddd87b17755246128f8b6e630154/case
nProcs : 1
trapFpe: Floating point exception trapping enabled (FOAM_SIGFPE).
fileModificationChecking : Monitoring run-time modified files using timeStampMaster (fileModificationSkew 5, maxFileModificationPolls 20)
allowSystemOperations : Allowing user-supplied system call operations

// * * * * * * * * * * * * * * * * * * * * * * * * * * * * * * * * * * * * * //
Create time

--> FOAM Warning : 
    From void* Foam::dlLibraryTable::openLibrary(const Foam::fileName&, bool)
    in file db/dynamicLibrary/dlLibraryTable/dlLibraryTable.C at line 188
    Could not load "libpetscFoam.so"
libpetscFoam.so: cannot open shared object file: No such file or directory


Decomposing mesh

Create mesh

Calculating distribution of cells
Decomposition method simple [24] (region region0)

Finished decomposition in 7.99 s

Calculating original mesh data

Distributing cells to processors

Distributing faces to processors

Distributing points to processors

Constructing processor meshes

Processor 0
    Number of cells = 655398
    Number of points = 699166
    Number of faces shared with processor 1 = 2887
    Number of faces shared with processor 4 = 639
    Number of faces shared with processor 8 = 46845
    Number of faces shared with processor 9 = 2
    Number of processor patches = 4
    Number of processor faces = 50373
    Number of boundary faces = 47002

Processor 1
    Number of cells = 349382
    Number of points = 375409
    Number of faces shared with processor 0 = 2887
    Number of faces shared with processor 2 = 2845
    Number of faces shared with processor 5 = 81
    Number of faces shared with processor 9 = 24866
    Number of processor patches = 4
    Number of processor faces = 30679
    Number of boundary faces = 24392

Processor 2
    Number of cells = 340732
    Number of points = 365988
    Number of faces shared with processor 1 = 2845
    Number of faces shared with processor 3 = 2837
    Number of faces shared with processor 6 = 72
    Number of faces shared with processor 9 = 3
    Number of faces shared with processor 10 = 24008
    Number of faces shared with processor 11 = 2
    Number of processor patches = 6
    Number of processor faces = 29767
    Number of boundary faces = 23966

Processor 3
    Number of cells = 687938
    Number of points = 733640
    Number of faces shared with processor 2 = 2837
    Number of faces shared with processor 7 = 504
    Number of faces shared with processor 11 = 49856
    Number of processor patches = 3
    Number of processor faces = 53197
    Number of boundary faces = 50577

Processor 4
    Number of cells = 716332
    Number of points = 760744
    Number of faces shared with processor 0 = 639
    Number of faces shared with processor 5 = 3120
    Number of faces shared with processor 12 = 47867
    Number of faces shared with processor 13 = 1
    Number of processor patches = 4
    Number of processor faces = 51627
    Number of boundary faces = 47120

Processor 5
    Number of cells = 377379
    Number of points = 403743
    Number of faces shared with processor 1 = 81
    Number of faces shared with processor 4 = 3120
    Number of faces shared with processor 6 = 3016
    Number of faces shared with processor 13 = 24899
    Number of faces shared with processor 14 = 21
    Number of processor patches = 5
    Number of processor faces = 31137
    Number of boundary faces = 24494

Processor 6
    Number of cells = 362924
    Number of points = 388283
    Number of faces shared with processor 2 = 72
    Number of faces shared with processor 5 = 3016
    Number of faces shared with processor 7 = 2991
    Number of faces shared with processor 14 = 23619
    Number of faces shared with processor 15 = 1
    Number of processor patches = 5
    Number of processor faces = 29699
    Number of boundary faces = 23924

Processor 7
    Number of cells = 714673
    Number of points = 761262
    Number of faces shared with processor 3 = 504
    Number of faces shared with processor 6 = 2991
    Number of faces shared with processor 15 = 50139
    Number of processor patches = 3
    Number of processor faces = 53634
    Number of boundary faces = 50682

Processor 8
    Number of cells = 455898
    Number of points = 518689
    Number of faces shared with processor 0 = 46845
    Number of faces shared with processor 9 = 2565
    Number of faces shared with processor 12 = 142
    Number of faces shared with processor 16 = 14116
    Number of processor patches = 4
    Number of processor faces = 63668
    Number of boundary faces = 37714

Processor 9
    Number of cells = 625643
    Number of points = 662393
    Number of faces shared with processor 0 = 2
    Number of faces shared with processor 1 = 24866
    Number of faces shared with processor 2 = 3
    Number of faces shared with processor 8 = 2565
    Number of faces shared with processor 10 = 5066
    Number of faces shared with processor 13 = 18
    Number of faces shared with processor 16 = 1
    Number of faces shared with processor 17 = 17986
    Number of processor patches = 8
    Number of processor faces = 50507
    Number of boundary faces = 6373

Processor 10
    Number of cells = 625074
    Number of points = 659766
    Number of faces shared with processor 2 = 24008
    Number of faces shared with processor 9 = 5066
    Number of faces shared with processor 11 = 5049
    Number of faces shared with processor 14 = 16
    Number of faces shared with processor 17 = 1
    Number of faces shared with processor 18 = 18677
    Number of faces shared with processor 19 = 2
    Number of processor patches = 7
    Number of processor faces = 52819
    Number of boundary faces = 16

Processor 11
    Number of cells = 452961
    Number of points = 512597
    Number of faces shared with processor 2 = 2
    Number of faces shared with processor 3 = 49856
    Number of faces shared with processor 10 = 5049
    Number of faces shared with processor 15 = 112
    Number of faces shared with processor 18 = 1
    Number of faces shared with processor 19 = 19090
    Number of processor patches = 6
    Number of processor faces = 74110
    Number of boundary faces = 184

Processor 12
    Number of cells = 397216
    Number of points = 460560
    Number of faces shared with processor 4 = 47867
    Number of faces shared with processor 8 = 142
    Number of faces shared with processor 13 = 2104
    Number of faces shared with processor 20 = 14773
    Number of faces shared with processor 21 = 1
    Number of processor patches = 5
    Number of processor faces = 64887
    Number of boundary faces = 37781

Processor 13
    Number of cells = 602672
    Number of points = 639277
    Number of faces shared with processor 4 = 1
    Number of faces shared with processor 5 = 24899
    Number of faces shared with processor 9 = 18
    Number of faces shared with processor 12 = 2104
    Number of faces shared with processor 14 = 4890
    Number of faces shared with processor 20 = 1
    Number of faces shared with processor 21 = 18149
    Number of faces shared with processor 22 = 1
    Number of processor patches = 8
    Number of processor faces = 50063
    Number of boundary faces = 6555

Processor 14
    Number of cells = 610900
    Number of points = 644965
    Number of faces shared with processor 5 = 21
    Number of faces shared with processor 6 = 23619
    Number of faces shared with processor 10 = 16
    Number of faces shared with processor 13 = 4890
    Number of faces shared with processor 15 = 4856
    Number of faces shared with processor 21 = 1
    Number of faces shared with processor 22 = 18392
    Number of faces shared with processor 23 = 2
    Number of processor patches = 8
    Number of processor faces = 51797
    Number of boundary faces = 16

Processor 15
    Number of cells = 434393
    Number of points = 493596
    Number of faces shared with processor 6 = 1
    Number of faces shared with processor 7 = 50139
    Number of faces shared with processor 11 = 112
    Number of faces shared with processor 14 = 4856
    Number of faces shared with processor 23 = 18962
    Number of processor patches = 5
    Number of processor faces = 74070
    Number of boundary faces = 164

Processor 16
    Number of cells = 467433
    Number of points = 506297
    Number of faces shared with processor 8 = 14116
    Number of faces shared with processor 9 = 1
    Number of faces shared with processor 17 = 4292
    Number of faces shared with processor 20 = 1065
    Number of processor patches = 4
    Number of processor faces = 19474
    Number of boundary faces = 27450

Processor 17
    Number of cells = 602157
    Number of points = 634047
    Number of faces shared with processor 9 = 17986
    Number of faces shared with processor 10 = 1
    Number of faces shared with processor 16 = 4292
    Number of faces shared with processor 18 = 6180
    Number of faces shared with processor 21 = 135
    Number of processor patches = 5
    Number of processor faces = 28594
    Number of boundary faces = 5516

Processor 18
    Number of cells = 610111
    Number of points = 640863
    Number of faces shared with processor 10 = 18677
    Number of faces shared with processor 11 = 1
    Number of faces shared with processor 17 = 6180
    Number of faces shared with processor 19 = 6232
    Number of faces shared with processor 22 = 120
    Number of processor patches = 5
    Number of processor faces = 31210
    Number of boundary faces = 328

Processor 19
    Number of cells = 434409
    Number of points = 466124
    Number of faces shared with processor 10 = 2
    Number of faces shared with processor 11 = 19090
    Number of faces shared with processor 18 = 6232
    Number of faces shared with processor 23 = 840
    Number of processor patches = 4
    Number of processor faces = 26164
    Number of boundary faces = 2686

Processor 20
    Number of cells = 461291
    Number of points = 500220
    Number of faces shared with processor 12 = 14773
    Number of faces shared with processor 13 = 1
    Number of faces shared with processor 16 = 1065
    Number of faces shared with processor 21 = 4119
    Number of processor patches = 4
    Number of processor faces = 19958
    Number of boundary faces = 26904

Processor 21
    Number of cells = 596335
    Number of points = 628167
    Number of faces shared with processor 12 = 1
    Number of faces shared with processor 13 = 18149
    Number of faces shared with processor 14 = 1
    Number of faces shared with processor 17 = 135
    Number of faces shared with processor 20 = 4119
    Number of faces shared with processor 22 = 6082
    Number of processor patches = 6
    Number of processor faces = 28487
    Number of boundary faces = 5550

Processor 22
    Number of cells = 603827
    Number of points = 634265
    Number of faces shared with processor 13 = 1
    Number of faces shared with processor 14 = 18392
    Number of faces shared with processor 18 = 120
    Number of faces shared with processor 21 = 6082
    Number of faces shared with processor 23 = 6168
    Number of processor patches = 5
    Number of processor faces = 30763
    Number of boundary faces = 328

Processor 23
    Number of cells = 429194
    Number of points = 460780
    Number of faces shared with processor 14 = 2
    Number of faces shared with processor 15 = 18962
    Number of faces shared with processor 19 = 840
    Number of faces shared with processor 22 = 6168
    Number of processor patches = 4
    Number of processor faces = 25972
    Number of boundary faces = 2686

Number of processor faces = 511328
Max number of cells = 716332 (36.28981521882516% above average 525594.6666666666)
Max number of processor patches = 8 (57.37704918032787% above average 5.083333333333333)
Max number of faces between processors = 74110 (73.92358720821079% above average 42610.66666666666)

Time = 0

Processor 0: field transfer
--> FOAM Warning : 
    From void* Foam::dlLibraryTable::openLibrary(const Foam::fileName&, bool)
    in file db/dynamicLibrary/dlLibraryTable/dlLibraryTable.C at line 188
    Could not load "libpetscFoam.so"
libpetscFoam.so: cannot open shared object file: No such file or directory
Processor 1: field transfer
--> FOAM Warning : 
    From void* Foam::dlLibraryTable::openLibrary(const Foam::fileName&, bool)
    in file db/dynamicLibrary/dlLibraryTable/dlLibraryTable.C at line 188
    Could not load "libpetscFoam.so"
libpetscFoam.so: cannot open shared object file: No such file or directory
Processor 2: field transfer
--> FOAM Warning : 
    From void* Foam::dlLibraryTable::openLibrary(const Foam::fileName&, bool)
    in file db/dynamicLibrary/dlLibraryTable/dlLibraryTable.C at line 188
    Could not load "libpetscFoam.so"
libpetscFoam.so: cannot open shared object file: No such file or directory
Processor 3: field transfer
--> FOAM Warning : 
    From void* Foam::dlLibraryTable::openLibrary(const Foam::fileName&, bool)
    in file db/dynamicLibrary/dlLibraryTable/dlLibraryTable.C at line 188
    Could not load "libpetscFoam.so"
libpetscFoam.so: cannot open shared object file: No such file or directory
Processor 4: field transfer
--> FOAM Warning : 
    From void* Foam::dlLibraryTable::openLibrary(const Foam::fileName&, bool)
    in file db/dynamicLibrary/dlLibraryTable/dlLibraryTable.C at line 188
    Could not load "libpetscFoam.so"
libpetscFoam.so: cannot open shared object file: No such file or directory
Processor 5: field transfer
--> FOAM Warning : 
    From void* Foam::dlLibraryTable::openLibrary(const Foam::fileName&, bool)
    in file db/dynamicLibrary/dlLibraryTable/dlLibraryTable.C at line 188
    Could not load "libpetscFoam.so"
libpetscFoam.so: cannot open shared object file: No such file or directory
Processor 6: field transfer
--> FOAM Warning : 
    From void* Foam::dlLibraryTable::openLibrary(const Foam::fileName&, bool)
    in file db/dynamicLibrary/dlLibraryTable/dlLibraryTable.C at line 188
    Could not load "libpetscFoam.so"
libpetscFoam.so: cannot open shared object file: No such file or directory
Processor 7: field transfer
--> FOAM Warning : 
    From void* Foam::dlLibraryTable::openLibrary(const Foam::fileName&, bool)
    in file db/dynamicLibrary/dlLibraryTable/dlLibraryTable.C at line 188
    Could not load "libpetscFoam.so"
libpetscFoam.so: cannot open shared object file: No such file or directory
Processor 8: field transfer
--> FOAM Warning : 
    From void* Foam::dlLibraryTable::openLibrary(const Foam::fileName&, bool)
    in file db/dynamicLibrary/dlLibraryTable/dlLibraryTable.C at line 188
    Could not load "libpetscFoam.so"
libpetscFoam.so: cannot open shared object file: No such file or directory
Processor 9: field transfer
--> FOAM Warning : 
    From void* Foam::dlLibraryTable::openLibrary(const Foam::fileName&, bool)
    in file db/dynamicLibrary/dlLibraryTable/dlLibraryTable.C at line 188
    Could not load "libpetscFoam.so"
libpetscFoam.so: cannot open shared object file: No such file or directory
Processor 10: field transfer
--> FOAM Warning : 
    From void* Foam::dlLibraryTable::openLibrary(const Foam::fileName&, bool)
    in file db/dynamicLibrary/dlLibraryTable/dlLibraryTable.C at line 188
    Could not load "libpetscFoam.so"
libpetscFoam.so: cannot open shared object file: No such file or directory
Processor 11: field transfer
--> FOAM Warning : 
    From void* Foam::dlLibraryTable::openLibrary(const Foam::fileName&, bool)
    in file db/dynamicLibrary/dlLibraryTable/dlLibraryTable.C at line 188
    Could not load "libpetscFoam.so"
libpetscFoam.so: cannot open shared object file: No such file or directory
Processor 12: field transfer
--> FOAM Warning : 
    From void* Foam::dlLibraryTable::openLibrary(const Foam::fileName&, bool)
    in file db/dynamicLibrary/dlLibraryTable/dlLibraryTable.C at line 188
    Could not load "libpetscFoam.so"
libpetscFoam.so: cannot open shared object file: No such file or directory
Processor 13: field transfer
--> FOAM Warning : 
    From void* Foam::dlLibraryTable::openLibrary(const Foam::fileName&, bool)
    in file db/dynamicLibrary/dlLibraryTable/dlLibraryTable.C at line 188
    Could not load "libpetscFoam.so"
libpetscFoam.so: cannot open shared object file: No such file or directory
Processor 14: field transfer
--> FOAM Warning : 
    From void* Foam::dlLibraryTable::openLibrary(const Foam::fileName&, bool)
    in file db/dynamicLibrary/dlLibraryTable/dlLibraryTable.C at line 188
    Could not load "libpetscFoam.so"
libpetscFoam.so: cannot open shared object file: No such file or directory
Processor 15: field transfer
--> FOAM Warning : 
    From void* Foam::dlLibraryTable::openLibrary(const Foam::fileName&, bool)
    in file db/dynamicLibrary/dlLibraryTable/dlLibraryTable.C at line 188
    Could not load "libpetscFoam.so"
libpetscFoam.so: cannot open shared object file: No such file or directory
Processor 16: field transfer
--> FOAM Warning : 
    From void* Foam::dlLibraryTable::openLibrary(const Foam::fileName&, bool)
    in file db/dynamicLibrary/dlLibraryTable/dlLibraryTable.C at line 188
    Could not load "libpetscFoam.so"
libpetscFoam.so: cannot open shared object file: No such file or directory
Processor 17: field transfer
--> FOAM Warning : 
    From void* Foam::dlLibraryTable::openLibrary(const Foam::fileName&, bool)
    in file db/dynamicLibrary/dlLibraryTable/dlLibraryTable.C at line 188
    Could not load "libpetscFoam.so"
libpetscFoam.so: cannot open shared object file: No such file or directory
Processor 18: field transfer
--> FOAM Warning : 
    From void* Foam::dlLibraryTable::openLibrary(const Foam::fileName&, bool)
    in file db/dynamicLibrary/dlLibraryTable/dlLibraryTable.C at line 188
    Could not load "libpetscFoam.so"
libpetscFoam.so: cannot open shared object file: No such file or directory
Processor 19: field transfer
--> FOAM Warning : 
    From void* Foam::dlLibraryTable::openLibrary(const Foam::fileName&, bool)
    in file db/dynamicLibrary/dlLibraryTable/dlLibraryTable.C at line 188
    Could not load "libpetscFoam.so"
libpetscFoam.so: cannot open shared object file: No such file or directory
Processor 20: field transfer
--> FOAM Warning : 
    From void* Foam::dlLibraryTable::openLibrary(const Foam::fileName&, bool)
    in file db/dynamicLibrary/dlLibraryTable/dlLibraryTable.C at line 188
    Could not load "libpetscFoam.so"
libpetscFoam.so: cannot open shared object file: No such file or directory
Processor 21: field transfer
--> FOAM Warning : 
    From void* Foam::dlLibraryTable::openLibrary(const Foam::fileName&, bool)
    in file db/dynamicLibrary/dlLibraryTable/dlLibraryTable.C at line 188
    Could not load "libpetscFoam.so"
libpetscFoam.so: cannot open shared object file: No such file or directory
Processor 22: field transfer
--> FOAM Warning : 
    From void* Foam::dlLibraryTable::openLibrary(const Foam::fileName&, bool)
    in file db/dynamicLibrary/dlLibraryTable/dlLibraryTable.C at line 188
    Could not load "libpetscFoam.so"
libpetscFoam.so: cannot open shared object file: No such file or directory
Processor 23: field transfer
--> FOAM Warning : 
    From void* Foam::dlLibraryTable::openLibrary(const Foam::fileName&, bool)
    in file db/dynamicLibrary/dlLibraryTable/dlLibraryTable.C at line 188
    Could not load "libpetscFoam.so"
libpetscFoam.so: cannot open shared object file: No such file or directory

End

