/*---------------------------------------------------------------------------*\
| =========                 |                                                 |
| \\      /  F ield         | OpenFOAM: The Open Source CFD Toolbox           |
|  \\    /   O peration     | Version:  2306                                  |
|   \\  /    A nd           | Website:  www.openfoam.com                      |
|    \\/     M anipulation  |                                                 |
\*---------------------------------------------------------------------------*/
Build  : c423ebec-20231012 OPENFOAM=2306 version=v2306
Arch   : "LSB;label=32;scalar=64"
Exec   : icoFoam -parallel -case /hkfs/work/workspace/scratch/eq4036-l3d/workspace/db2fbc8bb1aed1c025ff7b2e9b6e0d07/case
Date   : Dec 30 2023
Time   : 09:52:32
Host   : hkn0704.localdomain
PID    : 1102297
I/O    : uncollated
Case   : /hkfs/work/workspace/scratch/eq4036-l3d/workspace/db2fbc8bb1aed1c025ff7b2e9b6e0d07/case
nProcs : 8
Hosts  :
(
    (hkn0704.localdomain 8)
)
Pstream initialized with:
    floatTransfer      : false
    nProcsSimpleSum    : 0
    nonBlockingExchange: 0 (tuning: 0)
    exchange algorithm : -1
    commsType          : nonBlocking
    polling iterations : 0
trapFpe: Floating point exception trapping enabled (FOAM_SIGFPE).
fileModificationChecking : Monitoring run-time modified files using timeStampMaster (fileModificationSkew 5, maxFileModificationPolls 20)
allowSystemOperations : Allowing user-supplied system call operations

// * * * * * * * * * * * * * * * * * * * * * * * * * * * * * * * * * * * * * //
Create time

--> FOAM Warning : 
    From void* Foam::dlLibraryTable::openLibrary(const Foam::fileName&, bool)
    in file db/dynamicLibrary/dlLibraryTable/dlLibraryTable.C at line 188
    Could not load "libpetscFoam.so"
libpetscFoam.so: cannot open shared object file: No such file or directory
Create mesh for time = 0


PISO: Operating solver in PISO mode

Reading transportProperties

Reading field p

Reading field U

Reading/calculating face flux field phi


Starting time loop

Time = 0.0005

Courant Number mean: 8.62851e-18 max: 8.67362e-15
[INFO] MatrixAssemblyU: 26.097 [ms]
DILUPBiCGStab:  Solving for Ux, Initial residual = 1, Final residual = 0.0025649, No Iterations 5
DILUPBiCGStab:  Solving for Uy:  solution singularity
DILUPBiCGStab:  Solving for Uz:  solution singularity
[INFO] MomentumPredictor: 87.679 [ms]
[INFO] MatrixAssemblyPI: 21.172 [ms]
[INFO] AdjustPhi: 0.983 [ms]
[INFO] ConstrainPressure: 0.005 [ms]
[INFO] MatrixAssemblyPII: 6.436 [ms]
[OGL LOG][lduLduBase.H:119] Initialising OGL
	OGL commit:  a2fc0ff+
	Branch: feat/on_device_permute 
	Build type: Release
	Ginkgo version: 1.7.0 ( develop)
	Ginkgo commit: sparse-communicator
	MPI is GPU aware: 1
	Forces host buffer based communication: 0
	CPU ranks per GPU: 1
	Matrix format: Ell
	End OGL_INFO
[OGL LOG][Proc: 0]: global_index_init: 27.523 [ms]
[OGL LOG][Proc: 0]p_local_cols: call_init: 0.905 [ms]
[OGL LOG][Proc: 0]p_local_rows: call_init: 0.622 [ms]
[OGL LOG][Proc: 0]p_local_ldu_map: call_init: 0.009 [ms]
[OGL LOG][Proc: 0]p_local_coeffs: call_init: 3.523 [ms]
[OGL LOG][Proc: 0]p_non_local_cols: call_init: 0.316 [ms]
[OGL LOG][Proc: 0]p_non_local_rows: call_init: 0.272 [ms]
[OGL LOG][Proc: 0]p_non_local_ldu_map: call_init: 0.315 [ms]
[OGL LOG][Proc: 0]p_non_local_coeffs: call_init: 0.329 [ms]
[OGL LOG][Proc: 0]p: init_local_sparsity_pattern: 34.922 [ms]
[OGL LOG][Proc: 0]p: init_non_local_sparsity_pattern: 0.494 [ms]
[OGL LOG][Proc: 0]p: update_local_matrix_data: 57.896 [ms]
[OGL LOG][Proc: 0]p: update_non_local_matrix_data: 0.08 [ms]
[OGL LOG][Proc: 0]device_partition: call_init: 0.585 [ms]
[OGL LOG][Proc: 0]p_matrix: call_init: 17.473 [ms]
[OGL LOG][Proc: 0]p_rhs: call_init: 0.466 [ms]
[OGL LOG][Proc: 0]p_solution: call_init: 0.689 [ms]
[OGL LOG][Proc: 0]p: init_precond: 0.22 [ms]
[OGL LOG][StoppingCriterion.H:237] Creating stopping criterion with minIter 0 frequency 1
[OGL LOG][Proc: 0]p: generate_solver: 0.042 [ms]
[OGL LOG][Proc: 0]p: solve: 3725.57 [ms]
[OGL LOG][Proc: 0]p: copy_x_back: 0.621 [ms]
[OGL LOG][lduLduBase.H:330] 
Statistics:
	Time per iteration: 4698 [mu s]
	Time per residual norm calculation: 4685.000000 [mu s]
	Time per iteration and DOF: 4.698000 [ns]
	Retrieve results bandwidth 1.610000 [GByte/s]
[OGL LOG][Proc: 0]p: solve_multi_gpu: 3748.3 [ms]
nonecudaGKOCG:  Solving for p, Initial residual = 1, Final residual = 9.98784e-05, No Iterations 793
[INFO] SolveP: 5491.23 [ms]
time step continuity errors : sum local = 2.14454e-08, global = -2.4807e-21, cumulative = -2.4807e-21
[INFO] ContinuityError: 2.928 [ms]
[INFO] CorrectBoundary: 0.13 [ms]
[INFO] PISOStep: 5534.02 [ms]
[INFO] MatrixAssemblyPI: 21.77 [ms]
[INFO] AdjustPhi: 1.172 [ms]
[INFO] ConstrainPressure: 0.002 [ms]
[INFO] MatrixAssemblyPII: 7.369 [ms]
[OGL LOG][Proc: 0]: global_index_init: 0.011 [ms]
[OGL LOG][Proc: 0]p_local_coeffs: call_update: 0.001 [ms]
[OGL LOG][Proc: 0]p_non_local_coeffs: call_update: 0 [ms]
[OGL LOG][Proc: 0]p: update_local_matrix_data: 5.578 [ms]
[OGL LOG][Proc: 0]p: update_non_local_matrix_data: 0.066 [ms]
[OGL LOG][Proc: 0]p: regenerate_distributed_matrix: 16.492 [ms]
[OGL LOG][Proc: 0]p_matrix: call_update: 26.47 [ms]
[OGL LOG][Proc: 0]p_rhs: call_update: 0.459 [ms]
[OGL LOG][Proc: 0]p: init_precond: 0.037 [ms]
[OGL LOG][StoppingCriterion.H:237] Creating stopping criterion with minIter 475 frequency 17
[OGL LOG][Proc: 0]p: generate_solver: 0.001 [ms]
[OGL LOG][Proc: 0]p: solve: 2658.33 [ms]
[OGL LOG][Proc: 0]p: copy_x_back: 0.734 [ms]
[OGL LOG][lduLduBase.H:330] 
Statistics:
	Time per iteration: 3395 [mu s]
	Time per residual norm calculation: 1099.000000 [mu s]
	Time per iteration and DOF: 3.395000 [ns]
	Retrieve results bandwidth 1.362000 [GByte/s]
[OGL LOG][Proc: 0]p: solve_multi_gpu: 2686.57 [ms]
nonecudaGKOCG:  Solving for p, Initial residual = 0.731052, Final residual = 9.47006e-05, No Iterations 783
[INFO] SolveP: 2694.3 [ms]
time step continuity errors : sum local = 2.68514e-08, global = 1.06797e-21, cumulative = -1.41273e-21
[INFO] ContinuityError: 2.805 [ms]
[INFO] CorrectBoundary: 0.119 [ms]
[INFO] PISOStep: 2739.47 [ms]
[INFO] TimeStep: 8391.1 [ms]
ExecutionTime = 7.52 s  ClockTime = 9 s

Time = 0.001

Courant Number mean: 0.0215341 max: 0.377097
[INFO] MatrixAssemblyU: 20.804 [ms]
DILUPBiCGStab:  Solving for Ux, Initial residual = 0.150351, Final residual = 0.00113128, No Iterations 5
DILUPBiCGStab:  Solving for Uy, Initial residual = 0.368162, Final residual = 0.00224404, No Iterations 5
DILUPBiCGStab:  Solving for Uz, Initial residual = 0.988636, Final residual = 0.00605697, No Iterations 5
[INFO] MomentumPredictor: 160.099 [ms]
[INFO] MatrixAssemblyPI: 20.845 [ms]
[INFO] AdjustPhi: 1.04 [ms]
[INFO] ConstrainPressure: 0.002 [ms]
[INFO] MatrixAssemblyPII: 6.432 [ms]
[OGL LOG][Proc: 0]: global_index_init: 0.009 [ms]
[OGL LOG][Proc: 0]p_local_coeffs: call_update: 0 [ms]
[OGL LOG][Proc: 0]p_non_local_coeffs: call_update: 0 [ms]
[OGL LOG][Proc: 0]p: update_local_matrix_data: 5.335 [ms]
[OGL LOG][Proc: 0]p: update_non_local_matrix_data: 0.079 [ms]
[OGL LOG][Proc: 0]p: regenerate_distributed_matrix: 19.202 [ms]
[OGL LOG][Proc: 0]p_matrix: call_update: 19.931 [ms]
[OGL LOG][Proc: 0]p_rhs: call_update: 0.466 [ms]
[OGL LOG][Proc: 0]p: init_precond: 0.026 [ms]
[OGL LOG][StoppingCriterion.H:237] Creating stopping criterion with minIter 469 frequency 10
[OGL LOG][Proc: 0]p: generate_solver: 0.001 [ms]
[OGL LOG][Proc: 0]p: solve: 2645 [ms]
[OGL LOG][Proc: 0]p: copy_x_back: 0.736 [ms]
[OGL LOG][lduLduBase.H:330] 
Statistics:
	Time per iteration: 3386 [mu s]
	Time per residual norm calculation: 1255.000000 [mu s]
	Time per iteration and DOF: 3.386000 [ns]
	Retrieve results bandwidth 1.358000 [GByte/s]
[OGL LOG][Proc: 0]p: solve_multi_gpu: 2666.99 [ms]
nonecudaGKOCG:  Solving for p, Initial residual = 0.690613, Final residual = 7.42371e-05, No Iterations 781
[INFO] SolveP: 2674.07 [ms]
time step continuity errors : sum local = 2.35547e-08, global = -2.3582e-21, cumulative = -3.77093e-21
[INFO] ContinuityError: 3.583 [ms]
[INFO] CorrectBoundary: 0.116 [ms]
[INFO] PISOStep: 2717.11 [ms]
[INFO] MatrixAssemblyPI: 22.124 [ms]
[INFO] AdjustPhi: 1.87 [ms]
[INFO] ConstrainPressure: 0.002 [ms]
[INFO] MatrixAssemblyPII: 7.423 [ms]
[OGL LOG][Proc: 0]: global_index_init: 0.01 [ms]
[OGL LOG][Proc: 0]p_local_coeffs: call_update: 0 [ms]
[OGL LOG][Proc: 0]p_non_local_coeffs: call_update: 0 [ms]
[OGL LOG][Proc: 0]p: update_local_matrix_data: 5.201 [ms]
[OGL LOG][Proc: 0]p: update_non_local_matrix_data: 0.069 [ms]
[OGL LOG][Proc: 0]p: regenerate_distributed_matrix: 17.329 [ms]
[OGL LOG][Proc: 0]p_matrix: call_update: 17.864 [ms]
[OGL LOG][Proc: 0]p_rhs: call_update: 0.967 [ms]
[OGL LOG][Proc: 0]p: init_precond: 0.025 [ms]
[OGL LOG][StoppingCriterion.H:237] Creating stopping criterion with minIter 468 frequency 12
[OGL LOG][Proc: 0]p: generate_solver: 0.001 [ms]
[OGL LOG][Proc: 0]p: solve: 2630.1 [ms]
[OGL LOG][Proc: 0]p: copy_x_back: 0.592 [ms]
[OGL LOG][lduLduBase.H:330] 
Statistics:
	Time per iteration: 3367 [mu s]
	Time per residual norm calculation: 1251.000000 [mu s]
	Time per iteration and DOF: 3.367000 [ns]
	Retrieve results bandwidth 1.689000 [GByte/s]
[OGL LOG][Proc: 0]p: solve_multi_gpu: 2650.14 [ms]
nonecudaGKOCG:  Solving for p, Initial residual = 0.61979, Final residual = 6.65503e-05, No Iterations 781
[INFO] SolveP: 2657.41 [ms]
time step continuity errors : sum local = 2.15366e-08, global = 4.40128e-21, cumulative = 6.3035e-22
[INFO] ContinuityError: 3.249 [ms]
[INFO] CorrectBoundary: 0.112 [ms]
[INFO] PISOStep: 2703.48 [ms]
[INFO] TimeStep: 5604.71 [ms]
ExecutionTime = 13.11 s  ClockTime = 14 s

Time = 0.0015

Courant Number mean: 0.0324926 max: 0.441243
[INFO] MatrixAssemblyU: 20.365 [ms]
DILUPBiCGStab:  Solving for Ux, Initial residual = 0.0531065, Final residual = 0.000326429, No Iterations 5
DILUPBiCGStab:  Solving for Uy, Initial residual = 0.12468, Final residual = 0.000558071, No Iterations 5
DILUPBiCGStab:  Solving for Uz, Initial residual = 0.575449, Final residual = 0.00311904, No Iterations 5
[INFO] MomentumPredictor: 160.235 [ms]
[INFO] MatrixAssemblyPI: 20.712 [ms]
[INFO] AdjustPhi: 0.94 [ms]
[INFO] ConstrainPressure: 0.002 [ms]
[INFO] MatrixAssemblyPII: 6.36 [ms]
[OGL LOG][Proc: 0]: global_index_init: 0.01 [ms]
[OGL LOG][Proc: 0]p_local_coeffs: call_update: 0 [ms]
[OGL LOG][Proc: 0]p_non_local_coeffs: call_update: 0 [ms]
[OGL LOG][Proc: 0]p: update_local_matrix_data: 5.562 [ms]
[OGL LOG][Proc: 0]p: update_non_local_matrix_data: 0.069 [ms]
[OGL LOG][Proc: 0]p: regenerate_distributed_matrix: 17.91 [ms]
[OGL LOG][Proc: 0]p_matrix: call_update: 18.575 [ms]
[OGL LOG][Proc: 0]p_rhs: call_update: 0.517 [ms]
[OGL LOG][Proc: 0]p: init_precond: 0.029 [ms]
[OGL LOG][StoppingCriterion.H:237] Creating stopping criterion with minIter 468 frequency 12
[OGL LOG][Proc: 0]p: generate_solver: 0.001 [ms]
[OGL LOG][Proc: 0]p: solve: 2593.22 [ms]
[OGL LOG][Proc: 0]p: copy_x_back: 0.79 [ms]
[OGL LOG][lduLduBase.H:330] 
Statistics:
	Time per iteration: 3372 [mu s]
	Time per residual norm calculation: 1251.000000 [mu s]
	Time per iteration and DOF: 3.372000 [ns]
	Retrieve results bandwidth 1.265000 [GByte/s]
[OGL LOG][Proc: 0]p: solve_multi_gpu: 2613.78 [ms]
nonecudaGKOCG:  Solving for p, Initial residual = 0.632505, Final residual = 9.5497e-05, No Iterations 769
[INFO] SolveP: 2621.3 [ms]
time step continuity errors : sum local = 2.1873e-08, global = -2.39001e-21, cumulative = -1.75966e-21
[INFO] ContinuityError: 3.277 [ms]
[INFO] CorrectBoundary: 0.123 [ms]
[INFO] PISOStep: 2664.43 [ms]
[INFO] MatrixAssemblyPI: 22.076 [ms]
[INFO] AdjustPhi: 0.952 [ms]
[INFO] ConstrainPressure: 0.002 [ms]
[INFO] MatrixAssemblyPII: 7.282 [ms]
[OGL LOG][Proc: 0]: global_index_init: 0.012 [ms]
[OGL LOG][Proc: 0]p_local_coeffs: call_update: 0 [ms]
[OGL LOG][Proc: 0]p_non_local_coeffs: call_update: 0 [ms]
[OGL LOG][Proc: 0]p: update_local_matrix_data: 5.345 [ms]
[OGL LOG][Proc: 0]p: update_non_local_matrix_data: 0.068 [ms]
[OGL LOG][Proc: 0]p: regenerate_distributed_matrix: 17.437 [ms]
[OGL LOG][Proc: 0]p_matrix: call_update: 18.24 [ms]
[OGL LOG][Proc: 0]p_rhs: call_update: 0.491 [ms]
[OGL LOG][Proc: 0]p: init_precond: 0.032 [ms]
[OGL LOG][StoppingCriterion.H:237] Creating stopping criterion with minIter 461 frequency 12
[OGL LOG][Proc: 0]p: generate_solver: 0.002 [ms]
[OGL LOG][Proc: 0]p: solve: 2587.78 [ms]
[OGL LOG][Proc: 0]p: copy_x_back: 0.407 [ms]
[OGL LOG][lduLduBase.H:330] 
Statistics:
	Time per iteration: 3365 [mu s]
	Time per residual norm calculation: 1247.000000 [mu s]
	Time per iteration and DOF: 3.365000 [ns]
	Retrieve results bandwidth 2.457000 [GByte/s]
[OGL LOG][Proc: 0]p: solve_multi_gpu: 2607.9 [ms]
nonecudaGKOCG:  Solving for p, Initial residual = 0.579916, Final residual = 8.10873e-05, No Iterations 769
[INFO] SolveP: 2615.31 [ms]
time step continuity errors : sum local = 1.80802e-08, global = 5.12746e-21, cumulative = 3.3678e-21
[INFO] ContinuityError: 4.259 [ms]
[INFO] CorrectBoundary: 0.467 [ms]
[INFO] PISOStep: 2659.43 [ms]
[INFO] TimeStep: 5507.95 [ms]
ExecutionTime = 18.61 s  ClockTime = 20 s

Time = 0.002

Courant Number mean: 0.0388942 max: 0.452946
[INFO] MatrixAssemblyU: 18.422 [ms]
DILUPBiCGStab:  Solving for Ux, Initial residual = 0.0318966, Final residual = 0.000167512, No Iterations 5
DILUPBiCGStab:  Solving for Uy, Initial residual = 0.0813674, Final residual = 0.000384958, No Iterations 5
DILUPBiCGStab:  Solving for Uz, Initial residual = 0.273834, Final residual = 0.00118124, No Iterations 5
[INFO] MomentumPredictor: 163.15 [ms]
[INFO] MatrixAssemblyPI: 20.826 [ms]
[INFO] AdjustPhi: 4.047 [ms]
[INFO] ConstrainPressure: 0.002 [ms]
[INFO] MatrixAssemblyPII: 6.338 [ms]
[OGL LOG][Proc: 0]: global_index_init: 0.008 [ms]
[OGL LOG][Proc: 0]p_local_coeffs: call_update: 0 [ms]
[OGL LOG][Proc: 0]p_non_local_coeffs: call_update: 0 [ms]
[OGL LOG][Proc: 0]p: update_local_matrix_data: 5.149 [ms]
[OGL LOG][Proc: 0]p: update_non_local_matrix_data: 0.048 [ms]
[OGL LOG][Proc: 0]p: regenerate_distributed_matrix: 17.78 [ms]
[OGL LOG][Proc: 0]p_matrix: call_update: 18.219 [ms]
[OGL LOG][Proc: 0]p_rhs: call_update: 1.179 [ms]
[OGL LOG][Proc: 0]p: init_precond: 0.027 [ms]
[OGL LOG][StoppingCriterion.H:237] Creating stopping criterion with minIter 461 frequency 12
[OGL LOG][Proc: 0]p: generate_solver: 0.001 [ms]
[OGL LOG][Proc: 0]p: solve: 2597.93 [ms]
[OGL LOG][Proc: 0]p: copy_x_back: 0.772 [ms]
[OGL LOG][lduLduBase.H:330] 
Statistics:
	Time per iteration: 3378 [mu s]
	Time per residual norm calculation: 1404.000000 [mu s]
	Time per iteration and DOF: 3.378000 [ns]
	Retrieve results bandwidth 1.295000 [GByte/s]
[OGL LOG][Proc: 0]p: solve_multi_gpu: 2619.08 [ms]
nonecudaGKOCG:  Solving for p, Initial residual = 0.412403, Final residual = 5.53428e-05, No Iterations 769
[INFO] SolveP: 2626.08 [ms]
time step continuity errors : sum local = 1.08217e-08, global = -1.87475e-21, cumulative = 1.49305e-21
[INFO] ContinuityError: 3.187 [ms]
[INFO] CorrectBoundary: 0.117 [ms]
[INFO] PISOStep: 2671.95 [ms]
[INFO] MatrixAssemblyPI: 21.856 [ms]
[INFO] AdjustPhi: 0.968 [ms]
[INFO] ConstrainPressure: 0.001 [ms]
[INFO] MatrixAssemblyPII: 7.343 [ms]
[OGL LOG][Proc: 0]: global_index_init: 0.013 [ms]
[OGL LOG][Proc: 0]p_local_coeffs: call_update: 0 [ms]
[OGL LOG][Proc: 0]p_non_local_coeffs: call_update: 0 [ms]
[OGL LOG][Proc: 0]p: update_local_matrix_data: 5.187 [ms]
[OGL LOG][Proc: 0]p: update_non_local_matrix_data: 0.07 [ms]
[OGL LOG][Proc: 0]p: regenerate_distributed_matrix: 17.941 [ms]
[OGL LOG][Proc: 0]p_matrix: call_update: 18.417 [ms]
[OGL LOG][Proc: 0]p_rhs: call_update: 0.952 [ms]
[OGL LOG][Proc: 0]p: init_precond: 0.027 [ms]
[OGL LOG][StoppingCriterion.H:237] Creating stopping criterion with minIter 461 frequency 12
[OGL LOG][Proc: 0]p: generate_solver: 0.001 [ms]
[OGL LOG][Proc: 0]p: solve: 2570.43 [ms]
[OGL LOG][Proc: 0]p: copy_x_back: 0.359 [ms]
[OGL LOG][lduLduBase.H:330] 
Statistics:
	Time per iteration: 3342 [mu s]
	Time per residual norm calculation: 1246.000000 [mu s]
	Time per iteration and DOF: 3.342000 [ns]
	Retrieve results bandwidth 2.785000 [GByte/s]
[OGL LOG][Proc: 0]p: solve_multi_gpu: 2590.73 [ms]
nonecudaGKOCG:  Solving for p, Initial residual = 0.350521, Final residual = 4.6224e-05, No Iterations 769
[INFO] SolveP: 2597.94 [ms]
time step continuity errors : sum local = 9.1287e-09, global = 3.43867e-21, cumulative = 4.93172e-21
[INFO] ContinuityError: 4.632 [ms]
[INFO] CorrectBoundary: 0.467 [ms]
[INFO] PISOStep: 2642.54 [ms]
[INFO] TimeStep: 5499.35 [ms]
ExecutionTime = 24.1 s  ClockTime = 25 s

Time = 0.0025

Courant Number mean: 0.043947 max: 0.459624
[INFO] MatrixAssemblyU: 20.402 [ms]
DILUPBiCGStab:  Solving for Ux, Initial residual = 0.0235041, Final residual = 0.000104802, No Iterations 5
DILUPBiCGStab:  Solving for Uy, Initial residual = 0.0515221, Final residual = 0.000235042, No Iterations 5
DILUPBiCGStab:  Solving for Uz, Initial residual = 0.0980622, Final residual = 0.00047919, No Iterations 5
[INFO] MomentumPredictor: 159.611 [ms]
[INFO] MatrixAssemblyPI: 20.575 [ms]
[INFO] AdjustPhi: 1.056 [ms]
[INFO] ConstrainPressure: 0.002 [ms]
[INFO] MatrixAssemblyPII: 6.327 [ms]
[OGL LOG][Proc: 0]: global_index_init: 0.007 [ms]
[OGL LOG][Proc: 0]p_local_coeffs: call_update: 0 [ms]
[OGL LOG][Proc: 0]p_non_local_coeffs: call_update: 0 [ms]
[OGL LOG][Proc: 0]p: update_local_matrix_data: 5.11 [ms]
[OGL LOG][Proc: 0]p: update_non_local_matrix_data: 0.049 [ms]
[OGL LOG][Proc: 0]p: regenerate_distributed_matrix: 17.317 [ms]
[OGL LOG][Proc: 0]p_matrix: call_update: 18.015 [ms]
[OGL LOG][Proc: 0]p_rhs: call_update: 0.345 [ms]
[OGL LOG][Proc: 0]p: init_precond: 0.026 [ms]
[OGL LOG][StoppingCriterion.H:237] Creating stopping criterion with minIter 461 frequency 12
[OGL LOG][Proc: 0]p: generate_solver: 0.001 [ms]
[OGL LOG][Proc: 0]p: solve: 2455.2 [ms]
[OGL LOG][Proc: 0]p: copy_x_back: 0.741 [ms]
[OGL LOG][lduLduBase.H:330] 
Statistics:
	Time per iteration: 3349 [mu s]
	Time per residual norm calculation: 1247.000000 [mu s]
	Time per iteration and DOF: 3.349000 [ns]
	Retrieve results bandwidth 1.349000 [GByte/s]
[OGL LOG][Proc: 0]p: solve_multi_gpu: 2475.17 [ms]
nonecudaGKOCG:  Solving for p, Initial residual = 0.314736, Final residual = 8.1165e-05, No Iterations 733
[INFO] SolveP: 2482.22 [ms]
time step continuity errors : sum local = 1.3106e-08, global = -1.98347e-21, cumulative = 2.94825e-21
[INFO] ContinuityError: 3.12 [ms]
[INFO] CorrectBoundary: 0.125 [ms]
[INFO] PISOStep: 2524.71 [ms]
[INFO] MatrixAssemblyPI: 21.965 [ms]
[INFO] AdjustPhi: 1.01 [ms]
[INFO] ConstrainPressure: 0.001 [ms]
[INFO] MatrixAssemblyPII: 6.76 [ms]
[OGL LOG][Proc: 0]: global_index_init: 0.011 [ms]
[OGL LOG][Proc: 0]p_local_coeffs: call_update: 0 [ms]
[OGL LOG][Proc: 0]p_non_local_coeffs: call_update: 0 [ms]
[OGL LOG][Proc: 0]p: update_local_matrix_data: 5.115 [ms]
[OGL LOG][Proc: 0]p: update_non_local_matrix_data: 0.071 [ms]
[OGL LOG][Proc: 0]p: regenerate_distributed_matrix: 17.466 [ms]
[OGL LOG][Proc: 0]p_matrix: call_update: 18.446 [ms]
[OGL LOG][Proc: 0]p_rhs: call_update: 0.554 [ms]
[OGL LOG][Proc: 0]p: init_precond: 0.026 [ms]
[OGL LOG][StoppingCriterion.H:237] Creating stopping criterion with minIter 439 frequency 12
[OGL LOG][Proc: 0]p: generate_solver: 0.001 [ms]
[OGL LOG][Proc: 0]p: solve: 2432.14 [ms]
[OGL LOG][Proc: 0]p: copy_x_back: 0.388 [ms]
[OGL LOG][lduLduBase.H:330] 
Statistics:
	Time per iteration: 3318 [mu s]
	Time per residual norm calculation: 1237.000000 [mu s]
	Time per iteration and DOF: 3.318000 [ns]
	Retrieve results bandwidth 2.577000 [GByte/s]
[OGL LOG][Proc: 0]p: solve_multi_gpu: 2452.12 [ms]
nonecudaGKOCG:  Solving for p, Initial residual = 0.269235, Final residual = 7.39814e-05, No Iterations 733
[INFO] SolveP: 2459.37 [ms]
time step continuity errors : sum local = 1.18577e-08, global = 5.53826e-21, cumulative = 8.48651e-21
[INFO] ContinuityError: 2.96 [ms]
[INFO] CorrectBoundary: 0.091 [ms]
[INFO] PISOStep: 2500.81 [ms]
[INFO] TimeStep: 5208.31 [ms]
ExecutionTime = 29.31 s  ClockTime = 30 s

Time = 0.003

Courant Number mean: 0.047987 max: 0.463866
[INFO] MatrixAssemblyU: 19.095 [ms]
DILUPBiCGStab:  Solving for Ux, Initial residual = 0.0178881, Final residual = 7.93731e-05, No Iterations 5
DILUPBiCGStab:  Solving for Uy, Initial residual = 0.0401303, Final residual = 0.000115985, No Iterations 5
DILUPBiCGStab:  Solving for Uz, Initial residual = 0.0851, Final residual = 0.000399221, No Iterations 5
[INFO] MomentumPredictor: 157.165 [ms]
[INFO] MatrixAssemblyPI: 20.537 [ms]
[INFO] AdjustPhi: 0.916 [ms]
[INFO] ConstrainPressure: 0.003 [ms]
[INFO] MatrixAssemblyPII: 6.316 [ms]
[OGL LOG][Proc: 0]: global_index_init: 0.007 [ms]
[OGL LOG][Proc: 0]p_local_coeffs: call_update: 0 [ms]
[OGL LOG][Proc: 0]p_non_local_coeffs: call_update: 0 [ms]
[OGL LOG][Proc: 0]p: update_local_matrix_data: 11.41 [ms]
[OGL LOG][Proc: 0]p: update_non_local_matrix_data: 0.049 [ms]
[OGL LOG][Proc: 0]p: regenerate_distributed_matrix: 19.7 [ms]
[OGL LOG][Proc: 0]p_matrix: call_update: 24.714 [ms]
[OGL LOG][Proc: 0]p_rhs: call_update: 4.848 [ms]
[OGL LOG][Proc: 0]p: init_precond: 0.025 [ms]
[OGL LOG][StoppingCriterion.H:237] Creating stopping criterion with minIter 439 frequency 12
[OGL LOG][Proc: 0]p: generate_solver: 0.001 [ms]
[OGL LOG][Proc: 0]p: solve: 2435.76 [ms]
[OGL LOG][Proc: 0]p: copy_x_back: 0.392 [ms]
[OGL LOG][lduLduBase.H:330] 
Statistics:
	Time per iteration: 3378 [mu s]
	Time per residual norm calculation: 1247.000000 [mu s]
	Time per iteration and DOF: 3.378000 [ns]
	Retrieve results bandwidth 2.551000 [GByte/s]
[OGL LOG][Proc: 0]p: solve_multi_gpu: 2466.24 [ms]
nonecudaGKOCG:  Solving for p, Initial residual = 0.196868, Final residual = 9.96542e-05, No Iterations 721
[INFO] SolveP: 2480 [ms]
time step continuity errors : sum local = 1.55397e-08, global = -2.0885e-21, cumulative = 6.39801e-21
[INFO] ContinuityError: 4.723 [ms]
[INFO] CorrectBoundary: 0.768 [ms]
[INFO] PISOStep: 2522.39 [ms]
[INFO] MatrixAssemblyPI: 21.518 [ms]
[INFO] AdjustPhi: 1.512 [ms]
[INFO] ConstrainPressure: 0.003 [ms]
[INFO] MatrixAssemblyPII: 6.09 [ms]
[OGL LOG][Proc: 0]: global_index_init: 0.029 [ms]
[OGL LOG][Proc: 0]p_local_coeffs: call_update: 0 [ms]
[OGL LOG][Proc: 0]p_non_local_coeffs: call_update: 0 [ms]
[OGL LOG][Proc: 0]p: update_local_matrix_data: 5.145 [ms]
[OGL LOG][Proc: 0]p: update_non_local_matrix_data: 0.052 [ms]
[OGL LOG][Proc: 0]p: regenerate_distributed_matrix: 16.718 [ms]
[OGL LOG][Proc: 0]p_matrix: call_update: 17.2 [ms]
[OGL LOG][Proc: 0]p_rhs: call_update: 0.874 [ms]
[OGL LOG][Proc: 0]p: init_precond: 0.027 [ms]
[OGL LOG][StoppingCriterion.H:237] Creating stopping criterion with minIter 432 frequency 12
[OGL LOG][Proc: 0]p: generate_solver: 0.001 [ms]
[OGL LOG][Proc: 0]p: solve: 2425.86 [ms]
[OGL LOG][Proc: 0]p: copy_x_back: 0.647 [ms]
[OGL LOG][lduLduBase.H:330] 
Statistics:
	Time per iteration: 3364 [mu s]
	Time per residual norm calculation: 1251.000000 [mu s]
	Time per iteration and DOF: 3.364000 [ns]
	Retrieve results bandwidth 1.545000 [GByte/s]
[OGL LOG][Proc: 0]p: solve_multi_gpu: 2445.64 [ms]
nonecudaGKOCG:  Solving for p, Initial residual = 0.163637, Final residual = 8.67465e-05, No Iterations 721
[INFO] SolveP: 2452.27 [ms]
time step continuity errors : sum local = 1.35399e-08, global = 3.55851e-21, cumulative = 9.95651e-21
[INFO] ContinuityError: 3.623 [ms]
[INFO] CorrectBoundary: 0.115 [ms]
[INFO] PISOStep: 2497.75 [ms]
[INFO] TimeStep: 5199.17 [ms]
ExecutionTime = 34.47 s  ClockTime = 36 s

Time = 0.0035

Courant Number mean: 0.0513959 max: 0.466746
[INFO] MatrixAssemblyU: 20.416 [ms]
DILUPBiCGStab:  Solving for Ux, Initial residual = 0.0146332, Final residual = 5.75427e-05, No Iterations 5
DILUPBiCGStab:  Solving for Uy, Initial residual = 0.0317655, Final residual = 9.93785e-05, No Iterations 5
DILUPBiCGStab:  Solving for Uz, Initial residual = 0.0565442, Final residual = 0.000245694, No Iterations 5
[INFO] MomentumPredictor: 158.54 [ms]
[INFO] MatrixAssemblyPI: 20.639 [ms]
[INFO] AdjustPhi: 0.891 [ms]
[INFO] ConstrainPressure: 0.001 [ms]
[INFO] MatrixAssemblyPII: 6.39 [ms]
[OGL LOG][Proc: 0]: global_index_init: 0.01 [ms]
[OGL LOG][Proc: 0]p_local_coeffs: call_update: 0 [ms]
[OGL LOG][Proc: 0]p_non_local_coeffs: call_update: 0 [ms]
[OGL LOG][Proc: 0]p: update_local_matrix_data: 5.25 [ms]
[OGL LOG][Proc: 0]p: update_non_local_matrix_data: 0.068 [ms]
[OGL LOG][Proc: 0]p: regenerate_distributed_matrix: 16.306 [ms]
[OGL LOG][Proc: 0]p_matrix: call_update: 16.627 [ms]
[OGL LOG][Proc: 0]p_rhs: call_update: 0.856 [ms]
[OGL LOG][Proc: 0]p: init_precond: 0.029 [ms]
[OGL LOG][StoppingCriterion.H:237] Creating stopping criterion with minIter 432 frequency 12
[OGL LOG][Proc: 0]p: generate_solver: 0.001 [ms]
[OGL LOG][Proc: 0]p: solve: 1503.77 [ms]
[OGL LOG][Proc: 0]p: copy_x_back: 0.361 [ms]
[OGL LOG][lduLduBase.H:330] 
Statistics:
	Time per iteration: 3290 [mu s]
	Time per residual norm calculation: 1244.000000 [mu s]
	Time per iteration and DOF: 3.290000 [ns]
	Retrieve results bandwidth 2.770000 [GByte/s]
[OGL LOG][Proc: 0]p: solve_multi_gpu: 1522.2 [ms]
nonecudaGKOCG:  Solving for p, Initial residual = 0.139413, Final residual = 9.50719e-05, No Iterations 457
[INFO] SolveP: 1529.2 [ms]
time step continuity errors : sum local = 1.53808e-08, global = -2.15998e-21, cumulative = 7.79654e-21
[INFO] ContinuityError: 2.422 [ms]
[INFO] CorrectBoundary: 0.094 [ms]
[INFO] PISOStep: 1567.67 [ms]
[INFO] MatrixAssemblyPI: 19.863 [ms]
[INFO] AdjustPhi: 0.909 [ms]
[INFO] ConstrainPressure: 0.002 [ms]
[INFO] MatrixAssemblyPII: 6.319 [ms]
[OGL LOG][Proc: 0]: global_index_init: 0.006 [ms]
[OGL LOG][Proc: 0]p_local_coeffs: call_update: 0 [ms]
[OGL LOG][Proc: 0]p_non_local_coeffs: call_update: 0 [ms]
[OGL LOG][Proc: 0]p: update_local_matrix_data: 5.251 [ms]
[OGL LOG][Proc: 0]p: update_non_local_matrix_data: 0.047 [ms]
[OGL LOG][Proc: 0]p: regenerate_distributed_matrix: 16.588 [ms]
[OGL LOG][Proc: 0]p_matrix: call_update: 17.115 [ms]
[OGL LOG][Proc: 0]p_rhs: call_update: 0.831 [ms]
[OGL LOG][Proc: 0]p: init_precond: 0.025 [ms]
[OGL LOG][StoppingCriterion.H:237] Creating stopping criterion with minIter 274 frequency 9
[OGL LOG][Proc: 0]p: generate_solver: 0.001 [ms]
[OGL LOG][Proc: 0]p: solve: 1116.8 [ms]
[OGL LOG][Proc: 0]p: copy_x_back: 0.357 [ms]
[OGL LOG][lduLduBase.H:330] 
Statistics:
	Time per iteration: 3343 [mu s]
	Time per residual norm calculation: 1243.000000 [mu s]
	Time per iteration and DOF: 3.343000 [ns]
	Retrieve results bandwidth 2.801000 [GByte/s]
[OGL LOG][Proc: 0]p: solve_multi_gpu: 1135.68 [ms]
nonecudaGKOCG:  Solving for p, Initial residual = 0.116529, Final residual = 9.24754e-05, No Iterations 334
[INFO] SolveP: 1142.6 [ms]
time step continuity errors : sum local = 1.40728e-08, global = -3.27016e-21, cumulative = 4.52638e-21
[INFO] ContinuityError: 2.373 [ms]
[INFO] CorrectBoundary: 0.087 [ms]
[INFO] PISOStep: 1180.18 [ms]
[INFO] TimeStep: 2929.83 [ms]
ExecutionTime = 37.41 s  ClockTime = 39 s

Time = 0.004

Courant Number mean: 0.0543347 max: 0.468955
[INFO] MatrixAssemblyU: 20.302 [ms]
DILUPBiCGStab:  Solving for Ux, Initial residual = 0.0122755, Final residual = 4.51125e-05, No Iterations 5
DILUPBiCGStab:  Solving for Uy, Initial residual = 0.0265301, Final residual = 6.38604e-05, No Iterations 5
DILUPBiCGStab:  Solving for Uz, Initial residual = 0.05116, Final residual = 0.00017146, No Iterations 5
[INFO] MomentumPredictor: 157.709 [ms]
[INFO] MatrixAssemblyPI: 20.416 [ms]
[INFO] AdjustPhi: 0.934 [ms]
[INFO] ConstrainPressure: 0.002 [ms]
[INFO] MatrixAssemblyPII: 6.43 [ms]
[OGL LOG][Proc: 0]: global_index_init: 0.007 [ms]
[OGL LOG][Proc: 0]p_local_coeffs: call_update: 0 [ms]
[OGL LOG][Proc: 0]p_non_local_coeffs: call_update: 0 [ms]
[OGL LOG][Proc: 0]p: update_local_matrix_data: 5.183 [ms]
[OGL LOG][Proc: 0]p: update_non_local_matrix_data: 0.05 [ms]
[OGL LOG][Proc: 0]p: regenerate_distributed_matrix: 17.08 [ms]
[OGL LOG][Proc: 0]p_matrix: call_update: 17.594 [ms]
[OGL LOG][Proc: 0]p_rhs: call_update: 0.734 [ms]
[OGL LOG][Proc: 0]p: init_precond: 0.024 [ms]
[OGL LOG][StoppingCriterion.H:237] Creating stopping criterion with minIter 200 frequency 8
[OGL LOG][Proc: 0]p: generate_solver: 0.001 [ms]
[OGL LOG][Proc: 0]p: solve: 1127.51 [ms]
[OGL LOG][Proc: 0]p: copy_x_back: 0.366 [ms]
[OGL LOG][lduLduBase.H:330] 
Statistics:
	Time per iteration: 3427 [mu s]
	Time per residual norm calculation: 1245.000000 [mu s]
	Time per iteration and DOF: 3.427000 [ns]
	Retrieve results bandwidth 2.732000 [GByte/s]
[OGL LOG][Proc: 0]p: solve_multi_gpu: 1146.65 [ms]
nonecudaGKOCG:  Solving for p, Initial residual = 0.0908162, Final residual = 8.57331e-05, No Iterations 329
[INFO] SolveP: 1153.45 [ms]
time step continuity errors : sum local = 1.24754e-08, global = -8.88811e-21, cumulative = -4.36173e-21
[INFO] ContinuityError: 5.13 [ms]
[INFO] CorrectBoundary: 0.299 [ms]
[INFO] PISOStep: 1194.83 [ms]
[INFO] MatrixAssemblyPI: 20.54 [ms]
[INFO] AdjustPhi: 2.336 [ms]
[INFO] ConstrainPressure: 0.002 [ms]
[INFO] MatrixAssemblyPII: 6.328 [ms]
[OGL LOG][Proc: 0]: global_index_init: 0.016 [ms]
[OGL LOG][Proc: 0]p_local_coeffs: call_update: 0 [ms]
[OGL LOG][Proc: 0]p_non_local_coeffs: call_update: 0 [ms]
[OGL LOG][Proc: 0]p: update_local_matrix_data: 5.276 [ms]
[OGL LOG][Proc: 0]p: update_non_local_matrix_data: 0.049 [ms]
[OGL LOG][Proc: 0]p: regenerate_distributed_matrix: 16.452 [ms]
[OGL LOG][Proc: 0]p_matrix: call_update: 16.761 [ms]
[OGL LOG][Proc: 0]p_rhs: call_update: 1.14 [ms]
[OGL LOG][Proc: 0]p: init_precond: 0.027 [ms]
[OGL LOG][StoppingCriterion.H:237] Creating stopping criterion with minIter 197 frequency 8
[OGL LOG][Proc: 0]p: generate_solver: 0.001 [ms]
[OGL LOG][Proc: 0]p: solve: 1088.72 [ms]
[OGL LOG][Proc: 0]p: copy_x_back: 0.363 [ms]
[OGL LOG][lduLduBase.H:330] 
Statistics:
	Time per iteration: 3391 [mu s]
	Time per residual norm calculation: 1391.000000 [mu s]
	Time per iteration and DOF: 3.391000 [ns]
	Retrieve results bandwidth 2.754000 [GByte/s]
[OGL LOG][Proc: 0]p: solve_multi_gpu: 1107.73 [ms]
nonecudaGKOCG:  Solving for p, Initial residual = 0.0750978, Final residual = 9.70281e-05, No Iterations 321
[INFO] SolveP: 1114.75 [ms]
time step continuity errors : sum local = 1.41136e-08, global = 2.95945e-21, cumulative = -1.40228e-21
[INFO] ContinuityError: 3.62 [ms]
[INFO] CorrectBoundary: 1.35 [ms]
[INFO] PISOStep: 1157.71 [ms]
[INFO] TimeStep: 2533.3 [ms]
ExecutionTime = 39.94 s  ClockTime = 41 s

Time = 0.0045

Courant Number mean: 0.0569118 max: 0.470657
[INFO] MatrixAssemblyU: 18.489 [ms]
DILUPBiCGStab:  Solving for Ux, Initial residual = 0.0105282, Final residual = 3.5723e-05, No Iterations 5
DILUPBiCGStab:  Solving for Uy, Initial residual = 0.0226785, Final residual = 5.87481e-05, No Iterations 5
DILUPBiCGStab:  Solving for Uz, Initial residual = 0.0428271, Final residual = 0.000125573, No Iterations 5
[INFO] MomentumPredictor: 160.353 [ms]
[INFO] MatrixAssemblyPI: 20.52 [ms]
[INFO] AdjustPhi: 0.892 [ms]
[INFO] ConstrainPressure: 0.002 [ms]
[INFO] MatrixAssemblyPII: 6.306 [ms]
[OGL LOG][Proc: 0]: global_index_init: 0.015 [ms]
[OGL LOG][Proc: 0]p_local_coeffs: call_update: 0 [ms]
[OGL LOG][Proc: 0]p_non_local_coeffs: call_update: 0 [ms]
[OGL LOG][Proc: 0]p: update_local_matrix_data: 5.225 [ms]
[OGL LOG][Proc: 0]p: update_non_local_matrix_data: 0.047 [ms]
[OGL LOG][Proc: 0]p: regenerate_distributed_matrix: 18.255 [ms]
[OGL LOG][Proc: 0]p_matrix: call_update: 18.96 [ms]
[OGL LOG][Proc: 0]p_rhs: call_update: 0.798 [ms]
[OGL LOG][Proc: 0]p: init_precond: 0.028 [ms]
[OGL LOG][StoppingCriterion.H:237] Creating stopping criterion with minIter 192 frequency 8
[OGL LOG][Proc: 0]p: generate_solver: 0.001 [ms]
[OGL LOG][Proc: 0]p: solve: 1113.78 [ms]
[OGL LOG][Proc: 0]p: copy_x_back: 0.362 [ms]
[OGL LOG][lduLduBase.H:330] 
Statistics:
	Time per iteration: 3385 [mu s]
	Time per residual norm calculation: 1245.000000 [mu s]
	Time per iteration and DOF: 3.385000 [ns]
	Retrieve results bandwidth 2.762000 [GByte/s]
[OGL LOG][Proc: 0]p: solve_multi_gpu: 1134.45 [ms]
nonecudaGKOCG:  Solving for p, Initial residual = 0.0667317, Final residual = 9.62832e-05, No Iterations 329
[INFO] SolveP: 1141.85 [ms]
time step continuity errors : sum local = 1.54592e-08, global = 1.51033e-21, cumulative = 1.08047e-22
[INFO] ContinuityError: 3.857 [ms]
[INFO] CorrectBoundary: 0.73 [ms]
[INFO] PISOStep: 1183.34 [ms]
[INFO] MatrixAssemblyPI: 21.288 [ms]
[INFO] AdjustPhi: 1.425 [ms]
[INFO] ConstrainPressure: 0.002 [ms]
[INFO] MatrixAssemblyPII: 6.225 [ms]
[OGL LOG][Proc: 0]: global_index_init: 0.007 [ms]
[OGL LOG][Proc: 0]p_local_coeffs: call_update: 0 [ms]
[OGL LOG][Proc: 0]p_non_local_coeffs: call_update: 0 [ms]
[OGL LOG][Proc: 0]p: update_local_matrix_data: 5.069 [ms]
[OGL LOG][Proc: 0]p: update_non_local_matrix_data: 0.05 [ms]
[OGL LOG][Proc: 0]p: regenerate_distributed_matrix: 17.783 [ms]
[OGL LOG][Proc: 0]p_matrix: call_update: 18.467 [ms]
[OGL LOG][Proc: 0]p_rhs: call_update: 0.656 [ms]
[OGL LOG][Proc: 0]p: init_precond: 0.026 [ms]
[OGL LOG][StoppingCriterion.H:237] Creating stopping criterion with minIter 197 frequency 8
[OGL LOG][Proc: 0]p: generate_solver: 0.001 [ms]
[OGL LOG][Proc: 0]p: solve: 1086.88 [ms]
[OGL LOG][Proc: 0]p: copy_x_back: 0.376 [ms]
[OGL LOG][lduLduBase.H:330] 
Statistics:
	Time per iteration: 3385 [mu s]
	Time per residual norm calculation: 1246.000000 [mu s]
	Time per iteration and DOF: 3.385000 [ns]
	Retrieve results bandwidth 2.659000 [GByte/s]
[OGL LOG][Proc: 0]p: solve_multi_gpu: 1106.97 [ms]
nonecudaGKOCG:  Solving for p, Initial residual = 0.0556367, Final residual = 8.95605e-05, No Iterations 321
[INFO] SolveP: 1113.85 [ms]
time step continuity errors : sum local = 1.33934e-08, global = -9.6077e-22, cumulative = -8.52723e-22
[INFO] ContinuityError: 2.422 [ms]
[INFO] CorrectBoundary: 0.093 [ms]
[INFO] PISOStep: 1153.65 [ms]
[INFO] TimeStep: 2520.55 [ms]
ExecutionTime = 42.45 s  ClockTime = 44 s

Time = 0.005

Courant Number mean: 0.0592067 max: 0.472052
[INFO] MatrixAssemblyU: 19.712 [ms]
DILUPBiCGStab:  Solving for Ux, Initial residual = 0.00921084, Final residual = 3.00597e-05, No Iterations 5
DILUPBiCGStab:  Solving for Uy, Initial residual = 0.0197464, Final residual = 4.40649e-05, No Iterations 5
DILUPBiCGStab:  Solving for Uz, Initial residual = 0.038074, Final residual = 0.000101757, No Iterations 5
[INFO] MomentumPredictor: 159.074 [ms]
[INFO] MatrixAssemblyPI: 20.482 [ms]
[INFO] AdjustPhi: 0.895 [ms]
[INFO] ConstrainPressure: 0.002 [ms]
[INFO] MatrixAssemblyPII: 6.296 [ms]
[OGL LOG][Proc: 0]: global_index_init: 0.022 [ms]
[OGL LOG][Proc: 0]p_local_coeffs: call_update: 0 [ms]
[OGL LOG][Proc: 0]p_non_local_coeffs: call_update: 0 [ms]
[OGL LOG][Proc: 0]p: update_local_matrix_data: 5.328 [ms]
[OGL LOG][Proc: 0]p: update_non_local_matrix_data: 0.05 [ms]
[OGL LOG][Proc: 0]p: regenerate_distributed_matrix: 17.461 [ms]
[OGL LOG][Proc: 0]p_matrix: call_update: 18.3 [ms]
[OGL LOG][Proc: 0]p_rhs: call_update: 0.483 [ms]
[OGL LOG][Proc: 0]p: init_precond: 0.025 [ms]
[OGL LOG][StoppingCriterion.H:237] Creating stopping criterion with minIter 192 frequency 8
[OGL LOG][Proc: 0]p: generate_solver: 0.001 [ms]
[OGL LOG][Proc: 0]p: solve: 1093.05 [ms]
[OGL LOG][Proc: 0]p: copy_x_back: 0.385 [ms]
[OGL LOG][lduLduBase.H:330] 
Statistics:
	Time per iteration: 3405 [mu s]
	Time per residual norm calculation: 1245.000000 [mu s]
	Time per iteration and DOF: 3.405000 [ns]
	Retrieve results bandwidth 2.597000 [GByte/s]
[OGL LOG][Proc: 0]p: solve_multi_gpu: 1112.64 [ms]
nonecudaGKOCG:  Solving for p, Initial residual = 0.0446295, Final residual = 9.67217e-05, No Iterations 321
[INFO] SolveP: 1119.55 [ms]
time step continuity errors : sum local = 1.43862e-08, global = 2.08605e-21, cumulative = 1.23332e-21
[INFO] ContinuityError: 5.197 [ms]
[INFO] CorrectBoundary: 0.092 [ms]
[INFO] PISOStep: 1160.91 [ms]
[INFO] MatrixAssemblyPI: 20.865 [ms]
[INFO] AdjustPhi: 3.435 [ms]
[INFO] ConstrainPressure: 0.002 [ms]
[INFO] MatrixAssemblyPII: 6.221 [ms]
[OGL LOG][Proc: 0]: global_index_init: 0.03 [ms]
[OGL LOG][Proc: 0]p_local_coeffs: call_update: 0 [ms]
[OGL LOG][Proc: 0]p_non_local_coeffs: call_update: 0 [ms]
[OGL LOG][Proc: 0]p: update_local_matrix_data: 5.072 [ms]
[OGL LOG][Proc: 0]p: update_non_local_matrix_data: 0.05 [ms]
[OGL LOG][Proc: 0]p: regenerate_distributed_matrix: 17.013 [ms]
[OGL LOG][Proc: 0]p_matrix: call_update: 17.748 [ms]
[OGL LOG][Proc: 0]p_rhs: call_update: 0.504 [ms]
[OGL LOG][Proc: 0]p: init_precond: 0.03 [ms]
[OGL LOG][StoppingCriterion.H:237] Creating stopping criterion with minIter 192 frequency 8
[OGL LOG][Proc: 0]p: generate_solver: 0.001 [ms]
[OGL LOG][Proc: 0]p: solve: 1091.57 [ms]
[OGL LOG][Proc: 0]p: copy_x_back: 0.365 [ms]
[OGL LOG][lduLduBase.H:330] 
Statistics:
	Time per iteration: 3400 [mu s]
	Time per residual norm calculation: 1244.000000 [mu s]
	Time per iteration and DOF: 3.400000 [ns]
	Retrieve results bandwidth 2.739000 [GByte/s]
[OGL LOG][Proc: 0]p: solve_multi_gpu: 1110.99 [ms]
nonecudaGKOCG:  Solving for p, Initial residual = 0.0376524, Final residual = 8.60049e-05, No Iterations 321
[INFO] SolveP: 1117.7 [ms]
time step continuity errors : sum local = 1.225e-08, global = 9.66312e-21, cumulative = 1.08964e-20
[INFO] ContinuityError: 2.358 [ms]
[INFO] CorrectBoundary: 0.094 [ms]
[INFO] PISOStep: 1159.84 [ms]
[INFO] TimeStep: 2502.29 [ms]
ExecutionTime = 44.95 s  ClockTime = 46 s

Time = 0.0055

Courant Number mean: 0.0612662 max: 0.473198
[INFO] MatrixAssemblyU: 20.956 [ms]
DILUPBiCGStab:  Solving for Ux, Initial residual = 0.00814019, Final residual = 2.51937e-05, No Iterations 5
DILUPBiCGStab:  Solving for Uy, Initial residual = 0.0174514, Final residual = 3.94684e-05, No Iterations 5
DILUPBiCGStab:  Solving for Uz, Initial residual = 0.0342818, Final residual = 8.60874e-05, No Iterations 5
[INFO] MomentumPredictor: 158.092 [ms]
[INFO] MatrixAssemblyPI: 20.459 [ms]
[INFO] AdjustPhi: 0.953 [ms]
[INFO] ConstrainPressure: 0.002 [ms]
[INFO] MatrixAssemblyPII: 6.311 [ms]
[OGL LOG][Proc: 0]: global_index_init: 0.008 [ms]
[OGL LOG][Proc: 0]p_local_coeffs: call_update: 0 [ms]
[OGL LOG][Proc: 0]p_non_local_coeffs: call_update: 0 [ms]
[OGL LOG][Proc: 0]p: update_local_matrix_data: 5.255 [ms]
[OGL LOG][Proc: 0]p: update_non_local_matrix_data: 0.049 [ms]
[OGL LOG][Proc: 0]p: regenerate_distributed_matrix: 16.572 [ms]
[OGL LOG][Proc: 0]p_matrix: call_update: 17.184 [ms]
[OGL LOG][Proc: 0]p_rhs: call_update: 0.784 [ms]
[OGL LOG][Proc: 0]p: init_precond: 0.029 [ms]
[OGL LOG][StoppingCriterion.H:237] Creating stopping criterion with minIter 192 frequency 8
[OGL LOG][Proc: 0]p: generate_solver: 0.001 [ms]
[OGL LOG][Proc: 0]p: solve: 2399.02 [ms]
[OGL LOG][Proc: 0]p: copy_x_back: 0.348 [ms]
[OGL LOG][lduLduBase.H:330] 
Statistics:
	Time per iteration: 3441 [mu s]
	Time per residual norm calculation: 1243.000000 [mu s]
	Time per iteration and DOF: 3.441000 [ns]
	Retrieve results bandwidth 2.873000 [GByte/s]
[OGL LOG][Proc: 0]p: solve_multi_gpu: 2417.93 [ms]
nonecudaGKOCG:  Solving for p, Initial residual = 0.0350496, Final residual = 7.61693e-05, No Iterations 697
[INFO] SolveP: 2424.91 [ms]
time step continuity errors : sum local = 1.0721e-08, global = -3.68418e-22, cumulative = 1.0528e-20
[INFO] ContinuityError: 2.354 [ms]
[INFO] CorrectBoundary: 0.11 [ms]
[INFO] PISOStep: 2463.2 [ms]
[INFO] MatrixAssemblyPI: 19.847 [ms]
[INFO] AdjustPhi: 0.895 [ms]
[INFO] ConstrainPressure: 0.002 [ms]
[INFO] MatrixAssemblyPII: 6.426 [ms]
[OGL LOG][Proc: 0]: global_index_init: 0.02 [ms]
[OGL LOG][Proc: 0]p_local_coeffs: call_update: 0 [ms]
[OGL LOG][Proc: 0]p_non_local_coeffs: call_update: 0 [ms]
[OGL LOG][Proc: 0]p: update_local_matrix_data: 5.305 [ms]
[OGL LOG][Proc: 0]p: update_non_local_matrix_data: 0.05 [ms]
[OGL LOG][Proc: 0]p: regenerate_distributed_matrix: 16.473 [ms]
[OGL LOG][Proc: 0]p_matrix: call_update: 16.989 [ms]
[OGL LOG][Proc: 0]p_rhs: call_update: 1.151 [ms]
[OGL LOG][Proc: 0]p: init_precond: 0.027 [ms]
[OGL LOG][StoppingCriterion.H:237] Creating stopping criterion with minIter 418 frequency 11
[OGL LOG][Proc: 0]p: generate_solver: 0.001 [ms]
[OGL LOG][Proc: 0]p: solve: 2312.89 [ms]
[OGL LOG][Proc: 0]p: copy_x_back: 0.347 [ms]
[OGL LOG][lduLduBase.H:330] 
Statistics:
	Time per iteration: 3332 [mu s]
	Time per residual norm calculation: 1097.000000 [mu s]
	Time per iteration and DOF: 3.332000 [ns]
	Retrieve results bandwidth 2.881000 [GByte/s]
[OGL LOG][Proc: 0]p: solve_multi_gpu: 2331.87 [ms]
nonecudaGKOCG:  Solving for p, Initial residual = 0.0297659, Final residual = 7.96219e-05, No Iterations 694
[INFO] SolveP: 2338.98 [ms]
time step continuity errors : sum local = 1.12112e-08, global = 7.30777e-21, cumulative = 1.78358e-20
[INFO] ContinuityError: 5.239 [ms]
[INFO] CorrectBoundary: 0.864 [ms]
[INFO] PISOStep: 2380.17 [ms]
[INFO] TimeStep: 5025.22 [ms]
ExecutionTime = 49.97 s  ClockTime = 51 s

Time = 0.006

Courant Number mean: 0.0631376 max: 0.474175
[INFO] MatrixAssemblyU: 18.545 [ms]
DILUPBiCGStab:  Solving for Ux, Initial residual = 0.00728646, Final residual = 2.20738e-05, No Iterations 5
DILUPBiCGStab:  Solving for Uy, Initial residual = 0.0155756, Final residual = 3.38456e-05, No Iterations 5
DILUPBiCGStab:  Solving for Uz, Initial residual = 0.0305081, Final residual = 6.94621e-05, No Iterations 5
[INFO] MomentumPredictor: 167.465 [ms]
[INFO] MatrixAssemblyPI: 24.032 [ms]
[INFO] AdjustPhi: 1.081 [ms]
[INFO] ConstrainPressure: 0.001 [ms]
[INFO] MatrixAssemblyPII: 6.78 [ms]
[OGL LOG][Proc: 0]: global_index_init: 0.012 [ms]
[OGL LOG][Proc: 0]p_local_coeffs: call_update: 0 [ms]
[OGL LOG][Proc: 0]p_non_local_coeffs: call_update: 0 [ms]
[OGL LOG][Proc: 0]p: update_local_matrix_data: 5.272 [ms]
[OGL LOG][Proc: 0]p: update_non_local_matrix_data: 0.072 [ms]
[OGL LOG][Proc: 0]p: regenerate_distributed_matrix: 17.116 [ms]
[OGL LOG][Proc: 0]p_matrix: call_update: 17.761 [ms]
[OGL LOG][Proc: 0]p_rhs: call_update: 0.448 [ms]
[OGL LOG][Proc: 0]p: init_precond: 0.024 [ms]
[OGL LOG][StoppingCriterion.H:237] Creating stopping criterion with minIter 416 frequency 9
[OGL LOG][Proc: 0]p: generate_solver: 0.001 [ms]
[OGL LOG][Proc: 0]p: solve: 1409.5 [ms]
[OGL LOG][Proc: 0]p: copy_x_back: 0.582 [ms]
[OGL LOG][lduLduBase.H:330] 
Statistics:
	Time per iteration: 3324 [mu s]
	Time per residual norm calculation: 1103.000000 [mu s]
	Time per iteration and DOF: 3.324000 [ns]
	Retrieve results bandwidth 1.718000 [GByte/s]
[OGL LOG][Proc: 0]p: solve_multi_gpu: 1428.81 [ms]
nonecudaGKOCG:  Solving for p, Initial residual = 0.0249497, Final residual = 1.20603e-05, No Iterations 424
[INFO] SolveP: 1436.39 [ms]
time step continuity errors : sum local = 1.80205e-09, global = -5.7833e-21, cumulative = 1.20525e-20
[INFO] ContinuityError: 4.372 [ms]
[INFO] CorrectBoundary: 0.645 [ms]
[INFO] PISOStep: 1482.66 [ms]
[INFO] MatrixAssemblyPI: 21.07 [ms]
[INFO] AdjustPhi: 1.528 [ms]
[INFO] ConstrainPressure: 0.002 [ms]
[INFO] MatrixAssemblyPII: 6.332 [ms]
[OGL LOG][Proc: 0]: global_index_init: 0.008 [ms]
[OGL LOG][Proc: 0]p_local_coeffs: call_update: 0 [ms]
[OGL LOG][Proc: 0]p_non_local_coeffs: call_update: 0 [ms]
[OGL LOG][Proc: 0]p: update_local_matrix_data: 5.129 [ms]
[OGL LOG][Proc: 0]p: update_non_local_matrix_data: 0.044 [ms]
[OGL LOG][Proc: 0]p: regenerate_distributed_matrix: 17.304 [ms]
[OGL LOG][Proc: 0]p_matrix: call_update: 17.804 [ms]
[OGL LOG][Proc: 0]p_rhs: call_update: 1.004 [ms]
[OGL LOG][Proc: 0]p: init_precond: 0.024 [ms]
[OGL LOG][StoppingCriterion.H:237] Creating stopping criterion with minIter 254 frequency 7
[OGL LOG][Proc: 0]p: generate_solver: 0.001 [ms]
[OGL LOG][Proc: 0]p: solve: 1036.7 [ms]
[OGL LOG][Proc: 0]p: copy_x_back: 0.358 [ms]
[OGL LOG][lduLduBase.H:330] 
Statistics:
	Time per iteration: 3355 [mu s]
	Time per residual norm calculation: 1400.000000 [mu s]
	Time per iteration and DOF: 3.355000 [ns]
	Retrieve results bandwidth 2.793000 [GByte/s]
[OGL LOG][Proc: 0]p: solve_multi_gpu: 1056.46 [ms]
nonecudaGKOCG:  Solving for p, Initial residual = 0.0217607, Final residual = 9.43732e-05, No Iterations 309
[INFO] SolveP: 1063.35 [ms]
time step continuity errors : sum local = 1.33233e-08, global = -5.37931e-21, cumulative = 6.67319e-21
[INFO] ContinuityError: 2.471 [ms]
[INFO] CorrectBoundary: 0.108 [ms]
[INFO] PISOStep: 1103.4 [ms]
[INFO] TimeStep: 2775.39 [ms]
ExecutionTime = 52.74 s  ClockTime = 54 s

Time = 0.0065

Courant Number mean: 0.0648411 max: 0.475011
[INFO] MatrixAssemblyU: 19.019 [ms]
DILUPBiCGStab:  Solving for Ux, Initial residual = 0.00655649, Final residual = 1.91747e-05, No Iterations 5
DILUPBiCGStab:  Solving for Uy, Initial residual = 0.0140539, Final residual = 3.04754e-05, No Iterations 5
DILUPBiCGStab:  Solving for Uz, Initial residual = 0.0276563, Final residual = 6.07455e-05, No Iterations 5
[INFO] MomentumPredictor: 157.268 [ms]
[INFO] MatrixAssemblyPI: 20.587 [ms]
[INFO] AdjustPhi: 0.906 [ms]
[INFO] ConstrainPressure: 0.002 [ms]
[INFO] MatrixAssemblyPII: 6.356 [ms]
[OGL LOG][Proc: 0]: global_index_init: 0.022 [ms]
[OGL LOG][Proc: 0]p_local_coeffs: call_update: 0 [ms]
[OGL LOG][Proc: 0]p_non_local_coeffs: call_update: 0 [ms]
[OGL LOG][Proc: 0]p: update_local_matrix_data: 5.239 [ms]
[OGL LOG][Proc: 0]p: update_non_local_matrix_data: 0.047 [ms]
[OGL LOG][Proc: 0]p: regenerate_distributed_matrix: 17.47 [ms]
[OGL LOG][Proc: 0]p_matrix: call_update: 18.083 [ms]
[OGL LOG][Proc: 0]p_rhs: call_update: 0.395 [ms]
[OGL LOG][Proc: 0]p: init_precond: 0.028 [ms]
[OGL LOG][StoppingCriterion.H:237] Creating stopping criterion with minIter 185 frequency 7
[OGL LOG][Proc: 0]p: generate_solver: 0.001 [ms]
[OGL LOG][Proc: 0]p: solve: 1051.56 [ms]
[OGL LOG][Proc: 0]p: copy_x_back: 0.347 [ms]
[OGL LOG][lduLduBase.H:330] 
Statistics:
	Time per iteration: 3403 [mu s]
	Time per residual norm calculation: 1246.000000 [mu s]
	Time per iteration and DOF: 3.403000 [ns]
	Retrieve results bandwidth 2.881000 [GByte/s]
[OGL LOG][Proc: 0]p: solve_multi_gpu: 1070.93 [ms]
nonecudaGKOCG:  Solving for p, Initial residual = 0.0205331, Final residual = 9.00542e-05, No Iterations 309
[INFO] SolveP: 1077.98 [ms]
time step continuity errors : sum local = 1.33249e-08, global = -1.76267e-21, cumulative = 4.91052e-21
[INFO] ContinuityError: 2.381 [ms]
[INFO] CorrectBoundary: 0.095 [ms]
[INFO] PISOStep: 1116.4 [ms]
[INFO] MatrixAssemblyPI: 19.823 [ms]
[INFO] AdjustPhi: 0.923 [ms]
[INFO] ConstrainPressure: 0.002 [ms]
[INFO] MatrixAssemblyPII: 6.265 [ms]
[OGL LOG][Proc: 0]: global_index_init: 0.008 [ms]
[OGL LOG][Proc: 0]p_local_coeffs: call_update: 0 [ms]
[OGL LOG][Proc: 0]p_non_local_coeffs: call_update: 0 [ms]
[OGL LOG][Proc: 0]p: update_local_matrix_data: 5.178 [ms]
[OGL LOG][Proc: 0]p: update_non_local_matrix_data: 0.048 [ms]
[OGL LOG][Proc: 0]p: regenerate_distributed_matrix: 17 [ms]
[OGL LOG][Proc: 0]p_matrix: call_update: 17.37 [ms]
[OGL LOG][Proc: 0]p_rhs: call_update: 1.115 [ms]
[OGL LOG][Proc: 0]p: init_precond: 0.026 [ms]
[OGL LOG][StoppingCriterion.H:237] Creating stopping criterion with minIter 185 frequency 7
[OGL LOG][Proc: 0]p: generate_solver: 0.001 [ms]
[OGL LOG][Proc: 0]p: solve: 1026.26 [ms]
[OGL LOG][Proc: 0]p: copy_x_back: 0.364 [ms]
[OGL LOG][lduLduBase.H:330] 
Statistics:
	Time per iteration: 3398 [mu s]
	Time per residual norm calculation: 1244.000000 [mu s]
	Time per iteration and DOF: 3.398000 [ns]
	Retrieve results bandwidth 2.747000 [GByte/s]
[OGL LOG][Proc: 0]p: solve_multi_gpu: 1045.64 [ms]
nonecudaGKOCG:  Solving for p, Initial residual = 0.0180731, Final residual = 9.84176e-05, No Iterations 302
[INFO] SolveP: 1052.63 [ms]
time step continuity errors : sum local = 1.39593e-08, global = -1.33274e-21, cumulative = 3.57777e-21
[INFO] ContinuityError: 4.635 [ms]
[INFO] CorrectBoundary: 0.096 [ms]
[INFO] PISOStep: 1093.02 [ms]
[INFO] TimeStep: 2388.41 [ms]
ExecutionTime = 55.12 s  ClockTime = 56 s

Time = 0.007

Courant Number mean: 0.0664084 max: 0.47574
[INFO] MatrixAssemblyU: 18.665 [ms]
DILUPBiCGStab:  Solving for Ux, Initial residual = 0.00595611, Final residual = 1.71558e-05, No Iterations 5
DILUPBiCGStab:  Solving for Uy, Initial residual = 0.0127637, Final residual = 2.74261e-05, No Iterations 5
DILUPBiCGStab:  Solving for Uz, Initial residual = 0.025238, Final residual = 5.559e-05, No Iterations 5
[INFO] MomentumPredictor: 158.731 [ms]
[INFO] MatrixAssemblyPI: 20.537 [ms]
[INFO] AdjustPhi: 0.906 [ms]
[INFO] ConstrainPressure: 0.002 [ms]
[INFO] MatrixAssemblyPII: 6.331 [ms]
[OGL LOG][Proc: 0]: global_index_init: 0.007 [ms]
[OGL LOG][Proc: 0]p_local_coeffs: call_update: 0 [ms]
[OGL LOG][Proc: 0]p_non_local_coeffs: call_update: 0 [ms]
[OGL LOG][Proc: 0]p: update_local_matrix_data: 5.292 [ms]
[OGL LOG][Proc: 0]p: update_non_local_matrix_data: 0.051 [ms]
[OGL LOG][Proc: 0]p: regenerate_distributed_matrix: 16.565 [ms]
[OGL LOG][Proc: 0]p_matrix: call_update: 16.986 [ms]
[OGL LOG][Proc: 0]p_rhs: call_update: 1.048 [ms]
[OGL LOG][Proc: 0]p: init_precond: 0.027 [ms]
[OGL LOG][StoppingCriterion.H:237] Creating stopping criterion with minIter 181 frequency 7
[OGL LOG][Proc: 0]p: generate_solver: 0.001 [ms]
[OGL LOG][Proc: 0]p: solve: 1031.53 [ms]
[OGL LOG][Proc: 0]p: copy_x_back: 0.378 [ms]
[OGL LOG][lduLduBase.H:330] 
Statistics:
	Time per iteration: 3415 [mu s]
	Time per residual norm calculation: 1245.000000 [mu s]
	Time per iteration and DOF: 3.415000 [ns]
	Retrieve results bandwidth 2.645000 [GByte/s]
[OGL LOG][Proc: 0]p: solve_multi_gpu: 1050.49 [ms]
nonecudaGKOCG:  Solving for p, Initial residual = 0.0160546, Final residual = 9.50343e-05, No Iterations 302
[INFO] SolveP: 1057.35 [ms]
time step continuity errors : sum local = 1.36938e-08, global = -4.91661e-21, cumulative = -1.33883e-21
[INFO] ContinuityError: 5.275 [ms]
[INFO] CorrectBoundary: 0.089 [ms]
[INFO] PISOStep: 1098.32 [ms]
[INFO] MatrixAssemblyPI: 21.681 [ms]
[INFO] AdjustPhi: 2.116 [ms]
[INFO] ConstrainPressure: 0.002 [ms]
[INFO] MatrixAssemblyPII: 6.274 [ms]
[OGL LOG][Proc: 0]: global_index_init: 0.011 [ms]
[OGL LOG][Proc: 0]p_local_coeffs: call_update: 0 [ms]
[OGL LOG][Proc: 0]p_non_local_coeffs: call_update: 0 [ms]
[OGL LOG][Proc: 0]p: update_local_matrix_data: 5.182 [ms]
[OGL LOG][Proc: 0]p: update_non_local_matrix_data: 0.049 [ms]
[OGL LOG][Proc: 0]p: regenerate_distributed_matrix: 16.304 [ms]
[OGL LOG][Proc: 0]p_matrix: call_update: 16.746 [ms]
[OGL LOG][Proc: 0]p_rhs: call_update: 1.418 [ms]
[OGL LOG][Proc: 0]p: init_precond: 0.025 [ms]
[OGL LOG][StoppingCriterion.H:237] Creating stopping criterion with minIter 181 frequency 7
[OGL LOG][Proc: 0]p: generate_solver: 0.001 [ms]
[OGL LOG][Proc: 0]p: solve: 1021.5 [ms]
[OGL LOG][Proc: 0]p: copy_x_back: 0.362 [ms]
[OGL LOG][lduLduBase.H:330] 
Statistics:
	Time per iteration: 3382 [mu s]
	Time per residual norm calculation: 1245.000000 [mu s]
	Time per iteration and DOF: 3.382000 [ns]
	Retrieve results bandwidth 2.762000 [GByte/s]
[OGL LOG][Proc: 0]p: solve_multi_gpu: 1040.56 [ms]
nonecudaGKOCG:  Solving for p, Initial residual = 0.0145277, Final residual = 8.67783e-05, No Iterations 302
[INFO] SolveP: 1047.56 [ms]
time step continuity errors : sum local = 1.22743e-08, global = -7.03038e-21, cumulative = -8.36921e-21
[INFO] ContinuityError: 2.472 [ms]
[INFO] CorrectBoundary: 0.088 [ms]
[INFO] PISOStep: 1089.21 [ms]
[INFO] TimeStep: 2368.53 [ms]
ExecutionTime = 57.5 s  ClockTime = 59 s

Time = 0.0075

Courant Number mean: 0.0678549 max: 0.476379
[INFO] MatrixAssemblyU: 18.847 [ms]
DILUPBiCGStab:  Solving for Ux, Initial residual = 0.00543618, Final residual = 1.52686e-05, No Iterations 5
DILUPBiCGStab:  Solving for Uy, Initial residual = 0.0116641, Final residual = 2.4972e-05, No Iterations 5
DILUPBiCGStab:  Solving for Uz, Initial residual = 0.0233913, Final residual = 5.08426e-05, No Iterations 5
[INFO] MomentumPredictor: 157.414 [ms]
[INFO] MatrixAssemblyPI: 20.576 [ms]
[INFO] AdjustPhi: 0.918 [ms]
[INFO] ConstrainPressure: 0.002 [ms]
[INFO] MatrixAssemblyPII: 6.405 [ms]
[OGL LOG][Proc: 0]: global_index_init: 0.007 [ms]
[OGL LOG][Proc: 0]p_local_coeffs: call_update: 0 [ms]
[OGL LOG][Proc: 0]p_non_local_coeffs: call_update: 0 [ms]
[OGL LOG][Proc: 0]p: update_local_matrix_data: 5.387 [ms]
[OGL LOG][Proc: 0]p: update_non_local_matrix_data: 0.048 [ms]
[OGL LOG][Proc: 0]p: regenerate_distributed_matrix: 16.546 [ms]
[OGL LOG][Proc: 0]p_matrix: call_update: 16.965 [ms]
[OGL LOG][Proc: 0]p_rhs: call_update: 0.734 [ms]
[OGL LOG][Proc: 0]p: init_precond: 0.027 [ms]
[OGL LOG][StoppingCriterion.H:237] Creating stopping criterion with minIter 181 frequency 7
[OGL LOG][Proc: 0]p: generate_solver: 0.001 [ms]
[OGL LOG][Proc: 0]p: solve: 1059.85 [ms]
[OGL LOG][Proc: 0]p: copy_x_back: 0.344 [ms]
[OGL LOG][lduLduBase.H:330] 
Statistics:
	Time per iteration: 3429 [mu s]
	Time per residual norm calculation: 1244.000000 [mu s]
	Time per iteration and DOF: 3.429000 [ns]
	Retrieve results bandwidth 2.906000 [GByte/s]
[OGL LOG][Proc: 0]p: solve_multi_gpu: 1078.37 [ms]
nonecudaGKOCG:  Solving for p, Initial residual = 0.0140048, Final residual = 9.1669e-05, No Iterations 309
[INFO] SolveP: 1085.56 [ms]
time step continuity errors : sum local = 1.39156e-08, global = 8.67123e-21, cumulative = 3.02018e-22
[INFO] ContinuityError: 2.381 [ms]
[INFO] CorrectBoundary: 0.092 [ms]
[INFO] PISOStep: 1123.93 [ms]
[INFO] MatrixAssemblyPI: 19.829 [ms]
[INFO] AdjustPhi: 0.93 [ms]
[INFO] ConstrainPressure: 0.002 [ms]
[INFO] MatrixAssemblyPII: 6.409 [ms]
[OGL LOG][Proc: 0]: global_index_init: 0.009 [ms]
[OGL LOG][Proc: 0]p_local_coeffs: call_update: 0 [ms]
[OGL LOG][Proc: 0]p_non_local_coeffs: call_update: 0 [ms]
[OGL LOG][Proc: 0]p: update_local_matrix_data: 5.066 [ms]
[OGL LOG][Proc: 0]p: update_non_local_matrix_data: 0.049 [ms]
[OGL LOG][Proc: 0]p: regenerate_distributed_matrix: 16.49 [ms]
[OGL LOG][Proc: 0]p_matrix: call_update: 17.002 [ms]
[OGL LOG][Proc: 0]p_rhs: call_update: 1.111 [ms]
[OGL LOG][Proc: 0]p: init_precond: 0.026 [ms]
[OGL LOG][StoppingCriterion.H:237] Creating stopping criterion with minIter 185 frequency 7
[OGL LOG][Proc: 0]p: generate_solver: 0.001 [ms]
[OGL LOG][Proc: 0]p: solve: 1036.66 [ms]
[OGL LOG][Proc: 0]p: copy_x_back: 0.372 [ms]
[OGL LOG][lduLduBase.H:330] 
Statistics:
	Time per iteration: 3432 [mu s]
	Time per residual norm calculation: 1245.000000 [mu s]
	Time per iteration and DOF: 3.432000 [ns]
	Retrieve results bandwidth 2.688000 [GByte/s]
[OGL LOG][Proc: 0]p: solve_multi_gpu: 1055.94 [ms]
nonecudaGKOCG:  Solving for p, Initial residual = 0.0127747, Final residual = 9.08364e-05, No Iterations 302
[INFO] SolveP: 1062.83 [ms]
time step continuity errors : sum local = 1.30297e-08, global = -1.86002e-21, cumulative = -1.558e-21
[INFO] ContinuityError: 2.339 [ms]
[INFO] CorrectBoundary: 0.09 [ms]
[INFO] PISOStep: 1100.5 [ms]
[INFO] TimeStep: 2403.39 [ms]
ExecutionTime = 59.89 s  ClockTime = 61 s

Time = 0.008

Courant Number mean: 0.0691918 max: 0.476948
[INFO] MatrixAssemblyU: 19.35 [ms]
DILUPBiCGStab:  Solving for Ux, Initial residual = 0.00498885, Final residual = 1.38353e-05, No Iterations 5
DILUPBiCGStab:  Solving for Uy, Initial residual = 0.0107234, Final residual = 2.28808e-05, No Iterations 5
DILUPBiCGStab:  Solving for Uz, Initial residual = 0.0215965, Final residual = 4.94793e-05, No Iterations 5
[INFO] MomentumPredictor: 163.141 [ms]
[INFO] MatrixAssemblyPI: 20.591 [ms]
[INFO] AdjustPhi: 3.836 [ms]
[INFO] ConstrainPressure: 0.003 [ms]
[INFO] MatrixAssemblyPII: 6.378 [ms]
[OGL LOG][Proc: 0]: global_index_init: 0.027 [ms]
[OGL LOG][Proc: 0]p_local_coeffs: call_update: 0 [ms]
[OGL LOG][Proc: 0]p_non_local_coeffs: call_update: 0 [ms]
[OGL LOG][Proc: 0]p: update_local_matrix_data: 5.297 [ms]
[OGL LOG][Proc: 0]p: update_non_local_matrix_data: 0.051 [ms]
[OGL LOG][Proc: 0]p: regenerate_distributed_matrix: 17.19 [ms]
[OGL LOG][Proc: 0]p_matrix: call_update: 17.675 [ms]
[OGL LOG][Proc: 0]p_rhs: call_update: 0.388 [ms]
[OGL LOG][Proc: 0]p: init_precond: 0.03 [ms]
[OGL LOG][StoppingCriterion.H:237] Creating stopping criterion with minIter 181 frequency 7
[OGL LOG][Proc: 0]p: generate_solver: 0.001 [ms]
[OGL LOG][Proc: 0]p: solve: 1057.64 [ms]
[OGL LOG][Proc: 0]p: copy_x_back: 0.598 [ms]
[OGL LOG][lduLduBase.H:330] 
Statistics:
	Time per iteration: 3422 [mu s]
	Time per residual norm calculation: 1251.000000 [mu s]
	Time per iteration and DOF: 3.422000 [ns]
	Retrieve results bandwidth 1.672000 [GByte/s]
[OGL LOG][Proc: 0]p: solve_multi_gpu: 1077.43 [ms]
nonecudaGKOCG:  Solving for p, Initial residual = 0.0119241, Final residual = 9.35918e-05, No Iterations 309
[INFO] SolveP: 1084.07 [ms]
time step continuity errors : sum local = 1.40105e-08, global = -6.42926e-22, cumulative = -2.20093e-21
[INFO] ContinuityError: 2.381 [ms]
[INFO] CorrectBoundary: 0.129 [ms]
[INFO] PISOStep: 1129.43 [ms]
[INFO] MatrixAssemblyPI: 21.369 [ms]
[INFO] AdjustPhi: 1.044 [ms]
[INFO] ConstrainPressure: 0.002 [ms]
[INFO] MatrixAssemblyPII: 7.401 [ms]
[OGL LOG][Proc: 0]: global_index_init: 0.011 [ms]
[OGL LOG][Proc: 0]p_local_coeffs: call_update: 0 [ms]
[OGL LOG][Proc: 0]p_non_local_coeffs: call_update: 0 [ms]
[OGL LOG][Proc: 0]p: update_local_matrix_data: 5.32 [ms]
[OGL LOG][Proc: 0]p: update_non_local_matrix_data: 0.069 [ms]
[OGL LOG][Proc: 0]p: regenerate_distributed_matrix: 17.026 [ms]
[OGL LOG][Proc: 0]p_matrix: call_update: 17.729 [ms]
[OGL LOG][Proc: 0]p_rhs: call_update: 0.667 [ms]
[OGL LOG][Proc: 0]p: init_precond: 0.027 [ms]
[OGL LOG][StoppingCriterion.H:237] Creating stopping criterion with minIter 185 frequency 7
[OGL LOG][Proc: 0]p: generate_solver: 0.001 [ms]
[OGL LOG][Proc: 0]p: solve: 1028.15 [ms]
[OGL LOG][Proc: 0]p: copy_x_back: 0.354 [ms]
[OGL LOG][lduLduBase.H:330] 
Statistics:
	Time per iteration: 3404 [mu s]
	Time per residual norm calculation: 1245.000000 [mu s]
	Time per iteration and DOF: 3.404000 [ns]
	Retrieve results bandwidth 2.824000 [GByte/s]
[OGL LOG][Proc: 0]p: solve_multi_gpu: 1047.34 [ms]
nonecudaGKOCG:  Solving for p, Initial residual = 0.0110805, Final residual = 9.41894e-05, No Iterations 302
[INFO] SolveP: 1054.44 [ms]
time step continuity errors : sum local = 1.34258e-08, global = -4.78578e-21, cumulative = -6.98671e-21
[INFO] ContinuityError: 2.401 [ms]
[INFO] CorrectBoundary: 0.102 [ms]
[INFO] PISOStep: 1094.99 [ms]
[INFO] TimeStep: 2409.68 [ms]
ExecutionTime = 62.3 s  ClockTime = 63 s

Time = 0.0085

Courant Number mean: 0.0704368 max: 0.477455
[INFO] MatrixAssemblyU: 18.899 [ms]
DILUPBiCGStab:  Solving for Ux, Initial residual = 0.00460119, Final residual = 1.25078e-05, No Iterations 5
DILUPBiCGStab:  Solving for Uy, Initial residual = 0.00989102, Final residual = 2.11031e-05, No Iterations 5
DILUPBiCGStab:  Solving for Uz, Initial residual = 0.0202821, Final residual = 4.74019e-05, No Iterations 5
[INFO] MomentumPredictor: 162.666 [ms]
[INFO] MatrixAssemblyPI: 20.388 [ms]
[INFO] AdjustPhi: 3.564 [ms]
[INFO] ConstrainPressure: 0.002 [ms]
[INFO] MatrixAssemblyPII: 6.331 [ms]
[OGL LOG][Proc: 0]: global_index_init: 0.007 [ms]
[OGL LOG][Proc: 0]p_local_coeffs: call_update: 0 [ms]
[OGL LOG][Proc: 0]p_non_local_coeffs: call_update: 0 [ms]
[OGL LOG][Proc: 0]p: update_local_matrix_data: 5.243 [ms]
[OGL LOG][Proc: 0]p: update_non_local_matrix_data: 0.047 [ms]
[OGL LOG][Proc: 0]p: regenerate_distributed_matrix: 15.858 [ms]
[OGL LOG][Proc: 0]p_matrix: call_update: 16.414 [ms]
[OGL LOG][Proc: 0]p_rhs: call_update: 0.498 [ms]
[OGL LOG][Proc: 0]p: init_precond: 0.028 [ms]
[OGL LOG][StoppingCriterion.H:237] Creating stopping criterion with minIter 181 frequency 7
[OGL LOG][Proc: 0]p: generate_solver: 0.001 [ms]
[OGL LOG][Proc: 0]p: solve: 1072.41 [ms]
[OGL LOG][Proc: 0]p: copy_x_back: 0.378 [ms]
[OGL LOG][lduLduBase.H:330] 
Statistics:
	Time per iteration: 3393 [mu s]
	Time per residual norm calculation: 1392.000000 [mu s]
	Time per iteration and DOF: 3.393000 [ns]
	Retrieve results bandwidth 2.645000 [GByte/s]
[OGL LOG][Proc: 0]p: solve_multi_gpu: 1090.26 [ms]
nonecudaGKOCG:  Solving for p, Initial residual = 0.0107813, Final residual = 9.16573e-05, No Iterations 316
[INFO] SolveP: 1097.22 [ms]
time step continuity errors : sum local = 1.46153e-08, global = 3.76471e-22, cumulative = -6.61024e-21
[INFO] ContinuityError: 2.444 [ms]
[INFO] CorrectBoundary: 0.104 [ms]
[INFO] PISOStep: 1138.21 [ms]
[INFO] MatrixAssemblyPI: 19.91 [ms]
[INFO] AdjustPhi: 0.919 [ms]
[INFO] ConstrainPressure: 0.002 [ms]
[INFO] MatrixAssemblyPII: 6.342 [ms]
[OGL LOG][Proc: 0]: global_index_init: 0.009 [ms]
[OGL LOG][Proc: 0]p_local_coeffs: call_update: 0 [ms]
[OGL LOG][Proc: 0]p_non_local_coeffs: call_update: 0 [ms]
[OGL LOG][Proc: 0]p: update_local_matrix_data: 5.117 [ms]
[OGL LOG][Proc: 0]p: update_non_local_matrix_data: 0.059 [ms]
[OGL LOG][Proc: 0]p: regenerate_distributed_matrix: 17.092 [ms]
[OGL LOG][Proc: 0]p_matrix: call_update: 17.638 [ms]
[OGL LOG][Proc: 0]p_rhs: call_update: 0.616 [ms]
[OGL LOG][Proc: 0]p: init_precond: 0.026 [ms]
[OGL LOG][StoppingCriterion.H:237] Creating stopping criterion with minIter 189 frequency 7
[OGL LOG][Proc: 0]p: generate_solver: 0.001 [ms]
[OGL LOG][Proc: 0]p: solve: 1034.07 [ms]
[OGL LOG][Proc: 0]p: copy_x_back: 0.364 [ms]
[OGL LOG][lduLduBase.H:330] 
Statistics:
	Time per iteration: 3424 [mu s]
	Time per residual norm calculation: 1241.000000 [mu s]
	Time per iteration and DOF: 3.424000 [ns]
	Retrieve results bandwidth 2.747000 [GByte/s]
[OGL LOG][Proc: 0]p: solve_multi_gpu: 1053.2 [ms]
nonecudaGKOCG:  Solving for p, Initial residual = 0.0100709, Final residual = 9.48275e-05, No Iterations 302
[INFO] SolveP: 1060.57 [ms]
time step continuity errors : sum local = 1.38233e-08, global = 1.34448e-21, cumulative = -5.26576e-21
[INFO] ContinuityError: 4.146 [ms]
[INFO] CorrectBoundary: 0.687 [ms]
[INFO] PISOStep: 1101.19 [ms]
[INFO] TimeStep: 2424.01 [ms]
ExecutionTime = 64.72 s  ClockTime = 66 s

Time = 0.009

Courant Number mean: 0.0715997 max: 0.477912
[INFO] MatrixAssemblyU: 19.548 [ms]
DILUPBiCGStab:  Solving for Ux, Initial residual = 0.00425368, Final residual = 1.14486e-05, No Iterations 5
DILUPBiCGStab:  Solving for Uy, Initial residual = 0.00918093, Final residual = 1.95988e-05, No Iterations 5
DILUPBiCGStab:  Solving for Uz, Initial residual = 0.0188728, Final residual = 4.9236e-05, No Iterations 5
[INFO] MomentumPredictor: 160.072 [ms]
[INFO] MatrixAssemblyPI: 20.655 [ms]
[INFO] AdjustPhi: 1.031 [ms]
[INFO] ConstrainPressure: 0.001 [ms]
[INFO] MatrixAssemblyPII: 6.363 [ms]
[OGL LOG][Proc: 0]: global_index_init: 0.027 [ms]
[OGL LOG][Proc: 0]p_local_coeffs: call_update: 0 [ms]
[OGL LOG][Proc: 0]p_non_local_coeffs: call_update: 0 [ms]
[OGL LOG][Proc: 0]p: update_local_matrix_data: 5.069 [ms]
[OGL LOG][Proc: 0]p: update_non_local_matrix_data: 0.048 [ms]
[OGL LOG][Proc: 0]p: regenerate_distributed_matrix: 15.957 [ms]
[OGL LOG][Proc: 0]p_matrix: call_update: 16.544 [ms]
[OGL LOG][Proc: 0]p_rhs: call_update: 0.517 [ms]
[OGL LOG][Proc: 0]p: init_precond: 0.025 [ms]
[OGL LOG][StoppingCriterion.H:237] Creating stopping criterion with minIter 181 frequency 7
[OGL LOG][Proc: 0]p: generate_solver: 0.001 [ms]
[OGL LOG][Proc: 0]p: solve: 1079.26 [ms]
[OGL LOG][Proc: 0]p: copy_x_back: 0.36 [ms]
[OGL LOG][lduLduBase.H:330] 
Statistics:
	Time per iteration: 3415 [mu s]
	Time per residual norm calculation: 1246.000000 [mu s]
	Time per iteration and DOF: 3.415000 [ns]
	Retrieve results bandwidth 2.777000 [GByte/s]
[OGL LOG][Proc: 0]p: solve_multi_gpu: 1097.61 [ms]
nonecudaGKOCG:  Solving for p, Initial residual = 0.00969741, Final residual = 9.35055e-05, No Iterations 316
[INFO] SolveP: 1104.78 [ms]
time step continuity errors : sum local = 1.49127e-08, global = 7.22625e-21, cumulative = 1.96049e-21
[INFO] ContinuityError: 4.396 [ms]
[INFO] CorrectBoundary: 0.539 [ms]
[INFO] PISOStep: 1147.05 [ms]
[INFO] MatrixAssemblyPI: 21.286 [ms]
[INFO] AdjustPhi: 1.64 [ms]
[INFO] ConstrainPressure: 0.001 [ms]
[INFO] MatrixAssemblyPII: 6.328 [ms]
[OGL LOG][Proc: 0]: global_index_init: 0.022 [ms]
[OGL LOG][Proc: 0]p_local_coeffs: call_update: 0 [ms]
[OGL LOG][Proc: 0]p_non_local_coeffs: call_update: 0 [ms]
[OGL LOG][Proc: 0]p: update_local_matrix_data: 5.073 [ms]
[OGL LOG][Proc: 0]p: update_non_local_matrix_data: 0.049 [ms]
[OGL LOG][Proc: 0]p: regenerate_distributed_matrix: 16.977 [ms]
[OGL LOG][Proc: 0]p_matrix: call_update: 17.625 [ms]
[OGL LOG][Proc: 0]p_rhs: call_update: 0.655 [ms]
[OGL LOG][Proc: 0]p: init_precond: 0.025 [ms]
[OGL LOG][StoppingCriterion.H:237] Creating stopping criterion with minIter 189 frequency 7
[OGL LOG][Proc: 0]p: generate_solver: 0.001 [ms]
[OGL LOG][Proc: 0]p: solve: 1022.19 [ms]
[OGL LOG][Proc: 0]p: copy_x_back: 0.361 [ms]
[OGL LOG][lduLduBase.H:330] 
Statistics:
	Time per iteration: 3384 [mu s]
	Time per residual norm calculation: 1244.000000 [mu s]
	Time per iteration and DOF: 3.384000 [ns]
	Retrieve results bandwidth 2.770000 [GByte/s]
[OGL LOG][Proc: 0]p: solve_multi_gpu: 1041.68 [ms]
nonecudaGKOCG:  Solving for p, Initial residual = 0.00912249, Final residual = 9.65916e-05, No Iterations 302
[INFO] SolveP: 1048.52 [ms]
time step continuity errors : sum local = 1.40054e-08, global = -7.08082e-21, cumulative = -5.12033e-21
[INFO] ContinuityError: 2.565 [ms]
[INFO] CorrectBoundary: 0.09 [ms]
[INFO] PISOStep: 1088.5 [ms]
[INFO] TimeStep: 2418.19 [ms]
ExecutionTime = 67.13 s  ClockTime = 68 s

Time = 0.0095

Courant Number mean: 0.0726862 max: 0.478325
[INFO] MatrixAssemblyU: 19.054 [ms]
DILUPBiCGStab:  Solving for Ux, Initial residual = 0.00395787, Final residual = 1.0473e-05, No Iterations 5
DILUPBiCGStab:  Solving for Uy, Initial residual = 0.00852233, Final residual = 1.83447e-05, No Iterations 5
DILUPBiCGStab:  Solving for Uz, Initial residual = 0.0179633, Final residual = 5.04095e-05, No Iterations 5
[INFO] MomentumPredictor: 158.576 [ms]
[INFO] MatrixAssemblyPI: 20.494 [ms]
[INFO] AdjustPhi: 0.907 [ms]
[INFO] ConstrainPressure: 0.002 [ms]
[INFO] MatrixAssemblyPII: 6.38 [ms]
[OGL LOG][Proc: 0]: global_index_init: 0.02 [ms]
[OGL LOG][Proc: 0]p_local_coeffs: call_update: 0 [ms]
[OGL LOG][Proc: 0]p_non_local_coeffs: call_update: 0 [ms]
[OGL LOG][Proc: 0]p: update_local_matrix_data: 5.297 [ms]
[OGL LOG][Proc: 0]p: update_non_local_matrix_data: 0.046 [ms]
[OGL LOG][Proc: 0]p: regenerate_distributed_matrix: 16.697 [ms]
[OGL LOG][Proc: 0]p_matrix: call_update: 17.101 [ms]
[OGL LOG][Proc: 0]p_rhs: call_update: 0.555 [ms]
[OGL LOG][Proc: 0]p: init_precond: 0.026 [ms]
[OGL LOG][StoppingCriterion.H:237] Creating stopping criterion with minIter 181 frequency 7
[OGL LOG][Proc: 0]p: generate_solver: 0.001 [ms]
[OGL LOG][Proc: 0]p: solve: 2376.2 [ms]
[OGL LOG][Proc: 0]p: copy_x_back: 0.363 [ms]
[OGL LOG][lduLduBase.H:330] 
Statistics:
	Time per iteration: 3458 [mu s]
	Time per residual norm calculation: 1245.000000 [mu s]
	Time per iteration and DOF: 3.458000 [ns]
	Retrieve results bandwidth 2.754000 [GByte/s]
[OGL LOG][Proc: 0]p: solve_multi_gpu: 2394.95 [ms]
nonecudaGKOCG:  Solving for p, Initial residual = 0.00903823, Final residual = 9.23223e-05, No Iterations 687
[INFO] SolveP: 2401.73 [ms]
time step continuity errors : sum local = 1.29098e-08, global = -8.22722e-22, cumulative = -5.94305e-21
[INFO] ContinuityError: 2.39 [ms]
[INFO] CorrectBoundary: 0.091 [ms]
[INFO] PISOStep: 2439.99 [ms]
[INFO] MatrixAssemblyPI: 19.804 [ms]
[INFO] AdjustPhi: 0.917 [ms]
[INFO] ConstrainPressure: 0.002 [ms]
[INFO] MatrixAssemblyPII: 6.331 [ms]
[OGL LOG][Proc: 0]: global_index_init: 0.007 [ms]
[OGL LOG][Proc: 0]p_local_coeffs: call_update: 0 [ms]
[OGL LOG][Proc: 0]p_non_local_coeffs: call_update: 0 [ms]
[OGL LOG][Proc: 0]p: update_local_matrix_data: 5.199 [ms]
[OGL LOG][Proc: 0]p: update_non_local_matrix_data: 0.045 [ms]
[OGL LOG][Proc: 0]p: regenerate_distributed_matrix: 16.924 [ms]
[OGL LOG][Proc: 0]p_matrix: call_update: 17.204 [ms]
[OGL LOG][Proc: 0]p_rhs: call_update: 1.272 [ms]
[OGL LOG][Proc: 0]p: init_precond: 0.029 [ms]
[OGL LOG][StoppingCriterion.H:237] Creating stopping criterion with minIter 412 frequency 11
[OGL LOG][Proc: 0]p: generate_solver: 0.001 [ms]
[OGL LOG][Proc: 0]p: solve: 2282.25 [ms]
[OGL LOG][Proc: 0]p: copy_x_back: 0.353 [ms]
[OGL LOG][lduLduBase.H:330] 
Statistics:
	Time per iteration: 3341 [mu s]
	Time per residual norm calculation: 1244.000000 [mu s]
	Time per iteration and DOF: 3.341000 [ns]
	Retrieve results bandwidth 2.832000 [GByte/s]
[OGL LOG][Proc: 0]p: solve_multi_gpu: 2301.65 [ms]
nonecudaGKOCG:  Solving for p, Initial residual = 0.00855127, Final residual = 9.841e-05, No Iterations 683
[INFO] SolveP: 2308.4 [ms]
time step continuity errors : sum local = 1.37646e-08, global = -3.75231e-21, cumulative = -9.69536e-21
[INFO] ContinuityError: 5.469 [ms]
[INFO] CorrectBoundary: 0.091 [ms]
[INFO] PISOStep: 2348.72 [ms]
[INFO] TimeStep: 4969.57 [ms]
ExecutionTime = 72.09 s  ClockTime = 73 s

Time = 0.01

Courant Number mean: 0.0737033 max: 0.478702
[INFO] MatrixAssemblyU: 17.958 [ms]
DILUPBiCGStab:  Solving for Ux, Initial residual = 0.0036821, Final residual = 9.64462e-06, No Iterations 5
DILUPBiCGStab:  Solving for Uy, Initial residual = 0.00794916, Final residual = 1.69777e-05, No Iterations 5
DILUPBiCGStab:  Solving for Uz, Initial residual = 0.0164477, Final residual = 3.70968e-05, No Iterations 5
[INFO] MomentumPredictor: 160.233 [ms]
[INFO] MatrixAssemblyPI: 20.612 [ms]
[INFO] AdjustPhi: 0.905 [ms]
[INFO] ConstrainPressure: 0.002 [ms]
[INFO] MatrixAssemblyPII: 6.409 [ms]
[OGL LOG][Proc: 0]: global_index_init: 0.008 [ms]
[OGL LOG][Proc: 0]p_local_coeffs: call_update: 0 [ms]
[OGL LOG][Proc: 0]p_non_local_coeffs: call_update: 0 [ms]
[OGL LOG][Proc: 0]p: update_local_matrix_data: 5.201 [ms]
[OGL LOG][Proc: 0]p: update_non_local_matrix_data: 0.048 [ms]
[OGL LOG][Proc: 0]p: regenerate_distributed_matrix: 16.59 [ms]
[OGL LOG][Proc: 0]p_matrix: call_update: 17.082 [ms]
[OGL LOG][Proc: 0]p_rhs: call_update: 0.914 [ms]
[OGL LOG][Proc: 0]p: init_precond: 0.023 [ms]
[OGL LOG][StoppingCriterion.H:237] Creating stopping criterion with minIter 409 frequency 11
[OGL LOG][Proc: 0]p: generate_solver: 0.001 [ms]
[OGL LOG][Proc: 0]p: solve: 2321.38 [ms]
[OGL LOG][Proc: 0]p: copy_x_back: 0.398 [ms]
[OGL LOG][lduLduBase.H:330] 
Statistics:
	Time per iteration: 3344 [mu s]
	Time per residual norm calculation: 1246.000000 [mu s]
	Time per iteration and DOF: 3.344000 [ns]
	Retrieve results bandwidth 2.512000 [GByte/s]
[OGL LOG][Proc: 0]p: solve_multi_gpu: 2340.54 [ms]
nonecudaGKOCG:  Solving for p, Initial residual = 0.00838588, Final residual = 5.95269e-05, No Iterations 694
[INFO] SolveP: 2347.4 [ms]
time step continuity errors : sum local = 8.32751e-09, global = -7.69155e-21, cumulative = -1.73869e-20
[INFO] ContinuityError: 2.359 [ms]
[INFO] CorrectBoundary: 0.097 [ms]
[INFO] PISOStep: 2385.89 [ms]
[INFO] MatrixAssemblyPI: 19.793 [ms]
[INFO] AdjustPhi: 0.925 [ms]
[INFO] ConstrainPressure: 0.002 [ms]
[INFO] MatrixAssemblyPII: 6.345 [ms]
[OGL LOG][Proc: 0]: global_index_init: 0.007 [ms]
[OGL LOG][Proc: 0]p_local_coeffs: call_update: 0 [ms]
[OGL LOG][Proc: 0]p_non_local_coeffs: call_update: 0 [ms]
[OGL LOG][Proc: 0]p: update_local_matrix_data: 5.21 [ms]
[OGL LOG][Proc: 0]p: update_non_local_matrix_data: 0.046 [ms]
[OGL LOG][Proc: 0]p: regenerate_distributed_matrix: 16.499 [ms]
[OGL LOG][Proc: 0]p_matrix: call_update: 16.783 [ms]
[OGL LOG][Proc: 0]p_rhs: call_update: 1.316 [ms]
[OGL LOG][Proc: 0]p: init_precond: 0.027 [ms]
[OGL LOG][StoppingCriterion.H:237] Creating stopping criterion with minIter 416 frequency 11
[OGL LOG][Proc: 0]p: generate_solver: 0.001 [ms]
[OGL LOG][Proc: 0]p: solve: 2290.47 [ms]
[OGL LOG][Proc: 0]p: copy_x_back: 0.593 [ms]
[OGL LOG][lduLduBase.H:330] 
Statistics:
	Time per iteration: 3353 [mu s]
	Time per residual norm calculation: 1258.000000 [mu s]
	Time per iteration and DOF: 3.353000 [ns]
	Retrieve results bandwidth 1.686000 [GByte/s]
[OGL LOG][Proc: 0]p: solve_multi_gpu: 2310.02 [ms]
nonecudaGKOCG:  Solving for p, Initial residual = 0.00794479, Final residual = 9.24492e-05, No Iterations 683
[INFO] SolveP: 2316.64 [ms]
time step continuity errors : sum local = 1.29374e-08, global = 9.28614e-22, cumulative = -1.64583e-20
[INFO] ContinuityError: 2.682 [ms]
[INFO] CorrectBoundary: 0.122 [ms]
[INFO] PISOStep: 2358.47 [ms]
[INFO] TimeStep: 4926.89 [ms]
ExecutionTime = 77.01 s  ClockTime = 78 s

End

Finalising parallel run
