/*---------------------------------------------------------------------------*\
| =========                 |                                                 |
| \\      /  F ield         | OpenFOAM: The Open Source CFD Toolbox           |
|  \\    /   O peration     | Version:  2306                                  |
|   \\  /    A nd           | Website:  www.openfoam.com                      |
|    \\/     M anipulation  |                                                 |
\*---------------------------------------------------------------------------*/
Build  : a6e826bd55-20230630 OPENFOAM=2306 version=v2306
Arch   : "LSB;label=32;scalar=64"
Exec   : icoFoam -parallel -case /home/greole/data/code/exasim_project/micro_benchmarks/LidDrivenCavity3D/workspace/c13f931f4920b804a61955e94a4327c1/case
Date   : Jul 05 2023
Time   : 21:01:37
Host   : nla-gpu2.ianm.kit.edu
PID    : 64096
I/O    : uncollated
Case   : /home/greole/data/code/exasim_project/micro_benchmarks/LidDrivenCavity3D/workspace/c13f931f4920b804a61955e94a4327c1/case
nProcs : 8
Hosts  :
(
    (nla-gpu2.ianm.kit.edu 8)
)
Pstream initialized with:
    floatTransfer      : false
    nProcsSimpleSum    : 0
    nonBlockingExchange: 0 (tuning: 0)
    exchange algorithm : -1
    commsType          : nonBlocking
    polling iterations : 0
trapFpe: Floating point exception trapping enabled (FOAM_SIGFPE).
fileModificationChecking : Monitoring run-time modified files using timeStampMaster (fileModificationSkew 5, maxFileModificationPolls 20)
allowSystemOperations : Allowing user-supplied system call operations

// * * * * * * * * * * * * * * * * * * * * * * * * * * * * * * * * * * * * * //
Create time

--> FOAM Warning : 
    From void* Foam::dlLibraryTable::openLibrary(const Foam::fileName&, bool)
    in file db/dynamicLibrary/dlLibraryTable/dlLibraryTable.C at line 188
    Could not load "libpetscFoam.so"
libpetscFoam.so: cannot open shared object file: No such file or directory
Create mesh for time = 0


PISO: Operating solver in PISO mode

Reading transportProperties

Reading field p

Reading field U

Reading/calculating face flux field phi


Starting time loop

Time = 0.000166

Courant Number mean: 8.14055e-18 max: 3.11001e-14
[INFO] MatrixAssemblyU: 348.156 [ms]
DILUPBiCGStab:  Solving for Ux, Initial residual = 1, Final residual = 0.0159896, No Iterations 5
DILUPBiCGStab:  Solving for Uy:  solution singularity
DILUPBiCGStab:  Solving for Uz:  solution singularity
[INFO] MomentumPredictor: 1571.72 [ms]
[INFO] MatrixAssemblyPI: 353.846 [ms]
[INFO] AdjustPhi: 19.336 [ms]
[INFO] ConstrainPressure: 0.013 [ms]
[INFO] MatrixAssemblyPII: 98.747 [ms]
[OGL LOG][lduLduBase.H:122] Initialising OGL
	OGL commit:  13e9788+
	Branch: device_guard 
	Build type: Release
	Ginkgo version: 1.5.0 ( develop)
	Ginkgo commit: 4292ffdee
	MPI is GPU aware: 1
	Forces host buffer based communication: 0
	CPU ranks per GPU: 1
	Matrix format: Coo
	End OGL_INFO
[OGL LOG][Proc: 0]: global_index_init: 6.045 [ms]
[OGL LOG][Proc: 0]p_local_cols: call_init: 0.041 [ms]
[OGL LOG][Proc: 0]p_local_rows: call_init: 0.013 [ms]
[OGL LOG][Proc: 0]p_local_ldu_map: call_init: 0.162 [ms]
[OGL LOG][Proc: 0]p_local_coeffs: call_init: 0.012 [ms]
[OGL LOG][Proc: 0]p_non_local_cols: call_init: 0.003 [ms]
[OGL LOG][Proc: 0]p_non_local_rows: call_init: 0.003 [ms]
[OGL LOG][Proc: 0]p_non_local_ldu_map: call_init: 0.003 [ms]
[OGL LOG][Proc: 0]p_non_local_coeffs: call_init: 0.003 [ms]
[OGL LOG][Proc: 0]p: init_local_sparsity_pattern: 500.808 [ms]
[OGL LOG][Proc: 0]p: init_non_local_sparsity_pattern: 35.119 [ms]
[OGL LOG][Proc: 0]p: update_local_matrix_data: 59.894 [ms]
[OGL LOG][Proc: 0]p: update_non_local_matrix_data: 0.256 [ms]
[OGL LOG][Proc: 0]device_partition: call_init: 93.796 [ms]
[OGL LOG][Proc: 0]p_matrix: call_init: 208.321 [ms]
[OGL LOG][Proc: 0]p_rhs: call_init: 8.603 [ms]
[OGL LOG][Proc: 0]p_solution: call_init: 2.817 [ms]
[OGL LOG][Preconditioner.H:121] Generate preconditioner BJ MaxBlockSize 1
[OGL LOG][Proc: 0]p: init_precond: 4.871 [ms]
[OGL LOG][StoppingCriterion.H:372] Creating stopping criterion with minIter 0 frequency 1
[OGL LOG][Proc: 0]p: generate_solver: 0.01 [ms]
[OGL LOG][Proc: 0]p: solve: 5810.42 [ms]
[OGL LOG][Proc: 0]p: copy_x_back: 9.899 [ms]
[OGL LOG][lduLduBase.H:339] 
Statistics:
	Time per iteration: 2402 [mu s]
	Time per residual norm calculation: 1146.000000 [mu s]
	Time per iteration and DOF: 0.088963 [ns]
	Retrieve results bandwidth 2.727000 [GByte/s]
[OGL LOG][Proc: 0]p: solve_multi_gpu: 6140.27 [ms]
BJhipGKOCG:  Solving for p, Initial residual = 1, Final residual = 9.94605e-05, No Iterations 2418
[INFO] SolveP: 6982.9 [ms]
time step continuity errors : sum local = 4.02567e-09, global = 2.43595e-21, cumulative = 2.43595e-21
[INFO] ContinuityError: 48.619 [ms]
[INFO] CorrectBoundary: 1.456 [ms]
[INFO] PISOStep: 7625.06 [ms]
[INFO] MatrixAssemblyPI: 338.931 [ms]
[INFO] AdjustPhi: 20.136 [ms]
[INFO] ConstrainPressure: 0.004 [ms]
[INFO] MatrixAssemblyPII: 100.913 [ms]
[OGL LOG][Proc: 0]: global_index_init: 0.047 [ms]
[OGL LOG][Proc: 0]p_local_coeffs: call_update: 0.003 [ms]
[OGL LOG][Proc: 0]p_non_local_coeffs: call_update: 0 [ms]
[OGL LOG][Proc: 0]p: update_local_matrix_data: 48.502 [ms]
[OGL LOG][Proc: 0]p: update_non_local_matrix_data: 0.247 [ms]
[OGL LOG][Proc: 0]p_matrix: call_update: 38.413 [ms]
[OGL LOG][Proc: 0]p_rhs: call_update: 7.922 [ms]
[OGL LOG][Preconditioner.H:121] Generate preconditioner BJ MaxBlockSize 1
[OGL LOG][Proc: 0]p: init_precond: 1.095 [ms]
[OGL LOG][StoppingCriterion.H:372] Creating stopping criterion with minIter 1450 frequency 21
[OGL LOG][Proc: 0]p: generate_solver: 0.002 [ms]
[OGL LOG][Proc: 0]p: solve: 3998.91 [ms]
[OGL LOG][Proc: 0]p: copy_x_back: 10.83 [ms]
[OGL LOG][lduLduBase.H:339] 
Statistics:
	Time per iteration: 1655 [mu s]
	Time per residual norm calculation: 289.000000 [mu s]
	Time per iteration and DOF: 0.061296 [ns]
	Retrieve results bandwidth 2.493000 [GByte/s]
[OGL LOG][Proc: 0]p: solve_multi_gpu: 4058.72 [ms]
BJhipGKOCG:  Solving for p, Initial residual = 0.809676, Final residual = 7.93087e-05, No Iterations 2416
[INFO] SolveP: 4118.03 [ms]
time step continuity errors : sum local = 3.91712e-09, global = 3.72696e-22, cumulative = 2.80865e-21
[INFO] ContinuityError: 48.785 [ms]
[INFO] CorrectBoundary: 2.975 [ms]
[INFO] PISOStep: 4744.46 [ms]
[INFO] TimeStep: 14339.2 [ms]
ExecutionTime = 17.95 s  ClockTime = 17 s

Time = 0.000332

Courant Number mean: 0.0128497 max: 0.426563
[INFO] MatrixAssemblyU: 266.178 [ms]
DILUPBiCGStab:  Solving for Ux, Initial residual = 0.116942, Final residual = 0.00923007, No Iterations 5
DILUPBiCGStab:  Solving for Uy, Initial residual = 0.459876, Final residual = 0.0300232, No Iterations 5
DILUPBiCGStab:  Solving for Uz, Initial residual = 0.995327, Final residual = 0.0718278, No Iterations 5
[INFO] MomentumPredictor: 2977.2 [ms]
[INFO] MatrixAssemblyPI: 348.683 [ms]
[INFO] AdjustPhi: 19.94 [ms]
[INFO] ConstrainPressure: 0.004 [ms]
[INFO] MatrixAssemblyPII: 99.064 [ms]
[OGL LOG][Proc: 0]: global_index_init: 0.038 [ms]
[OGL LOG][Proc: 0]p_local_coeffs: call_update: 0 [ms]
[OGL LOG][Proc: 0]p_non_local_coeffs: call_update: 0 [ms]
[OGL LOG][Proc: 0]p: update_local_matrix_data: 48.738 [ms]
[OGL LOG][Proc: 0]p: update_non_local_matrix_data: 0.255 [ms]
[OGL LOG][Proc: 0]p_matrix: call_update: 24.491 [ms]
[OGL LOG][Proc: 0]p_rhs: call_update: 4.892 [ms]
[OGL LOG][Preconditioner.H:121] Generate preconditioner BJ MaxBlockSize 1
[OGL LOG][Proc: 0]p: init_precond: 1.156 [ms]
[OGL LOG][StoppingCriterion.H:372] Creating stopping criterion with minIter 1449 frequency 13
[OGL LOG][Proc: 0]p: generate_solver: 0.002 [ms]
[OGL LOG][Proc: 0]p: solve: 3982.5 [ms]
[OGL LOG][Proc: 0]p: copy_x_back: 9.421 [ms]
[OGL LOG][lduLduBase.H:339] 
Statistics:
	Time per iteration: 1673 [mu s]
	Time per residual norm calculation: 332.000000 [mu s]
	Time per iteration and DOF: 0.061963 [ns]
	Retrieve results bandwidth 2.865000 [GByte/s]
[OGL LOG][Proc: 0]p: solve_multi_gpu: 4024.07 [ms]
BJhipGKOCG:  Solving for p, Initial residual = 0.878214, Final residual = 8.13789e-05, No Iterations 2380
[INFO] SolveP: 4083.6 [ms]
time step continuity errors : sum local = 7.73126e-09, global = 6.90754e-22, cumulative = 3.4994e-21
[INFO] ContinuityError: 49.196 [ms]
[INFO] CorrectBoundary: 1.026 [ms]
[INFO] PISOStep: 4717.72 [ms]
[INFO] MatrixAssemblyPI: 341.556 [ms]
[INFO] AdjustPhi: 19.016 [ms]
[INFO] ConstrainPressure: 0.005 [ms]
[INFO] MatrixAssemblyPII: 100.664 [ms]
[OGL LOG][Proc: 0]: global_index_init: 0.043 [ms]
[OGL LOG][Proc: 0]p_local_coeffs: call_update: 0 [ms]
[OGL LOG][Proc: 0]p_non_local_coeffs: call_update: 0 [ms]
[OGL LOG][Proc: 0]p: update_local_matrix_data: 48.473 [ms]
[OGL LOG][Proc: 0]p: update_non_local_matrix_data: 0.259 [ms]
[OGL LOG][Proc: 0]p_matrix: call_update: 26.913 [ms]
[OGL LOG][Proc: 0]p_rhs: call_update: 3.528 [ms]
[OGL LOG][Preconditioner.H:121] Generate preconditioner BJ MaxBlockSize 1
[OGL LOG][Proc: 0]p: init_precond: 1.099 [ms]
[OGL LOG][StoppingCriterion.H:372] Creating stopping criterion with minIter 1428 frequency 13
[OGL LOG][Proc: 0]p: generate_solver: 0.002 [ms]
[OGL LOG][Proc: 0]p: solve: 3942.41 [ms]
[OGL LOG][Proc: 0]p: copy_x_back: 9.612 [ms]
[OGL LOG][lduLduBase.H:339] 
Statistics:
	Time per iteration: 1656 [mu s]
	Time per residual norm calculation: 320.000000 [mu s]
	Time per iteration and DOF: 0.061333 [ns]
	Retrieve results bandwidth 2.808000 [GByte/s]
[OGL LOG][Proc: 0]p: solve_multi_gpu: 3984.8 [ms]
BJhipGKOCG:  Solving for p, Initial residual = 0.826382, Final residual = 7.5077e-05, No Iterations 2380
[INFO] SolveP: 4046.76 [ms]
time step continuity errors : sum local = 7.26429e-09, global = 1.88596e-22, cumulative = 3.688e-21
[INFO] ContinuityError: 48.17 [ms]
[INFO] CorrectBoundary: 0.995 [ms]
[INFO] PISOStep: 4673.99 [ms]
[INFO] TimeStep: 12681.3 [ms]
ExecutionTime = 32.4 s  ClockTime = 30 s

Time = 0.000498

Courant Number mean: 0.0198262 max: 0.491804
[INFO] MatrixAssemblyU: 263.754 [ms]
DILUPBiCGStab:  Solving for Ux, Initial residual = 0.0544577, Final residual = 0.00348866, No Iterations 5
DILUPBiCGStab:  Solving for Uy, Initial residual = 0.226377, Final residual = 0.0156761, No Iterations 5
DILUPBiCGStab:  Solving for Uz, Initial residual = 0.854743, Final residual = 0.0552295, No Iterations 5
[INFO] MomentumPredictor: 2979.82 [ms]
[INFO] MatrixAssemblyPI: 346.217 [ms]
[INFO] AdjustPhi: 20.629 [ms]
[INFO] ConstrainPressure: 0.004 [ms]
[INFO] MatrixAssemblyPII: 98.557 [ms]
[OGL LOG][Proc: 0]: global_index_init: 0.575 [ms]
[OGL LOG][Proc: 0]p_local_coeffs: call_update: 0 [ms]
[OGL LOG][Proc: 0]p_non_local_coeffs: call_update: 0 [ms]
[OGL LOG][Proc: 0]p: update_local_matrix_data: 48.594 [ms]
[OGL LOG][Proc: 0]p: update_non_local_matrix_data: 0.245 [ms]
[OGL LOG][Proc: 0]p_matrix: call_update: 23.168 [ms]
[OGL LOG][Proc: 0]p_rhs: call_update: 5.916 [ms]
[OGL LOG][Preconditioner.H:121] Generate preconditioner BJ MaxBlockSize 1
[OGL LOG][Proc: 0]p: init_precond: 1.222 [ms]
[OGL LOG][StoppingCriterion.H:372] Creating stopping criterion with minIter 1428 frequency 13
[OGL LOG][Proc: 0]p: generate_solver: 0.002 [ms]
[OGL LOG][Proc: 0]p: solve: 2396.16 [ms]
[OGL LOG][Proc: 0]p: copy_x_back: 9.493 [ms]
[OGL LOG][lduLduBase.H:339] 
Statistics:
	Time per iteration: 1674 [mu s]
	Time per residual norm calculation: 328.000000 [mu s]
	Time per iteration and DOF: 0.062000 [ns]
	Retrieve results bandwidth 2.844000 [GByte/s]
[OGL LOG][Proc: 0]p: solve_multi_gpu: 2437.55 [ms]
BJhipGKOCG:  Solving for p, Initial residual = 0.913751, Final residual = 6.91964e-05, No Iterations 1431
[INFO] SolveP: 2497.65 [ms]
time step continuity errors : sum local = 7.69247e-09, global = 9.99151e-22, cumulative = 4.68715e-21
[INFO] ContinuityError: 47.534 [ms]
[INFO] CorrectBoundary: 1.124 [ms]
[INFO] PISOStep: 3124.58 [ms]
[INFO] MatrixAssemblyPI: 337.258 [ms]
[INFO] AdjustPhi: 18.642 [ms]
[INFO] ConstrainPressure: 0.004 [ms]
[INFO] MatrixAssemblyPII: 99.755 [ms]
[OGL LOG][Proc: 0]: global_index_init: 0.059 [ms]
[OGL LOG][Proc: 0]p_local_coeffs: call_update: 0 [ms]
[OGL LOG][Proc: 0]p_non_local_coeffs: call_update: 0 [ms]
[OGL LOG][Proc: 0]p: update_local_matrix_data: 47.799 [ms]
[OGL LOG][Proc: 0]p: update_non_local_matrix_data: 0.249 [ms]
[OGL LOG][Proc: 0]p_matrix: call_update: 26.528 [ms]
[OGL LOG][Proc: 0]p_rhs: call_update: 6.398 [ms]
[OGL LOG][Preconditioner.H:121] Generate preconditioner BJ MaxBlockSize 1
[OGL LOG][Proc: 0]p: init_precond: 1.084 [ms]
[OGL LOG][StoppingCriterion.H:372] Creating stopping criterion with minIter 858 frequency 10
[OGL LOG][Proc: 0]p: generate_solver: 0.002 [ms]
[OGL LOG][Proc: 0]p: solve: 1958.63 [ms]
[OGL LOG][Proc: 0]p: copy_x_back: 9.498 [ms]
[OGL LOG][lduLduBase.H:339] 
Statistics:
	Time per iteration: 1701 [mu s]
	Time per residual norm calculation: 319.000000 [mu s]
	Time per iteration and DOF: 0.063000 [ns]
	Retrieve results bandwidth 2.842000 [GByte/s]
[OGL LOG][Proc: 0]p: solve_multi_gpu: 2003.64 [ms]
BJhipGKOCG:  Solving for p, Initial residual = 0.882686, Final residual = 8.97555e-05, No Iterations 1151
[INFO] SolveP: 2064.82 [ms]
time step continuity errors : sum local = 9.37786e-09, global = 5.59362e-22, cumulative = 5.24651e-21
[INFO] ContinuityError: 47.63 [ms]
[INFO] CorrectBoundary: 0.909 [ms]
[INFO] PISOStep: 2683.53 [ms]
[INFO] TimeStep: 9097.7 [ms]
ExecutionTime = 42.46 s  ClockTime = 39 s

Time = 0.000664

Courant Number mean: 0.0239197 max: 0.47201
[INFO] MatrixAssemblyU: 265.738 [ms]
DILUPBiCGStab:  Solving for Ux, Initial residual = 0.0384976, Final residual = 0.00279687, No Iterations 5
DILUPBiCGStab:  Solving for Uy, Initial residual = 0.174096, Final residual = 0.0125978, No Iterations 5
DILUPBiCGStab:  Solving for Uz, Initial residual = 0.73012, Final residual = 0.0385543, No Iterations 5
[INFO] MomentumPredictor: 2959.65 [ms]
[INFO] MatrixAssemblyPI: 347.725 [ms]
[INFO] AdjustPhi: 19.842 [ms]
[INFO] ConstrainPressure: 0.004 [ms]
[INFO] MatrixAssemblyPII: 102.027 [ms]
[OGL LOG][Proc: 0]: global_index_init: 0.041 [ms]
[OGL LOG][Proc: 0]p_local_coeffs: call_update: 0 [ms]
[OGL LOG][Proc: 0]p_non_local_coeffs: call_update: 0 [ms]
[OGL LOG][Proc: 0]p: update_local_matrix_data: 48.597 [ms]
[OGL LOG][Proc: 0]p: update_non_local_matrix_data: 0.252 [ms]
[OGL LOG][Proc: 0]p_matrix: call_update: 27.75 [ms]
[OGL LOG][Proc: 0]p_rhs: call_update: 5.127 [ms]
[OGL LOG][Preconditioner.H:121] Generate preconditioner BJ MaxBlockSize 1
[OGL LOG][Proc: 0]p: init_precond: 1.156 [ms]
[OGL LOG][StoppingCriterion.H:372] Creating stopping criterion with minIter 690 frequency 9
[OGL LOG][Proc: 0]p: generate_solver: 0.002 [ms]
[OGL LOG][Proc: 0]p: solve: 1999.51 [ms]
[OGL LOG][Proc: 0]p: copy_x_back: 9.424 [ms]
[OGL LOG][lduLduBase.H:339] 
Statistics:
	Time per iteration: 1734 [mu s]
	Time per residual norm calculation: 322.000000 [mu s]
	Time per iteration and DOF: 0.064222 [ns]
	Retrieve results bandwidth 2.865000 [GByte/s]
[OGL LOG][Proc: 0]p: solve_multi_gpu: 2044.54 [ms]
BJhipGKOCG:  Solving for p, Initial residual = 0.890283, Final residual = 9.45889e-05, No Iterations 1153
[INFO] SolveP: 2103.92 [ms]
time step continuity errors : sum local = 1.12895e-08, global = -5.90442e-22, cumulative = 4.65607e-21
[INFO] ContinuityError: 48.643 [ms]
[INFO] CorrectBoundary: 1 [ms]
[INFO] PISOStep: 2735.62 [ms]
[INFO] MatrixAssemblyPI: 335.918 [ms]
[INFO] AdjustPhi: 19.73 [ms]
[INFO] ConstrainPressure: 0.004 [ms]
[INFO] MatrixAssemblyPII: 98.476 [ms]
[OGL LOG][Proc: 0]: global_index_init: 0.226 [ms]
[OGL LOG][Proc: 0]p_local_coeffs: call_update: 0 [ms]
[OGL LOG][Proc: 0]p_non_local_coeffs: call_update: 0 [ms]
[OGL LOG][Proc: 0]p: update_local_matrix_data: 48.265 [ms]
[OGL LOG][Proc: 0]p: update_non_local_matrix_data: 0.236 [ms]
[OGL LOG][Proc: 0]p_matrix: call_update: 26.011 [ms]
[OGL LOG][Proc: 0]p_rhs: call_update: 4.755 [ms]
[OGL LOG][Preconditioner.H:121] Generate preconditioner BJ MaxBlockSize 1
[OGL LOG][Proc: 0]p: init_precond: 1.218 [ms]
[OGL LOG][StoppingCriterion.H:372] Creating stopping criterion with minIter 691 frequency 9
[OGL LOG][Proc: 0]p: generate_solver: 0.002 [ms]
[OGL LOG][Proc: 0]p: solve: 1975.56 [ms]
[OGL LOG][Proc: 0]p: copy_x_back: 9.422 [ms]
[OGL LOG][lduLduBase.H:339] 
Statistics:
	Time per iteration: 1726 [mu s]
	Time per residual norm calculation: 322.000000 [mu s]
	Time per iteration and DOF: 0.063926 [ns]
	Retrieve results bandwidth 2.865000 [GByte/s]
[OGL LOG][Proc: 0]p: solve_multi_gpu: 2018.48 [ms]
BJhipGKOCG:  Solving for p, Initial residual = 0.830218, Final residual = 9.46688e-05, No Iterations 1144
[INFO] SolveP: 2077.66 [ms]
time step continuity errors : sum local = 1.0948e-08, global = 1.50983e-22, cumulative = 4.80705e-21
[INFO] ContinuityError: 46.883 [ms]
[INFO] CorrectBoundary: 0.983 [ms]
[INFO] PISOStep: 2692.61 [ms]
[INFO] TimeStep: 8697.98 [ms]
ExecutionTime = 51.97 s  ClockTime = 47 s

Time = 0.00083

Courant Number mean: 0.0274473 max: 0.504971
[INFO] MatrixAssemblyU: 269.019 [ms]
DILUPBiCGStab:  Solving for Ux, Initial residual = 0.0323943, Final residual = 0.00238057, No Iterations 5
DILUPBiCGStab:  Solving for Uy, Initial residual = 0.129656, Final residual = 0.0105551, No Iterations 5
DILUPBiCGStab:  Solving for Uz, Initial residual = 0.676133, Final residual = 0.0332414, No Iterations 5
[INFO] MomentumPredictor: 2967.09 [ms]
[INFO] MatrixAssemblyPI: 349.103 [ms]
[INFO] AdjustPhi: 18 [ms]
[INFO] ConstrainPressure: 0.004 [ms]
[INFO] MatrixAssemblyPII: 98.935 [ms]
[OGL LOG][Proc: 0]: global_index_init: 0.038 [ms]
[OGL LOG][Proc: 0]p_local_coeffs: call_update: 0 [ms]
[OGL LOG][Proc: 0]p_non_local_coeffs: call_update: 0 [ms]
[OGL LOG][Proc: 0]p: update_local_matrix_data: 49.007 [ms]
[OGL LOG][Proc: 0]p: update_non_local_matrix_data: 0.291 [ms]
[OGL LOG][Proc: 0]p_matrix: call_update: 22.761 [ms]
[OGL LOG][Proc: 0]p_rhs: call_update: 7.09 [ms]
[OGL LOG][Preconditioner.H:121] Generate preconditioner BJ MaxBlockSize 1
[OGL LOG][Proc: 0]p: init_precond: 1.164 [ms]
[OGL LOG][StoppingCriterion.H:372] Creating stopping criterion with minIter 686 frequency 9
[OGL LOG][Proc: 0]p: generate_solver: 0.002 [ms]
[OGL LOG][Proc: 0]p: solve: 3623.54 [ms]
[OGL LOG][Proc: 0]p: copy_x_back: 9.181 [ms]
[OGL LOG][lduLduBase.H:339] 
Statistics:
	Time per iteration: 1676 [mu s]
	Time per residual norm calculation: 293.000000 [mu s]
	Time per iteration and DOF: 0.062074 [ns]
	Retrieve results bandwidth 2.940000 [GByte/s]
[OGL LOG][Proc: 0]p: solve_multi_gpu: 3665.09 [ms]
BJhipGKOCG:  Solving for p, Initial residual = 0.910502, Final residual = 9.86044e-05, No Iterations 2161
[INFO] SolveP: 3725.15 [ms]
time step continuity errors : sum local = 1.08759e-08, global = 2.19407e-22, cumulative = 5.02646e-21
[INFO] ContinuityError: 46.288 [ms]
[INFO] CorrectBoundary: 1.197 [ms]
[INFO] PISOStep: 4357.19 [ms]
[INFO] MatrixAssemblyPI: 340.42 [ms]
[INFO] AdjustPhi: 18.602 [ms]
[INFO] ConstrainPressure: 0.004 [ms]
[INFO] MatrixAssemblyPII: 98.273 [ms]
[OGL LOG][Proc: 0]: global_index_init: 0.152 [ms]
[OGL LOG][Proc: 0]p_local_coeffs: call_update: 0 [ms]
[OGL LOG][Proc: 0]p_non_local_coeffs: call_update: 0 [ms]
[OGL LOG][Proc: 0]p: update_local_matrix_data: 47.6 [ms]
[OGL LOG][Proc: 0]p: update_non_local_matrix_data: 0.254 [ms]
[OGL LOG][Proc: 0]p_matrix: call_update: 37.458 [ms]
[OGL LOG][Proc: 0]p_rhs: call_update: 5.838 [ms]
[OGL LOG][Preconditioner.H:121] Generate preconditioner BJ MaxBlockSize 1
[OGL LOG][Proc: 0]p: init_precond: 1.307 [ms]
[OGL LOG][StoppingCriterion.H:372] Creating stopping criterion with minIter 1296 frequency 13
[OGL LOG][Proc: 0]p: generate_solver: 0.002 [ms]
[OGL LOG][Proc: 0]p: solve: 3565.4 [ms]
[OGL LOG][Proc: 0]p: copy_x_back: 9.303 [ms]
[OGL LOG][lduLduBase.H:339] 
Statistics:
	Time per iteration: 1651 [mu s]
	Time per residual norm calculation: 326.000000 [mu s]
	Time per iteration and DOF: 0.061148 [ns]
	Retrieve results bandwidth 2.902000 [GByte/s]
[OGL LOG][Proc: 0]p: solve_multi_gpu: 3620.85 [ms]
BJhipGKOCG:  Solving for p, Initial residual = 0.87272, Final residual = 8.84067e-05, No Iterations 2159
[INFO] SolveP: 3678.98 [ms]
time step continuity errors : sum local = 9.62568e-09, global = 5.96784e-22, cumulative = 5.62324e-21
[INFO] ContinuityError: 47.508 [ms]
[INFO] CorrectBoundary: 1.012 [ms]
[INFO] PISOStep: 4299.37 [ms]
[INFO] TimeStep: 11937.4 [ms]
ExecutionTime = 65.48 s  ClockTime = 59 s

Time = 0.000996

Courant Number mean: 0.0301892 max: 0.478379
[INFO] MatrixAssemblyU: 268.325 [ms]
DILUPBiCGStab:  Solving for Ux, Initial residual = 0.0270175, Final residual = 0.00213064, No Iterations 5
DILUPBiCGStab:  Solving for Uy, Initial residual = 0.111895, Final residual = 0.00833831, No Iterations 5
DILUPBiCGStab:  Solving for Uz, Initial residual = 0.582979, Final residual = 0.0261148, No Iterations 5
[INFO] MomentumPredictor: 2956.03 [ms]
[INFO] MatrixAssemblyPI: 343.496 [ms]
[INFO] AdjustPhi: 21.143 [ms]
[INFO] ConstrainPressure: 0.004 [ms]
[INFO] MatrixAssemblyPII: 98.158 [ms]
[OGL LOG][Proc: 0]: global_index_init: 0.103 [ms]
[OGL LOG][Proc: 0]p_local_coeffs: call_update: 0 [ms]
[OGL LOG][Proc: 0]p_non_local_coeffs: call_update: 0 [ms]
[OGL LOG][Proc: 0]p: update_local_matrix_data: 48.59 [ms]
[OGL LOG][Proc: 0]p: update_non_local_matrix_data: 0.303 [ms]
[OGL LOG][Proc: 0]p_matrix: call_update: 23.551 [ms]
[OGL LOG][Proc: 0]p_rhs: call_update: 4.564 [ms]
[OGL LOG][Preconditioner.H:121] Generate preconditioner BJ MaxBlockSize 1
[OGL LOG][Proc: 0]p: init_precond: 1.263 [ms]
[OGL LOG][StoppingCriterion.H:372] Creating stopping criterion with minIter 1295 frequency 13
[OGL LOG][Proc: 0]p: generate_solver: 0.002 [ms]
[OGL LOG][Proc: 0]p: solve: 3927.9 [ms]
[OGL LOG][Proc: 0]p: copy_x_back: 9.248 [ms]
[OGL LOG][lduLduBase.H:339] 
Statistics:
	Time per iteration: 1659 [mu s]
	Time per residual norm calculation: 327.000000 [mu s]
	Time per iteration and DOF: 0.061444 [ns]
	Retrieve results bandwidth 2.919000 [GByte/s]
[OGL LOG][Proc: 0]p: solve_multi_gpu: 3967.96 [ms]
BJhipGKOCG:  Solving for p, Initial residual = 0.887862, Final residual = 9.0794e-05, No Iterations 2367
[INFO] SolveP: 4027.42 [ms]
time step continuity errors : sum local = 1.02161e-08, global = 6.57555e-22, cumulative = 6.2808e-21
[INFO] ContinuityError: 46.662 [ms]
[INFO] CorrectBoundary: 1.198 [ms]
[INFO] PISOStep: 4650.82 [ms]
[INFO] MatrixAssemblyPI: 340.952 [ms]
[INFO] AdjustPhi: 18.252 [ms]
[INFO] ConstrainPressure: 0.004 [ms]
[INFO] MatrixAssemblyPII: 98.715 [ms]
[OGL LOG][Proc: 0]: global_index_init: 0.166 [ms]
[OGL LOG][Proc: 0]p_local_coeffs: call_update: 0 [ms]
[OGL LOG][Proc: 0]p_non_local_coeffs: call_update: 0 [ms]
[OGL LOG][Proc: 0]p: update_local_matrix_data: 47.836 [ms]
[OGL LOG][Proc: 0]p: update_non_local_matrix_data: 0.271 [ms]
[OGL LOG][Proc: 0]p_matrix: call_update: 25.159 [ms]
[OGL LOG][Proc: 0]p_rhs: call_update: 5.789 [ms]
[OGL LOG][Preconditioner.H:121] Generate preconditioner BJ MaxBlockSize 1
[OGL LOG][Proc: 0]p: init_precond: 1.4 [ms]
[OGL LOG][StoppingCriterion.H:372] Creating stopping criterion with minIter 1420 frequency 13
[OGL LOG][Proc: 0]p: generate_solver: 0.002 [ms]
[OGL LOG][Proc: 0]p: solve: 3895.58 [ms]
[OGL LOG][Proc: 0]p: copy_x_back: 9.727 [ms]
[OGL LOG][lduLduBase.H:339] 
Statistics:
	Time per iteration: 1654 [mu s]
	Time per residual norm calculation: 320.000000 [mu s]
	Time per iteration and DOF: 0.061259 [ns]
	Retrieve results bandwidth 2.775000 [GByte/s]
[OGL LOG][Proc: 0]p: solve_multi_gpu: 3938.97 [ms]
BJhipGKOCG:  Solving for p, Initial residual = 0.824755, Final residual = 9.96074e-05, No Iterations 2354
[INFO] SolveP: 3997.37 [ms]
time step continuity errors : sum local = 1.13786e-08, global = 4.90702e-22, cumulative = 6.7715e-21
[INFO] ContinuityError: 49.769 [ms]
[INFO] CorrectBoundary: 1.274 [ms]
[INFO] PISOStep: 4620.13 [ms]
[INFO] TimeStep: 12540 [ms]
ExecutionTime = 79.74 s  ClockTime = 72 s

Time = 0.001162

Courant Number mean: 0.0326681 max: 0.51186
[INFO] MatrixAssemblyU: 263.549 [ms]
DILUPBiCGStab:  Solving for Ux, Initial residual = 0.0245555, Final residual = 0.00196945, No Iterations 5
DILUPBiCGStab:  Solving for Uy, Initial residual = 0.0982892, Final residual = 0.00769279, No Iterations 5
DILUPBiCGStab:  Solving for Uz, Initial residual = 0.553432, Final residual = 0.0228673, No Iterations 5
[INFO] MomentumPredictor: 2963.14 [ms]
[INFO] MatrixAssemblyPI: 346.642 [ms]
[INFO] AdjustPhi: 17.786 [ms]
[INFO] ConstrainPressure: 0.004 [ms]
[INFO] MatrixAssemblyPII: 98.661 [ms]
[OGL LOG][Proc: 0]: global_index_init: 0.111 [ms]
[OGL LOG][Proc: 0]p_local_coeffs: call_update: 0 [ms]
[OGL LOG][Proc: 0]p_non_local_coeffs: call_update: 0 [ms]
[OGL LOG][Proc: 0]p: update_local_matrix_data: 48.845 [ms]
[OGL LOG][Proc: 0]p: update_non_local_matrix_data: 0.423 [ms]
[OGL LOG][Proc: 0]p_matrix: call_update: 22.761 [ms]
[OGL LOG][Proc: 0]p_rhs: call_update: 5.927 [ms]
[OGL LOG][Preconditioner.H:121] Generate preconditioner BJ MaxBlockSize 1
[OGL LOG][Proc: 0]p: init_precond: 1.107 [ms]
[OGL LOG][StoppingCriterion.H:372] Creating stopping criterion with minIter 1412 frequency 13
[OGL LOG][Proc: 0]p: generate_solver: 0.002 [ms]
[OGL LOG][Proc: 0]p: solve: 3799.43 [ms]
[OGL LOG][Proc: 0]p: copy_x_back: 9.295 [ms]
[OGL LOG][lduLduBase.H:339] 
Statistics:
	Time per iteration: 1650 [mu s]
	Time per residual norm calculation: 303.000000 [mu s]
	Time per iteration and DOF: 0.061111 [ns]
	Retrieve results bandwidth 2.904000 [GByte/s]
[OGL LOG][Proc: 0]p: solve_multi_gpu: 3840.07 [ms]
BJhipGKOCG:  Solving for p, Initial residual = 0.9058, Final residual = 9.12657e-05, No Iterations 2302
[INFO] SolveP: 3900.59 [ms]
time step continuity errors : sum local = 1.0012e-08, global = 7.3843e-22, cumulative = 7.50993e-21
[INFO] ContinuityError: 46.832 [ms]
[INFO] CorrectBoundary: 0.922 [ms]
[INFO] PISOStep: 4527.02 [ms]
[INFO] MatrixAssemblyPI: 337.5 [ms]
[INFO] AdjustPhi: 22.727 [ms]
[INFO] ConstrainPressure: 0.004 [ms]
[INFO] MatrixAssemblyPII: 99.045 [ms]
[OGL LOG][Proc: 0]: global_index_init: 0.037 [ms]
[OGL LOG][Proc: 0]p_local_coeffs: call_update: 0 [ms]
[OGL LOG][Proc: 0]p_non_local_coeffs: call_update: 0 [ms]
[OGL LOG][Proc: 0]p: update_local_matrix_data: 48.163 [ms]
[OGL LOG][Proc: 0]p: update_non_local_matrix_data: 0.237 [ms]
[OGL LOG][Proc: 0]p_matrix: call_update: 29.143 [ms]
[OGL LOG][Proc: 0]p_rhs: call_update: 4.607 [ms]
[OGL LOG][Preconditioner.H:121] Generate preconditioner BJ MaxBlockSize 1
[OGL LOG][Proc: 0]p: init_precond: 1.193 [ms]
[OGL LOG][StoppingCriterion.H:372] Creating stopping criterion with minIter 1381 frequency 13
[OGL LOG][Proc: 0]p: generate_solver: 0.002 [ms]
[OGL LOG][Proc: 0]p: solve: 3809.68 [ms]
[OGL LOG][Proc: 0]p: copy_x_back: 9.212 [ms]
[OGL LOG][lduLduBase.H:339] 
Statistics:
	Time per iteration: 1664 [mu s]
	Time per residual norm calculation: 294.000000 [mu s]
	Time per iteration and DOF: 0.061630 [ns]
	Retrieve results bandwidth 2.930000 [GByte/s]
[OGL LOG][Proc: 0]p: solve_multi_gpu: 3855.39 [ms]
BJhipGKOCG:  Solving for p, Initial residual = 0.860966, Final residual = 9.84019e-05, No Iterations 2289
[INFO] SolveP: 3914.42 [ms]
time step continuity errors : sum local = 1.06768e-08, global = 6.69199e-22, cumulative = 8.17912e-21
[INFO] ContinuityError: 47.202 [ms]
[INFO] CorrectBoundary: 1.107 [ms]
[INFO] PISOStep: 4534.19 [ms]
[INFO] TimeStep: 12332.2 [ms]
ExecutionTime = 93.76 s  ClockTime = 84 s

Time = 0.001328

Courant Number mean: 0.034753 max: 0.481308
[INFO] MatrixAssemblyU: 264.942 [ms]
DILUPBiCGStab:  Solving for Ux, Initial residual = 0.0221231, Final residual = 0.00183358, No Iterations 5
DILUPBiCGStab:  Solving for Uy, Initial residual = 0.0870688, Final residual = 0.00645249, No Iterations 5
DILUPBiCGStab:  Solving for Uz, Initial residual = 0.509662, Final residual = 0.0204184, No Iterations 5
[INFO] MomentumPredictor: 2963.84 [ms]
[INFO] MatrixAssemblyPI: 343.966 [ms]
[INFO] AdjustPhi: 20.641 [ms]
[INFO] ConstrainPressure: 0.004 [ms]
[INFO] MatrixAssemblyPII: 98.348 [ms]
[OGL LOG][Proc: 0]: global_index_init: 0.284 [ms]
[OGL LOG][Proc: 0]p_local_coeffs: call_update: 0 [ms]
[OGL LOG][Proc: 0]p_non_local_coeffs: call_update: 0 [ms]
[OGL LOG][Proc: 0]p: update_local_matrix_data: 47.982 [ms]
[OGL LOG][Proc: 0]p: update_non_local_matrix_data: 0.254 [ms]
[OGL LOG][Proc: 0]p_matrix: call_update: 41.882 [ms]
[OGL LOG][Proc: 0]p_rhs: call_update: 3.381 [ms]
[OGL LOG][Preconditioner.H:121] Generate preconditioner BJ MaxBlockSize 1
[OGL LOG][Proc: 0]p: init_precond: 1.12 [ms]
[OGL LOG][StoppingCriterion.H:372] Creating stopping criterion with minIter 1373 frequency 13
[OGL LOG][Proc: 0]p: generate_solver: 0.003 [ms]
[OGL LOG][Proc: 0]p: solve: 3812.53 [ms]
[OGL LOG][Proc: 0]p: copy_x_back: 9.411 [ms]
[OGL LOG][lduLduBase.H:339] 
Statistics:
	Time per iteration: 1656 [mu s]
	Time per residual norm calculation: 319.000000 [mu s]
	Time per iteration and DOF: 0.061333 [ns]
	Retrieve results bandwidth 2.868000 [GByte/s]
[OGL LOG][Proc: 0]p: solve_multi_gpu: 3869.87 [ms]
BJhipGKOCG:  Solving for p, Initial residual = 0.883722, Final residual = 9.62799e-05, No Iterations 2302
[INFO] SolveP: 3928.31 [ms]
time step continuity errors : sum local = 1.0727e-08, global = 8.0836e-22, cumulative = 8.98748e-21
[INFO] ContinuityError: 46.288 [ms]
[INFO] CorrectBoundary: 1.234 [ms]
[INFO] PISOStep: 4555.8 [ms]
[INFO] MatrixAssemblyPI: 343.89 [ms]
[INFO] AdjustPhi: 17.846 [ms]
[INFO] ConstrainPressure: 0.005 [ms]
[INFO] MatrixAssemblyPII: 99.326 [ms]
[OGL LOG][Proc: 0]: global_index_init: 0.036 [ms]
[OGL LOG][Proc: 0]p_local_coeffs: call_update: 0 [ms]
[OGL LOG][Proc: 0]p_non_local_coeffs: call_update: 0 [ms]
[OGL LOG][Proc: 0]p: update_local_matrix_data: 48.061 [ms]
[OGL LOG][Proc: 0]p: update_non_local_matrix_data: 0.247 [ms]
[OGL LOG][Proc: 0]p_matrix: call_update: 25.378 [ms]
[OGL LOG][Proc: 0]p_rhs: call_update: 5.648 [ms]
[OGL LOG][Preconditioner.H:121] Generate preconditioner BJ MaxBlockSize 1
[OGL LOG][Proc: 0]p: init_precond: 1.118 [ms]
[OGL LOG][StoppingCriterion.H:372] Creating stopping criterion with minIter 1381 frequency 13
[OGL LOG][Proc: 0]p: generate_solver: 0.003 [ms]
[OGL LOG][Proc: 0]p: solve: 3795.98 [ms]
[OGL LOG][Proc: 0]p: copy_x_back: 9.243 [ms]
[OGL LOG][lduLduBase.H:339] 
Statistics:
	Time per iteration: 1648 [mu s]
	Time per residual norm calculation: 290.000000 [mu s]
	Time per iteration and DOF: 0.061037 [ns]
	Retrieve results bandwidth 2.921000 [GByte/s]
[OGL LOG][Proc: 0]p: solve_multi_gpu: 3838.73 [ms]
BJhipGKOCG:  Solving for p, Initial residual = 0.817874, Final residual = 8.91288e-05, No Iterations 2302
[INFO] SolveP: 3898.51 [ms]
time step continuity errors : sum local = 1.00673e-08, global = 3.64937e-22, cumulative = 9.35242e-21
[INFO] ContinuityError: 46.655 [ms]
[INFO] CorrectBoundary: 2.677 [ms]
[INFO] PISOStep: 4521.25 [ms]
[INFO] TimeStep: 12350.7 [ms]
ExecutionTime = 107.82 s  ClockTime = 97 s

Time = 0.001494

Courant Number mean: 0.036702 max: 0.517999
[INFO] MatrixAssemblyU: 262.862 [ms]
DILUPBiCGStab:  Solving for Ux, Initial residual = 0.020546, Final residual = 0.00171313, No Iterations 5
DILUPBiCGStab:  Solving for Uy, Initial residual = 0.0819318, Final residual = 0.0061119, No Iterations 5
DILUPBiCGStab:  Solving for Uz, Initial residual = 0.505826, Final residual = 0.0192039, No Iterations 5
[INFO] MomentumPredictor: 2961.43 [ms]
[INFO] MatrixAssemblyPI: 343.099 [ms]
[INFO] AdjustPhi: 21.479 [ms]
[INFO] ConstrainPressure: 0.004 [ms]
[INFO] MatrixAssemblyPII: 98.134 [ms]
[OGL LOG][Proc: 0]: global_index_init: 0.364 [ms]
[OGL LOG][Proc: 0]p_local_coeffs: call_update: 0 [ms]
[OGL LOG][Proc: 0]p_non_local_coeffs: call_update: 0 [ms]
[OGL LOG][Proc: 0]p: update_local_matrix_data: 49.964 [ms]
[OGL LOG][Proc: 0]p: update_non_local_matrix_data: 0.253 [ms]
[OGL LOG][Proc: 0]p_matrix: call_update: 22.559 [ms]
[OGL LOG][Proc: 0]p_rhs: call_update: 6.009 [ms]
[OGL LOG][Preconditioner.H:121] Generate preconditioner BJ MaxBlockSize 1
[OGL LOG][Proc: 0]p: init_precond: 1.147 [ms]
[OGL LOG][StoppingCriterion.H:372] Creating stopping criterion with minIter 1381 frequency 13
[OGL LOG][Proc: 0]p: generate_solver: 0.002 [ms]
[OGL LOG][Proc: 0]p: solve: 3470.82 [ms]
[OGL LOG][Proc: 0]p: copy_x_back: 9.465 [ms]
[OGL LOG][lduLduBase.H:339] 
Statistics:
	Time per iteration: 1667 [mu s]
	Time per residual norm calculation: 330.000000 [mu s]
	Time per iteration and DOF: 0.061741 [ns]
	Retrieve results bandwidth 2.852000 [GByte/s]
[OGL LOG][Proc: 0]p: solve_multi_gpu: 3511.46 [ms]
BJhipGKOCG:  Solving for p, Initial residual = 0.901642, Final residual = 8.87483e-05, No Iterations 2081
[INFO] SolveP: 3572.24 [ms]
time step continuity errors : sum local = 9.68544e-09, global = 1.07289e-21, cumulative = 1.04253e-20
[INFO] ContinuityError: 47.064 [ms]
[INFO] CorrectBoundary: 1.503 [ms]
[INFO] PISOStep: 4195.81 [ms]
[INFO] MatrixAssemblyPI: 338.481 [ms]
[INFO] AdjustPhi: 17.965 [ms]
[INFO] ConstrainPressure: 0.004 [ms]
[INFO] MatrixAssemblyPII: 101.435 [ms]
[OGL LOG][Proc: 0]: global_index_init: 0.033 [ms]
[OGL LOG][Proc: 0]p_local_coeffs: call_update: 0 [ms]
[OGL LOG][Proc: 0]p_non_local_coeffs: call_update: 0 [ms]
[OGL LOG][Proc: 0]p: update_local_matrix_data: 48.058 [ms]
[OGL LOG][Proc: 0]p: update_non_local_matrix_data: 0.239 [ms]
[OGL LOG][Proc: 0]p_matrix: call_update: 25.61 [ms]
[OGL LOG][Proc: 0]p_rhs: call_update: 6.024 [ms]
[OGL LOG][Preconditioner.H:121] Generate preconditioner BJ MaxBlockSize 1
[OGL LOG][Proc: 0]p: init_precond: 1.317 [ms]
[OGL LOG][StoppingCriterion.H:372] Creating stopping criterion with minIter 1248 frequency 12
[OGL LOG][Proc: 0]p: generate_solver: 0.003 [ms]
[OGL LOG][Proc: 0]p: solve: 3433.57 [ms]
[OGL LOG][Proc: 0]p: copy_x_back: 9.55 [ms]
[OGL LOG][lduLduBase.H:339] 
Statistics:
	Time per iteration: 1653 [mu s]
	Time per residual norm calculation: 325.000000 [mu s]
	Time per iteration and DOF: 0.061222 [ns]
	Retrieve results bandwidth 2.827000 [GByte/s]
[OGL LOG][Proc: 0]p: solve_multi_gpu: 3477.62 [ms]
BJhipGKOCG:  Solving for p, Initial residual = 0.851756, Final residual = 8.62956e-05, No Iterations 2077
[INFO] SolveP: 3536.37 [ms]
time step continuity errors : sum local = 9.32541e-09, global = 5.96103e-22, cumulative = 1.10214e-20
[INFO] ContinuityError: 47.549 [ms]
[INFO] CorrectBoundary: 2.236 [ms]
[INFO] PISOStep: 4159.2 [ms]
[INFO] TimeStep: 11623.7 [ms]
ExecutionTime = 121.02 s  ClockTime = 108 s

Time = 0.00166

Courant Number mean: 0.0383957 max: 0.483672
[INFO] MatrixAssemblyU: 265.609 [ms]
DILUPBiCGStab:  Solving for Ux, Initial residual = 0.0193497, Final residual = 0.00162873, No Iterations 5
DILUPBiCGStab:  Solving for Uy, Initial residual = 0.0736065, Final residual = 0.00529558, No Iterations 5
DILUPBiCGStab:  Solving for Uz, Initial residual = 0.48121, Final residual = 0.0176576, No Iterations 5
[INFO] MomentumPredictor: 2953.5 [ms]
[INFO] MatrixAssemblyPI: 343.591 [ms]
[INFO] AdjustPhi: 19.652 [ms]
[INFO] ConstrainPressure: 0.004 [ms]
[INFO] MatrixAssemblyPII: 100.768 [ms]
[OGL LOG][Proc: 0]: global_index_init: 0.112 [ms]
[OGL LOG][Proc: 0]p_local_coeffs: call_update: 0 [ms]
[OGL LOG][Proc: 0]p_non_local_coeffs: call_update: 0 [ms]
[OGL LOG][Proc: 0]p: update_local_matrix_data: 48.134 [ms]
[OGL LOG][Proc: 0]p: update_non_local_matrix_data: 0.249 [ms]
[OGL LOG][Proc: 0]p_matrix: call_update: 23.933 [ms]
[OGL LOG][Proc: 0]p_rhs: call_update: 5.884 [ms]
[OGL LOG][Preconditioner.H:121] Generate preconditioner BJ MaxBlockSize 1
[OGL LOG][Proc: 0]p: init_precond: 1.106 [ms]
[OGL LOG][StoppingCriterion.H:372] Creating stopping criterion with minIter 1246 frequency 12
[OGL LOG][Proc: 0]p: generate_solver: 0.002 [ms]
[OGL LOG][Proc: 0]p: solve: 3784.32 [ms]
[OGL LOG][Proc: 0]p: copy_x_back: 9.577 [ms]
[OGL LOG][lduLduBase.H:339] 
Statistics:
	Time per iteration: 1650 [mu s]
	Time per residual norm calculation: 293.000000 [mu s]
	Time per iteration and DOF: 0.061111 [ns]
	Retrieve results bandwidth 2.819000 [GByte/s]
[OGL LOG][Proc: 0]p: solve_multi_gpu: 3826.41 [ms]
BJhipGKOCG:  Solving for p, Initial residual = 0.882643, Final residual = 9.15357e-05, No Iterations 2293
[INFO] SolveP: 3886.16 [ms]
time step continuity errors : sum local = 1.03104e-08, global = 7.84678e-22, cumulative = 1.18061e-20
[INFO] ContinuityError: 47.096 [ms]
[INFO] CorrectBoundary: 1.061 [ms]
[INFO] PISOStep: 4514.43 [ms]
[INFO] MatrixAssemblyPI: 338.412 [ms]
[INFO] AdjustPhi: 19.106 [ms]
[INFO] ConstrainPressure: 0.004 [ms]
[INFO] MatrixAssemblyPII: 102.093 [ms]
[OGL LOG][Proc: 0]: global_index_init: 0.037 [ms]
[OGL LOG][Proc: 0]p_local_coeffs: call_update: 0 [ms]
[OGL LOG][Proc: 0]p_non_local_coeffs: call_update: 0 [ms]
[OGL LOG][Proc: 0]p: update_local_matrix_data: 48.522 [ms]
[OGL LOG][Proc: 0]p: update_non_local_matrix_data: 0.309 [ms]
[OGL LOG][Proc: 0]p_matrix: call_update: 42.756 [ms]
[OGL LOG][Proc: 0]p_rhs: call_update: 3.303 [ms]
[OGL LOG][Preconditioner.H:121] Generate preconditioner BJ MaxBlockSize 1
[OGL LOG][Proc: 0]p: init_precond: 1.204 [ms]
[OGL LOG][StoppingCriterion.H:372] Creating stopping criterion with minIter 1375 frequency 13
[OGL LOG][Proc: 0]p: generate_solver: 0.002 [ms]
[OGL LOG][Proc: 0]p: solve: 3772.14 [ms]
[OGL LOG][Proc: 0]p: copy_x_back: 9.656 [ms]
[OGL LOG][lduLduBase.H:339] 
Statistics:
	Time per iteration: 1647 [mu s]
	Time per residual norm calculation: 330.000000 [mu s]
	Time per iteration and DOF: 0.061000 [ns]
	Retrieve results bandwidth 2.796000 [GByte/s]
[OGL LOG][Proc: 0]p: solve_multi_gpu: 3830.54 [ms]
BJhipGKOCG:  Solving for p, Initial residual = 0.813515, Final residual = 9.11815e-05, No Iterations 2289
[INFO] SolveP: 3890.06 [ms]
time step continuity errors : sum local = 1.03994e-08, global = 1.5787e-21, cumulative = 1.33848e-20
[INFO] ContinuityError: 48.794 [ms]
[INFO] CorrectBoundary: 1.179 [ms]
[INFO] PISOStep: 4513.93 [ms]
[INFO] TimeStep: 12292 [ms]
ExecutionTime = 135.03 s  ClockTime = 121 s

Time = 0.001826

Courant Number mean: 0.0400177 max: 0.524621
[INFO] MatrixAssemblyU: 262.008 [ms]
DILUPBiCGStab:  Solving for Ux, Initial residual = 0.0181641, Final residual = 0.00152081, No Iterations 5
DILUPBiCGStab:  Solving for Uy, Initial residual = 0.0719803, Final residual = 0.00511566, No Iterations 5
DILUPBiCGStab:  Solving for Uz, Initial residual = 0.485046, Final residual = 0.0171597, No Iterations 5
[INFO] MomentumPredictor: 2969.64 [ms]
[INFO] MatrixAssemblyPI: 343.988 [ms]
[INFO] AdjustPhi: 23.5 [ms]
[INFO] ConstrainPressure: 0.005 [ms]
[INFO] MatrixAssemblyPII: 98.421 [ms]
[OGL LOG][Proc: 0]: global_index_init: 0.152 [ms]
[OGL LOG][Proc: 0]p_local_coeffs: call_update: 0 [ms]
[OGL LOG][Proc: 0]p_non_local_coeffs: call_update: 0 [ms]
[OGL LOG][Proc: 0]p: update_local_matrix_data: 48.149 [ms]
[OGL LOG][Proc: 0]p: update_non_local_matrix_data: 0.246 [ms]
[OGL LOG][Proc: 0]p_matrix: call_update: 26.556 [ms]
[OGL LOG][Proc: 0]p_rhs: call_update: 3.626 [ms]
[OGL LOG][Preconditioner.H:121] Generate preconditioner BJ MaxBlockSize 1
[OGL LOG][Proc: 0]p: init_precond: 1.187 [ms]
[OGL LOG][StoppingCriterion.H:372] Creating stopping criterion with minIter 1373 frequency 15
[OGL LOG][Proc: 0]p: generate_solver: 0.002 [ms]
[OGL LOG][Proc: 0]p: solve: 3672 [ms]
[OGL LOG][Proc: 0]p: copy_x_back: 9.543 [ms]
[OGL LOG][lduLduBase.H:339] 
Statistics:
	Time per iteration: 1653 [mu s]
	Time per residual norm calculation: 330.000000 [mu s]
	Time per iteration and DOF: 0.061222 [ns]
	Retrieve results bandwidth 2.829000 [GByte/s]
[OGL LOG][Proc: 0]p: solve_multi_gpu: 3714.24 [ms]
BJhipGKOCG:  Solving for p, Initial residual = 0.901632, Final residual = 8.94382e-05, No Iterations 2221
[INFO] SolveP: 3772.78 [ms]
time step continuity errors : sum local = 1.00172e-08, global = 5.4264e-22, cumulative = 1.39274e-20
[INFO] ContinuityError: 49.827 [ms]
[INFO] CorrectBoundary: 1.161 [ms]
[INFO] PISOStep: 4404.98 [ms]
[INFO] MatrixAssemblyPI: 341.411 [ms]
[INFO] AdjustPhi: 17.861 [ms]
[INFO] ConstrainPressure: 0.004 [ms]
[INFO] MatrixAssemblyPII: 99.215 [ms]
[OGL LOG][Proc: 0]: global_index_init: 0.077 [ms]
[OGL LOG][Proc: 0]p_local_coeffs: call_update: 0 [ms]
[OGL LOG][Proc: 0]p_non_local_coeffs: call_update: 0 [ms]
[OGL LOG][Proc: 0]p: update_local_matrix_data: 47.965 [ms]
[OGL LOG][Proc: 0]p: update_non_local_matrix_data: 0.243 [ms]
[OGL LOG][Proc: 0]p_matrix: call_update: 26.252 [ms]
[OGL LOG][Proc: 0]p_rhs: call_update: 6.059 [ms]
[OGL LOG][Preconditioner.H:121] Generate preconditioner BJ MaxBlockSize 1
[OGL LOG][Proc: 0]p: init_precond: 1.198 [ms]
[OGL LOG][StoppingCriterion.H:372] Creating stopping criterion with minIter 1332 frequency 13
[OGL LOG][Proc: 0]p: generate_solver: 0.002 [ms]
[OGL LOG][Proc: 0]p: solve: 3703.79 [ms]
[OGL LOG][Proc: 0]p: copy_x_back: 9.569 [ms]
[OGL LOG][lduLduBase.H:339] 
Statistics:
	Time per iteration: 1665 [mu s]
	Time per residual norm calculation: 332.000000 [mu s]
	Time per iteration and DOF: 0.061667 [ns]
	Retrieve results bandwidth 2.821000 [GByte/s]
[OGL LOG][Proc: 0]p: solve_multi_gpu: 3748.26 [ms]
BJhipGKOCG:  Solving for p, Initial residual = 0.847154, Final residual = 9.90425e-05, No Iterations 2224
[INFO] SolveP: 3806.97 [ms]
time step continuity errors : sum local = 1.09997e-08, global = 1.42478e-22, cumulative = 1.40699e-20
[INFO] ContinuityError: 46.305 [ms]
[INFO] CorrectBoundary: 0.922 [ms]
[INFO] PISOStep: 4428.83 [ms]
[INFO] TimeStep: 12109.6 [ms]
ExecutionTime = 148.9 s  ClockTime = 133 s

Time = 0.001992

Courant Number mean: 0.041449 max: 0.486752
[INFO] MatrixAssemblyU: 263.515 [ms]
DILUPBiCGStab:  Solving for Ux, Initial residual = 0.0175766, Final residual = 0.00146998, No Iterations 5
DILUPBiCGStab:  Solving for Uy, Initial residual = 0.0655088, Final residual = 0.00449804, No Iterations 5
DILUPBiCGStab:  Solving for Uz, Initial residual = 0.471633, Final residual = 0.0167636, No Iterations 5
[INFO] MomentumPredictor: 2961.06 [ms]
[INFO] MatrixAssemblyPI: 345.416 [ms]
[INFO] AdjustPhi: 20.234 [ms]
[INFO] ConstrainPressure: 0.004 [ms]
[INFO] MatrixAssemblyPII: 98.237 [ms]
[OGL LOG][Proc: 0]: global_index_init: 0.213 [ms]
[OGL LOG][Proc: 0]p_local_coeffs: call_update: 0 [ms]
[OGL LOG][Proc: 0]p_non_local_coeffs: call_update: 0 [ms]
[OGL LOG][Proc: 0]p: update_local_matrix_data: 50.364 [ms]
[OGL LOG][Proc: 0]p: update_non_local_matrix_data: 0.244 [ms]
[OGL LOG][Proc: 0]p_matrix: call_update: 22.896 [ms]
[OGL LOG][Proc: 0]p_rhs: call_update: 5.167 [ms]
[OGL LOG][Preconditioner.H:121] Generate preconditioner BJ MaxBlockSize 1
[OGL LOG][Proc: 0]p: init_precond: 1.148 [ms]
[OGL LOG][StoppingCriterion.H:372] Creating stopping criterion with minIter 1334 frequency 13
[OGL LOG][Proc: 0]p: generate_solver: 0.001 [ms]
[OGL LOG][Proc: 0]p: solve: 3781.74 [ms]
[OGL LOG][Proc: 0]p: copy_x_back: 9.599 [ms]
[OGL LOG][lduLduBase.H:339] 
Statistics:
	Time per iteration: 1652 [mu s]
	Time per residual norm calculation: 324.000000 [mu s]
	Time per iteration and DOF: 0.061185 [ns]
	Retrieve results bandwidth 2.812000 [GByte/s]
[OGL LOG][Proc: 0]p: solve_multi_gpu: 3822.05 [ms]
BJhipGKOCG:  Solving for p, Initial residual = 0.884129, Final residual = 9.22024e-05, No Iterations 2289
[INFO] SolveP: 3882.89 [ms]
time step continuity errors : sum local = 1.07333e-08, global = 7.45166e-22, cumulative = 1.48151e-20
[INFO] ContinuityError: 47.398 [ms]
[INFO] CorrectBoundary: 0.956 [ms]
[INFO] PISOStep: 4510.63 [ms]
[INFO] MatrixAssemblyPI: 337.978 [ms]
[INFO] AdjustPhi: 19.512 [ms]
[INFO] ConstrainPressure: 0.004 [ms]
[INFO] MatrixAssemblyPII: 101.557 [ms]
[OGL LOG][Proc: 0]: global_index_init: 0.037 [ms]
[OGL LOG][Proc: 0]p_local_coeffs: call_update: 0 [ms]
[OGL LOG][Proc: 0]p_non_local_coeffs: call_update: 0 [ms]
[OGL LOG][Proc: 0]p: update_local_matrix_data: 50.841 [ms]
[OGL LOG][Proc: 0]p: update_non_local_matrix_data: 0.233 [ms]
[OGL LOG][Proc: 0]p_matrix: call_update: 23.634 [ms]
[OGL LOG][Proc: 0]p_rhs: call_update: 7.025 [ms]
[OGL LOG][Preconditioner.H:121] Generate preconditioner BJ MaxBlockSize 1
[OGL LOG][Proc: 0]p: init_precond: 1.121 [ms]
[OGL LOG][StoppingCriterion.H:372] Creating stopping criterion with minIter 1373 frequency 13
[OGL LOG][Proc: 0]p: generate_solver: 0.001 [ms]
[OGL LOG][Proc: 0]p: solve: 3779.16 [ms]
[OGL LOG][Proc: 0]p: copy_x_back: 9.758 [ms]
[OGL LOG][lduLduBase.H:339] 
Statistics:
	Time per iteration: 1651 [mu s]
	Time per residual norm calculation: 296.000000 [mu s]
	Time per iteration and DOF: 0.061148 [ns]
	Retrieve results bandwidth 2.766000 [GByte/s]
[OGL LOG][Proc: 0]p: solve_multi_gpu: 3822.09 [ms]
BJhipGKOCG:  Solving for p, Initial residual = 0.813593, Final residual = 8.38749e-05, No Iterations 2289
[INFO] SolveP: 3883.43 [ms]
time step continuity errors : sum local = 9.87287e-09, global = -5.38254e-22, cumulative = 1.42768e-20
[INFO] ContinuityError: 46.645 [ms]
[INFO] CorrectBoundary: 1.563 [ms]
[INFO] PISOStep: 4504.57 [ms]
[INFO] TimeStep: 12284.4 [ms]
ExecutionTime = 162.97 s  ClockTime = 145 s

Time = 0.002158

Courant Number mean: 0.0428474 max: 0.532247
[INFO] MatrixAssemblyU: 262.599 [ms]
DILUPBiCGStab:  Solving for Ux, Initial residual = 0.0166373, Final residual = 0.00136886, No Iterations 5
DILUPBiCGStab:  Solving for Uy, Initial residual = 0.0655568, Final residual = 0.00442745, No Iterations 5
DILUPBiCGStab:  Solving for Uz, Initial residual = 0.47919, Final residual = 0.0162873, No Iterations 5
[INFO] MomentumPredictor: 2969.96 [ms]
[INFO] MatrixAssemblyPI: 347.326 [ms]
[INFO] AdjustPhi: 17.907 [ms]
[INFO] ConstrainPressure: 0.004 [ms]
[INFO] MatrixAssemblyPII: 98.463 [ms]
[OGL LOG][Proc: 0]: global_index_init: 0.162 [ms]
[OGL LOG][Proc: 0]p_local_coeffs: call_update: 0 [ms]
[OGL LOG][Proc: 0]p_non_local_coeffs: call_update: 0 [ms]
[OGL LOG][Proc: 0]p: update_local_matrix_data: 48.789 [ms]
[OGL LOG][Proc: 0]p: update_non_local_matrix_data: 0.231 [ms]
[OGL LOG][Proc: 0]p_matrix: call_update: 37.492 [ms]
[OGL LOG][Proc: 0]p_rhs: call_update: 5.85 [ms]
[OGL LOG][Preconditioner.H:121] Generate preconditioner BJ MaxBlockSize 1
[OGL LOG][Proc: 0]p: init_precond: 1.193 [ms]
[OGL LOG][StoppingCriterion.H:372] Creating stopping criterion with minIter 1373 frequency 13
[OGL LOG][Proc: 0]p: generate_solver: 0.002 [ms]
[OGL LOG][Proc: 0]p: solve: 3788.03 [ms]
[OGL LOG][Proc: 0]p: copy_x_back: 9.329 [ms]
[OGL LOG][lduLduBase.H:339] 
Statistics:
	Time per iteration: 1654 [mu s]
	Time per residual norm calculation: 328.000000 [mu s]
	Time per iteration and DOF: 0.061259 [ns]
	Retrieve results bandwidth 2.894000 [GByte/s]
[OGL LOG][Proc: 0]p: solve_multi_gpu: 3843.53 [ms]
BJhipGKOCG:  Solving for p, Initial residual = 0.902364, Final residual = 8.47072e-05, No Iterations 2289
[INFO] SolveP: 3903.08 [ms]
time step continuity errors : sum local = 9.86153e-09, global = 5.90617e-22, cumulative = 1.48674e-20
[INFO] ContinuityError: 47.115 [ms]
[INFO] CorrectBoundary: 1.315 [ms]
[INFO] PISOStep: 4530.99 [ms]
[INFO] MatrixAssemblyPI: 339.83 [ms]
[INFO] AdjustPhi: 17.897 [ms]
[INFO] ConstrainPressure: 0.004 [ms]
[INFO] MatrixAssemblyPII: 99.108 [ms]
[OGL LOG][Proc: 0]: global_index_init: 0.036 [ms]
[OGL LOG][Proc: 0]p_local_coeffs: call_update: 0 [ms]
[OGL LOG][Proc: 0]p_non_local_coeffs: call_update: 0 [ms]
[OGL LOG][Proc: 0]p: update_local_matrix_data: 47.988 [ms]
[OGL LOG][Proc: 0]p: update_non_local_matrix_data: 0.226 [ms]
[OGL LOG][Proc: 0]p_matrix: call_update: 27.524 [ms]
[OGL LOG][Proc: 0]p_rhs: call_update: 5.53 [ms]
[OGL LOG][Preconditioner.H:121] Generate preconditioner BJ MaxBlockSize 1
[OGL LOG][Proc: 0]p: init_precond: 1.106 [ms]
[OGL LOG][StoppingCriterion.H:372] Creating stopping criterion with minIter 1373 frequency 13
[OGL LOG][Proc: 0]p: generate_solver: 0.002 [ms]
[OGL LOG][Proc: 0]p: solve: 3772.63 [ms]
[OGL LOG][Proc: 0]p: copy_x_back: 9.591 [ms]
[OGL LOG][lduLduBase.H:339] 
Statistics:
	Time per iteration: 1648 [mu s]
	Time per residual norm calculation: 316.000000 [mu s]
	Time per iteration and DOF: 0.061037 [ns]
	Retrieve results bandwidth 2.815000 [GByte/s]
[OGL LOG][Proc: 0]p: solve_multi_gpu: 3817.71 [ms]
BJhipGKOCG:  Solving for p, Initial residual = 0.844266, Final residual = 7.85923e-05, No Iterations 2289
[INFO] SolveP: 3876.36 [ms]
time step continuity errors : sum local = 9.08559e-09, global = -4.42522e-22, cumulative = 1.44249e-20
[INFO] ContinuityError: 46.721 [ms]
[INFO] CorrectBoundary: 1.791 [ms]
[INFO] PISOStep: 4495.07 [ms]
[INFO] TimeStep: 12302.7 [ms]
ExecutionTime = 176.94 s  ClockTime = 157 s

Time = 0.002324

Courant Number mean: 0.0440891 max: 0.489795
[INFO] MatrixAssemblyU: 264.923 [ms]
DILUPBiCGStab:  Solving for Ux, Initial residual = 0.0164083, Final residual = 0.00134472, No Iterations 5
DILUPBiCGStab:  Solving for Uy, Initial residual = 0.0604234, Final residual = 0.00392982, No Iterations 5
DILUPBiCGStab:  Solving for Uz, Initial residual = 0.469693, Final residual = 0.0158366, No Iterations 5
[INFO] MomentumPredictor: 2958.15 [ms]
[INFO] MatrixAssemblyPI: 344.122 [ms]
[INFO] AdjustPhi: 19.815 [ms]
[INFO] ConstrainPressure: 0.004 [ms]
[INFO] MatrixAssemblyPII: 101.234 [ms]
[OGL LOG][Proc: 0]: global_index_init: 0.197 [ms]
[OGL LOG][Proc: 0]p_local_coeffs: call_update: 0 [ms]
[OGL LOG][Proc: 0]p_non_local_coeffs: call_update: 0 [ms]
[OGL LOG][Proc: 0]p: update_local_matrix_data: 50.646 [ms]
[OGL LOG][Proc: 0]p: update_non_local_matrix_data: 0.26 [ms]
[OGL LOG][Proc: 0]p_matrix: call_update: 23.784 [ms]
[OGL LOG][Proc: 0]p_rhs: call_update: 4.57 [ms]
[OGL LOG][Preconditioner.H:121] Generate preconditioner BJ MaxBlockSize 1
[OGL LOG][Proc: 0]p: init_precond: 1.159 [ms]
[OGL LOG][StoppingCriterion.H:372] Creating stopping criterion with minIter 1373 frequency 13
[OGL LOG][Proc: 0]p: generate_solver: 0.003 [ms]
[OGL LOG][Proc: 0]p: solve: 3791.59 [ms]
[OGL LOG][Proc: 0]p: copy_x_back: 9.365 [ms]
[OGL LOG][lduLduBase.H:339] 
Statistics:
	Time per iteration: 1656 [mu s]
	Time per residual norm calculation: 315.000000 [mu s]
	Time per iteration and DOF: 0.061333 [ns]
	Retrieve results bandwidth 2.883000 [GByte/s]
[OGL LOG][Proc: 0]p: solve_multi_gpu: 3834.43 [ms]
BJhipGKOCG:  Solving for p, Initial residual = 0.88648, Final residual = 9.0003e-05, No Iterations 2289
[INFO] SolveP: 3895.75 [ms]
time step continuity errors : sum local = 1.09073e-08, global = -1.3215e-22, cumulative = 1.42928e-20
[INFO] ContinuityError: 48.967 [ms]
[INFO] CorrectBoundary: 1.298 [ms]
[INFO] PISOStep: 4524.58 [ms]
[INFO] MatrixAssemblyPI: 339.707 [ms]
[INFO] AdjustPhi: 18.824 [ms]
[INFO] ConstrainPressure: 0.004 [ms]
[INFO] MatrixAssemblyPII: 102.485 [ms]
[OGL LOG][Proc: 0]: global_index_init: 0.036 [ms]
[OGL LOG][Proc: 0]p_local_coeffs: call_update: 0 [ms]
[OGL LOG][Proc: 0]p_non_local_coeffs: call_update: 0 [ms]
[OGL LOG][Proc: 0]p: update_local_matrix_data: 47.991 [ms]
[OGL LOG][Proc: 0]p: update_non_local_matrix_data: 0.23 [ms]
[OGL LOG][Proc: 0]p_matrix: call_update: 25.566 [ms]
[OGL LOG][Proc: 0]p_rhs: call_update: 4.927 [ms]
[OGL LOG][Preconditioner.H:121] Generate preconditioner BJ MaxBlockSize 1
[OGL LOG][Proc: 0]p: init_precond: 1.252 [ms]
[OGL LOG][StoppingCriterion.H:372] Creating stopping criterion with minIter 1373 frequency 13
[OGL LOG][Proc: 0]p: generate_solver: 0.002 [ms]
[OGL LOG][Proc: 0]p: solve: 3790.18 [ms]
[OGL LOG][Proc: 0]p: copy_x_back: 9.565 [ms]
[OGL LOG][lduLduBase.H:339] 
Statistics:
	Time per iteration: 1655 [mu s]
	Time per residual norm calculation: 285.000000 [mu s]
	Time per iteration and DOF: 0.061296 [ns]
	Retrieve results bandwidth 2.822000 [GByte/s]
[OGL LOG][Proc: 0]p: solve_multi_gpu: 3833.01 [ms]
BJhipGKOCG:  Solving for p, Initial residual = 0.81477, Final residual = 8.28076e-05, No Iterations 2289
[INFO] SolveP: 3891.52 [ms]
time step continuity errors : sum local = 1.01333e-08, global = 1.28832e-21, cumulative = 1.55811e-20
[INFO] ContinuityError: 47.796 [ms]
[INFO] CorrectBoundary: 0.91 [ms]
[INFO] PISOStep: 4515.3 [ms]
[INFO] TimeStep: 12307.2 [ms]
ExecutionTime = 190.89 s  ClockTime = 170 s

Time = 0.00249

Courant Number mean: 0.0453247 max: 0.540991
[INFO] MatrixAssemblyU: 262.647 [ms]
DILUPBiCGStab:  Solving for Ux, Initial residual = 0.0156549, Final residual = 0.0012466, No Iterations 5
DILUPBiCGStab:  Solving for Uy, Initial residual = 0.0613076, Final residual = 0.00392732, No Iterations 5
DILUPBiCGStab:  Solving for Uz, Initial residual = 0.479879, Final residual = 0.0157072, No Iterations 5
[INFO] MomentumPredictor: 2966.08 [ms]
[INFO] MatrixAssemblyPI: 347.402 [ms]
[INFO] AdjustPhi: 18.526 [ms]
[INFO] ConstrainPressure: 0.004 [ms]
[INFO] MatrixAssemblyPII: 98.3 [ms]
[OGL LOG][Proc: 0]: global_index_init: 0.255 [ms]
[OGL LOG][Proc: 0]p_local_coeffs: call_update: 0 [ms]
[OGL LOG][Proc: 0]p_non_local_coeffs: call_update: 0 [ms]
[OGL LOG][Proc: 0]p: update_local_matrix_data: 51.783 [ms]
[OGL LOG][Proc: 0]p: update_non_local_matrix_data: 0.232 [ms]
[OGL LOG][Proc: 0]p_matrix: call_update: 24.301 [ms]
[OGL LOG][Proc: 0]p_rhs: call_update: 4.81 [ms]
[OGL LOG][Preconditioner.H:121] Generate preconditioner BJ MaxBlockSize 1
[OGL LOG][Proc: 0]p: init_precond: 1.178 [ms]
[OGL LOG][StoppingCriterion.H:372] Creating stopping criterion with minIter 1373 frequency 13
[OGL LOG][Proc: 0]p: generate_solver: 0.002 [ms]
[OGL LOG][Proc: 0]p: solve: 3786.51 [ms]
[OGL LOG][Proc: 0]p: copy_x_back: 9.594 [ms]
[OGL LOG][lduLduBase.H:339] 
Statistics:
	Time per iteration: 1654 [mu s]
	Time per residual norm calculation: 320.000000 [mu s]
	Time per iteration and DOF: 0.061259 [ns]
	Retrieve results bandwidth 2.814000 [GByte/s]
[OGL LOG][Proc: 0]p: solve_multi_gpu: 3827.73 [ms]
BJhipGKOCG:  Solving for p, Initial residual = 0.903186, Final residual = 8.58988e-05, No Iterations 2289
[INFO] SolveP: 3889.96 [ms]
time step continuity errors : sum local = 1.0449e-08, global = 1.3902e-21, cumulative = 1.69713e-20
[INFO] ContinuityError: 47.48 [ms]
[INFO] CorrectBoundary: 1.019 [ms]
[INFO] PISOStep: 4519.81 [ms]
[INFO] MatrixAssemblyPI: 337.342 [ms]
[INFO] AdjustPhi: 18.785 [ms]
[INFO] ConstrainPressure: 0.004 [ms]
[INFO] MatrixAssemblyPII: 99.008 [ms]
[OGL LOG][Proc: 0]: global_index_init: 0.034 [ms]
[OGL LOG][Proc: 0]p_local_coeffs: call_update: 0 [ms]
[OGL LOG][Proc: 0]p_non_local_coeffs: call_update: 0 [ms]
[OGL LOG][Proc: 0]p: update_local_matrix_data: 48.491 [ms]
[OGL LOG][Proc: 0]p: update_non_local_matrix_data: 0.226 [ms]
[OGL LOG][Proc: 0]p_matrix: call_update: 29.911 [ms]
[OGL LOG][Proc: 0]p_rhs: call_update: 6.247 [ms]
[OGL LOG][Preconditioner.H:121] Generate preconditioner BJ MaxBlockSize 1
[OGL LOG][Proc: 0]p: init_precond: 1.306 [ms]
[OGL LOG][StoppingCriterion.H:372] Creating stopping criterion with minIter 1373 frequency 13
[OGL LOG][Proc: 0]p: generate_solver: 0.002 [ms]
[OGL LOG][Proc: 0]p: solve: 3801.09 [ms]
[OGL LOG][Proc: 0]p: copy_x_back: 9.506 [ms]
[OGL LOG][lduLduBase.H:339] 
Statistics:
	Time per iteration: 1660 [mu s]
	Time per residual norm calculation: 299.000000 [mu s]
	Time per iteration and DOF: 0.061481 [ns]
	Retrieve results bandwidth 2.840000 [GByte/s]
[OGL LOG][Proc: 0]p: solve_multi_gpu: 3849.61 [ms]
BJhipGKOCG:  Solving for p, Initial residual = 0.842097, Final residual = 8.03278e-05, No Iterations 2289
[INFO] SolveP: 3908.65 [ms]
time step continuity errors : sum local = 9.71614e-09, global = -2.18541e-22, cumulative = 1.67527e-20
[INFO] ContinuityError: 46.891 [ms]
[INFO] CorrectBoundary: 1.555 [ms]
[INFO] PISOStep: 4528.37 [ms]
[INFO] TimeStep: 12321.4 [ms]
ExecutionTime = 204.92 s  ClockTime = 182 s

Time = 0.002656

Courant Number mean: 0.0464224 max: 0.492864
[INFO] MatrixAssemblyU: 262.087 [ms]
DILUPBiCGStab:  Solving for Ux, Initial residual = 0.0156454, Final residual = 0.0012417, No Iterations 5
DILUPBiCGStab:  Solving for Uy, Initial residual = 0.0572716, Final residual = 0.00351454, No Iterations 5
DILUPBiCGStab:  Solving for Uz, Initial residual = 0.474041, Final residual = 0.0154122, No Iterations 5
[INFO] MomentumPredictor: 2966.7 [ms]
[INFO] MatrixAssemblyPI: 347.254 [ms]
[INFO] AdjustPhi: 17.951 [ms]
[INFO] ConstrainPressure: 0.004 [ms]
[INFO] MatrixAssemblyPII: 98.253 [ms]
[OGL LOG][Proc: 0]: global_index_init: 0.14 [ms]
[OGL LOG][Proc: 0]p_local_coeffs: call_update: 0 [ms]
[OGL LOG][Proc: 0]p_non_local_coeffs: call_update: 0 [ms]
[OGL LOG][Proc: 0]p: update_local_matrix_data: 48.308 [ms]
[OGL LOG][Proc: 0]p: update_non_local_matrix_data: 0.238 [ms]
[OGL LOG][Proc: 0]p_matrix: call_update: 24.603 [ms]
[OGL LOG][Proc: 0]p_rhs: call_update: 5.473 [ms]
[OGL LOG][Preconditioner.H:121] Generate preconditioner BJ MaxBlockSize 1
[OGL LOG][Proc: 0]p: init_precond: 1.315 [ms]
[OGL LOG][StoppingCriterion.H:372] Creating stopping criterion with minIter 1373 frequency 13
[OGL LOG][Proc: 0]p: generate_solver: 0.002 [ms]
[OGL LOG][Proc: 0]p: solve: 3773.37 [ms]
[OGL LOG][Proc: 0]p: copy_x_back: 9.561 [ms]
[OGL LOG][lduLduBase.H:339] 
Statistics:
	Time per iteration: 1648 [mu s]
	Time per residual norm calculation: 333.000000 [mu s]
	Time per iteration and DOF: 0.061037 [ns]
	Retrieve results bandwidth 2.823000 [GByte/s]
[OGL LOG][Proc: 0]p: solve_multi_gpu: 3815.99 [ms]
BJhipGKOCG:  Solving for p, Initial residual = 0.889478, Final residual = 8.97534e-05, No Iterations 2289
[INFO] SolveP: 3874.76 [ms]
time step continuity errors : sum local = 1.13575e-08, global = 2.54465e-22, cumulative = 1.70072e-20
[INFO] ContinuityError: 46.094 [ms]
[INFO] CorrectBoundary: 1.201 [ms]
[INFO] PISOStep: 4502.65 [ms]
[INFO] MatrixAssemblyPI: 336.051 [ms]
[INFO] AdjustPhi: 18.773 [ms]
[INFO] ConstrainPressure: 0.004 [ms]
[INFO] MatrixAssemblyPII: 98.942 [ms]
[OGL LOG][Proc: 0]: global_index_init: 0.048 [ms]
[OGL LOG][Proc: 0]p_local_coeffs: call_update: 0 [ms]
[OGL LOG][Proc: 0]p_non_local_coeffs: call_update: 0 [ms]
[OGL LOG][Proc: 0]p: update_local_matrix_data: 48.032 [ms]
[OGL LOG][Proc: 0]p: update_non_local_matrix_data: 0.262 [ms]
[OGL LOG][Proc: 0]p_matrix: call_update: 26.966 [ms]
[OGL LOG][Proc: 0]p_rhs: call_update: 4.628 [ms]
[OGL LOG][Preconditioner.H:121] Generate preconditioner BJ MaxBlockSize 1
[OGL LOG][Proc: 0]p: init_precond: 1.154 [ms]
[OGL LOG][StoppingCriterion.H:372] Creating stopping criterion with minIter 1373 frequency 15
[OGL LOG][Proc: 0]p: generate_solver: 0.002 [ms]
[OGL LOG][Proc: 0]p: solve: 3798.84 [ms]
[OGL LOG][Proc: 0]p: copy_x_back: 13.243 [ms]
[OGL LOG][lduLduBase.H:339] 
Statistics:
	Time per iteration: 1654 [mu s]
	Time per residual norm calculation: 329.000000 [mu s]
	Time per iteration and DOF: 0.061259 [ns]
	Retrieve results bandwidth 2.038000 [GByte/s]
[OGL LOG][Proc: 0]p: solve_multi_gpu: 3846.06 [ms]
BJhipGKOCG:  Solving for p, Initial residual = 0.816799, Final residual = 7.1993e-05, No Iterations 2296
[INFO] SolveP: 3904.93 [ms]
time step continuity errors : sum local = 9.1874e-09, global = -6.69289e-22, cumulative = 1.63379e-20
[INFO] ContinuityError: 51.391 [ms]
[INFO] CorrectBoundary: 1.191 [ms]
[INFO] PISOStep: 4526.02 [ms]
[INFO] TimeStep: 12301.6 [ms]
ExecutionTime = 218.93 s  ClockTime = 194 s

Time = 0.002822

Courant Number mean: 0.0475331 max: 0.551147
[INFO] MatrixAssemblyU: 264.393 [ms]
DILUPBiCGStab:  Solving for Ux, Initial residual = 0.0150639, Final residual = 0.00114893, No Iterations 5
DILUPBiCGStab:  Solving for Uy, Initial residual = 0.0586035, Final residual = 0.00355354, No Iterations 5
DILUPBiCGStab:  Solving for Uz, Initial residual = 0.485196, Final residual = 0.0153942, No Iterations 5
[INFO] MomentumPredictor: 2968.18 [ms]
[INFO] MatrixAssemblyPI: 346.414 [ms]
[INFO] AdjustPhi: 21.753 [ms]
[INFO] ConstrainPressure: 0.004 [ms]
[INFO] MatrixAssemblyPII: 99.159 [ms]
[OGL LOG][Proc: 0]: global_index_init: 0.128 [ms]
[OGL LOG][Proc: 0]p_local_coeffs: call_update: 0 [ms]
[OGL LOG][Proc: 0]p_non_local_coeffs: call_update: 0 [ms]
[OGL LOG][Proc: 0]p: update_local_matrix_data: 51.014 [ms]
[OGL LOG][Proc: 0]p: update_non_local_matrix_data: 0.246 [ms]
[OGL LOG][Proc: 0]p_matrix: call_update: 26.203 [ms]
[OGL LOG][Proc: 0]p_rhs: call_update: 3.059 [ms]
[OGL LOG][Preconditioner.H:121] Generate preconditioner BJ MaxBlockSize 1
[OGL LOG][Proc: 0]p: init_precond: 1.129 [ms]
[OGL LOG][StoppingCriterion.H:372] Creating stopping criterion with minIter 1377 frequency 13
[OGL LOG][Proc: 0]p: generate_solver: 0.002 [ms]
[OGL LOG][Proc: 0]p: solve: 3765.45 [ms]
[OGL LOG][Proc: 0]p: copy_x_back: 9.451 [ms]
[OGL LOG][lduLduBase.H:339] 
Statistics:
	Time per iteration: 1645 [mu s]
	Time per residual norm calculation: 321.000000 [mu s]
	Time per iteration and DOF: 0.060926 [ns]
	Retrieve results bandwidth 2.856000 [GByte/s]
[OGL LOG][Proc: 0]p: solve_multi_gpu: 3806.84 [ms]
BJhipGKOCG:  Solving for p, Initial residual = 0.904722, Final residual = 8.76717e-05, No Iterations 2289
[INFO] SolveP: 3868.43 [ms]
time step continuity errors : sum local = 1.11839e-08, global = 1.29546e-21, cumulative = 1.76334e-20
[INFO] ContinuityError: 48.838 [ms]
[INFO] CorrectBoundary: 1.026 [ms]
[INFO] PISOStep: 4499.69 [ms]
[INFO] MatrixAssemblyPI: 338.587 [ms]
[INFO] AdjustPhi: 18.565 [ms]
[INFO] ConstrainPressure: 0.004 [ms]
[INFO] MatrixAssemblyPII: 99.731 [ms]
[OGL LOG][Proc: 0]: global_index_init: 0.041 [ms]
[OGL LOG][Proc: 0]p_local_coeffs: call_update: 0 [ms]
[OGL LOG][Proc: 0]p_non_local_coeffs: call_update: 0 [ms]
[OGL LOG][Proc: 0]p: update_local_matrix_data: 49.756 [ms]
[OGL LOG][Proc: 0]p: update_non_local_matrix_data: 0.51 [ms]
[OGL LOG][Proc: 0]p_matrix: call_update: 23.09 [ms]
[OGL LOG][Proc: 0]p_rhs: call_update: 6.484 [ms]
[OGL LOG][Preconditioner.H:121] Generate preconditioner BJ MaxBlockSize 1
[OGL LOG][Proc: 0]p: init_precond: 1.1 [ms]
[OGL LOG][StoppingCriterion.H:372] Creating stopping criterion with minIter 1373 frequency 13
[OGL LOG][Proc: 0]p: generate_solver: 0.002 [ms]
[OGL LOG][Proc: 0]p: solve: 3774.86 [ms]
[OGL LOG][Proc: 0]p: copy_x_back: 9.553 [ms]
[OGL LOG][lduLduBase.H:339] 
Statistics:
	Time per iteration: 1649 [mu s]
	Time per residual norm calculation: 325.000000 [mu s]
	Time per iteration and DOF: 0.061074 [ns]
	Retrieve results bandwidth 2.826000 [GByte/s]
[OGL LOG][Proc: 0]p: solve_multi_gpu: 3816.42 [ms]
BJhipGKOCG:  Solving for p, Initial residual = 0.840544, Final residual = 8.14693e-05, No Iterations 2289
[INFO] SolveP: 3877.08 [ms]
time step continuity errors : sum local = 1.03467e-08, global = 2.46342e-22, cumulative = 1.78797e-20
[INFO] ContinuityError: 48.157 [ms]
[INFO] CorrectBoundary: 1.187 [ms]
[INFO] PISOStep: 4496.7 [ms]
[INFO] TimeStep: 12274.1 [ms]
ExecutionTime = 232.9 s  ClockTime = 206 s

Time = 0.002988

Courant Number mean: 0.0485163 max: 0.496213
[INFO] MatrixAssemblyU: 261.447 [ms]
DILUPBiCGStab:  Solving for Ux, Initial residual = 0.0151934, Final residual = 0.001156, No Iterations 5
DILUPBiCGStab:  Solving for Uy, Initial residual = 0.0555188, Final residual = 0.00320609, No Iterations 5
DILUPBiCGStab:  Solving for Uz, Initial residual = 0.48174, Final residual = 0.0152074, No Iterations 5
[INFO] MomentumPredictor: 2980.68 [ms]
[INFO] MatrixAssemblyPI: 347.191 [ms]
[INFO] AdjustPhi: 20.726 [ms]
[INFO] ConstrainPressure: 0.004 [ms]
[INFO] MatrixAssemblyPII: 98.228 [ms]
[OGL LOG][Proc: 0]: global_index_init: 0.257 [ms]
[OGL LOG][Proc: 0]p_local_coeffs: call_update: 0 [ms]
[OGL LOG][Proc: 0]p_non_local_coeffs: call_update: 0 [ms]
[OGL LOG][Proc: 0]p: update_local_matrix_data: 48.18 [ms]
[OGL LOG][Proc: 0]p: update_non_local_matrix_data: 0.241 [ms]
[OGL LOG][Proc: 0]p_matrix: call_update: 26.24 [ms]
[OGL LOG][Proc: 0]p_rhs: call_update: 3.683 [ms]
[OGL LOG][Preconditioner.H:121] Generate preconditioner BJ MaxBlockSize 1
[OGL LOG][Proc: 0]p: init_precond: 1.163 [ms]
[OGL LOG][StoppingCriterion.H:372] Creating stopping criterion with minIter 1373 frequency 13
[OGL LOG][Proc: 0]p: generate_solver: 0.002 [ms]
[OGL LOG][Proc: 0]p: solve: 3832.91 [ms]
[OGL LOG][Proc: 0]p: copy_x_back: 9.529 [ms]
[OGL LOG][lduLduBase.H:339] 
Statistics:
	Time per iteration: 1674 [mu s]
	Time per residual norm calculation: 293.000000 [mu s]
	Time per iteration and DOF: 0.062000 [ns]
	Retrieve results bandwidth 2.833000 [GByte/s]
[OGL LOG][Proc: 0]p: solve_multi_gpu: 3875.05 [ms]
BJhipGKOCG:  Solving for p, Initial residual = 0.894197, Final residual = 9.05531e-05, No Iterations 2289
[INFO] SolveP: 3933.79 [ms]
time step continuity errors : sum local = 1.20145e-08, global = 4.09829e-22, cumulative = 1.82896e-20
[INFO] ContinuityError: 46.29 [ms]
[INFO] CorrectBoundary: 0.912 [ms]
[INFO] PISOStep: 4562.92 [ms]
[INFO] MatrixAssemblyPI: 336.093 [ms]
[INFO] AdjustPhi: 19.773 [ms]
[INFO] ConstrainPressure: 0.004 [ms]
[INFO] MatrixAssemblyPII: 98.965 [ms]
[OGL LOG][Proc: 0]: global_index_init: 0.039 [ms]
[OGL LOG][Proc: 0]p_local_coeffs: call_update: 0 [ms]
[OGL LOG][Proc: 0]p_non_local_coeffs: call_update: 0 [ms]
[OGL LOG][Proc: 0]p: update_local_matrix_data: 48.606 [ms]
[OGL LOG][Proc: 0]p: update_non_local_matrix_data: 0.344 [ms]
[OGL LOG][Proc: 0]p_matrix: call_update: 23.807 [ms]
[OGL LOG][Proc: 0]p_rhs: call_update: 6.368 [ms]
[OGL LOG][Preconditioner.H:121] Generate preconditioner BJ MaxBlockSize 1
[OGL LOG][Proc: 0]p: init_precond: 1.169 [ms]
[OGL LOG][StoppingCriterion.H:372] Creating stopping criterion with minIter 1373 frequency 13
[OGL LOG][Proc: 0]p: generate_solver: 0.002 [ms]
[OGL LOG][Proc: 0]p: solve: 3789.07 [ms]
[OGL LOG][Proc: 0]p: copy_x_back: 10.112 [ms]
[OGL LOG][lduLduBase.H:339] 
Statistics:
	Time per iteration: 1655 [mu s]
	Time per residual norm calculation: 329.000000 [mu s]
	Time per iteration and DOF: 0.061296 [ns]
	Retrieve results bandwidth 2.670000 [GByte/s]
[OGL LOG][Proc: 0]p: solve_multi_gpu: 3831.81 [ms]
BJhipGKOCG:  Solving for p, Initial residual = 0.820078, Final residual = 8.35006e-05, No Iterations 2289
[INFO] SolveP: 3891.31 [ms]
time step continuity errors : sum local = 1.11605e-08, global = 5.96282e-22, cumulative = 1.88858e-20
[INFO] ContinuityError: 46.306 [ms]
[INFO] CorrectBoundary: 0.978 [ms]
[INFO] PISOStep: 4506.97 [ms]
[INFO] TimeStep: 12355.8 [ms]
ExecutionTime = 246.89 s  ClockTime = 219 s

Time = 0.003154

Courant Number mean: 0.0495292 max: 0.56289
[INFO] MatrixAssemblyU: 262.929 [ms]
DILUPBiCGStab:  Solving for Ux, Initial residual = 0.0147857, Final residual = 0.00107209, No Iterations 5
DILUPBiCGStab:  Solving for Uy, Initial residual = 0.0571276, Final residual = 0.00327065, No Iterations 5
DILUPBiCGStab:  Solving for Uz, Initial residual = 0.493339, Final residual = 0.0152584, No Iterations 5
[INFO] MomentumPredictor: 2975.2 [ms]
[INFO] MatrixAssemblyPI: 345.595 [ms]
[INFO] AdjustPhi: 19.466 [ms]
[INFO] ConstrainPressure: 0.004 [ms]
[INFO] MatrixAssemblyPII: 98.423 [ms]
[OGL LOG][Proc: 0]: global_index_init: 0.1 [ms]
[OGL LOG][Proc: 0]p_local_coeffs: call_update: 0 [ms]
[OGL LOG][Proc: 0]p_non_local_coeffs: call_update: 0 [ms]
[OGL LOG][Proc: 0]p: update_local_matrix_data: 48.028 [ms]
[OGL LOG][Proc: 0]p: update_non_local_matrix_data: 0.25 [ms]
[OGL LOG][Proc: 0]p_matrix: call_update: 25.185 [ms]
[OGL LOG][Proc: 0]p_rhs: call_update: 4.3 [ms]
[OGL LOG][Preconditioner.H:121] Generate preconditioner BJ MaxBlockSize 1
[OGL LOG][Proc: 0]p: init_precond: 1.281 [ms]
[OGL LOG][StoppingCriterion.H:372] Creating stopping criterion with minIter 1373 frequency 13
[OGL LOG][Proc: 0]p: generate_solver: 0.002 [ms]
[OGL LOG][Proc: 0]p: solve: 3774.71 [ms]
[OGL LOG][Proc: 0]p: copy_x_back: 9.558 [ms]
[OGL LOG][lduLduBase.H:339] 
Statistics:
	Time per iteration: 1649 [mu s]
	Time per residual norm calculation: 296.000000 [mu s]
	Time per iteration and DOF: 0.061074 [ns]
	Retrieve results bandwidth 2.824000 [GByte/s]
[OGL LOG][Proc: 0]p: solve_multi_gpu: 3816.58 [ms]
BJhipGKOCG:  Solving for p, Initial residual = 0.907468, Final residual = 8.95303e-05, No Iterations 2289
[INFO] SolveP: 3875.01 [ms]
time step continuity errors : sum local = 1.20429e-08, global = 8.31107e-22, cumulative = 1.97169e-20
[INFO] ContinuityError: 46.858 [ms]
[INFO] CorrectBoundary: 1.634 [ms]
[INFO] PISOStep: 4501.5 [ms]
[INFO] MatrixAssemblyPI: 337.384 [ms]
[INFO] AdjustPhi: 18.687 [ms]
[INFO] ConstrainPressure: 0.004 [ms]
[INFO] MatrixAssemblyPII: 99.686 [ms]
[OGL LOG][Proc: 0]: global_index_init: 0.032 [ms]
[OGL LOG][Proc: 0]p_local_coeffs: call_update: 0 [ms]
[OGL LOG][Proc: 0]p_non_local_coeffs: call_update: 0 [ms]
[OGL LOG][Proc: 0]p: update_local_matrix_data: 47.974 [ms]
[OGL LOG][Proc: 0]p: update_non_local_matrix_data: 0.256 [ms]
[OGL LOG][Proc: 0]p_matrix: call_update: 39.108 [ms]
[OGL LOG][Proc: 0]p_rhs: call_update: 12.106 [ms]
[OGL LOG][Preconditioner.H:121] Generate preconditioner BJ MaxBlockSize 1
[OGL LOG][Proc: 0]p: init_precond: 1.237 [ms]
[OGL LOG][StoppingCriterion.H:372] Creating stopping criterion with minIter 1373 frequency 13
[OGL LOG][Proc: 0]p: generate_solver: 0.002 [ms]
[OGL LOG][Proc: 0]p: solve: 3769.98 [ms]
[OGL LOG][Proc: 0]p: copy_x_back: 9.473 [ms]
[OGL LOG][lduLduBase.H:339] 
Statistics:
	Time per iteration: 1646 [mu s]
	Time per residual norm calculation: 345.000000 [mu s]
	Time per iteration and DOF: 0.060963 [ns]
	Retrieve results bandwidth 2.850000 [GByte/s]
[OGL LOG][Proc: 0]p: solve_multi_gpu: 3833.43 [ms]
BJhipGKOCG:  Solving for p, Initial residual = 0.840466, Final residual = 8.34338e-05, No Iterations 2289
[INFO] SolveP: 3892.03 [ms]
time step continuity errors : sum local = 1.11854e-08, global = 5.67038e-22, cumulative = 2.0284e-20
[INFO] ContinuityError: 47.632 [ms]
[INFO] CorrectBoundary: 1.111 [ms]
[INFO] PISOStep: 4511.76 [ms]
[INFO] TimeStep: 12295.7 [ms]
ExecutionTime = 260.86 s  ClockTime = 231 s

Time = 0.00332

Courant Number mean: 0.050419 max: 0.499823
[INFO] MatrixAssemblyU: 262.881 [ms]
DILUPBiCGStab:  Solving for Ux, Initial residual = 0.0150187, Final residual = 0.00108516, No Iterations 5
DILUPBiCGStab:  Solving for Uy, Initial residual = 0.0548169, Final residual = 0.0029777, No Iterations 5
DILUPBiCGStab:  Solving for Uz, Initial residual = 0.49173, Final residual = 0.015149, No Iterations 5
[INFO] MomentumPredictor: 2975.06 [ms]
[INFO] MatrixAssemblyPI: 345.01 [ms]
[INFO] AdjustPhi: 19.182 [ms]
[INFO] ConstrainPressure: 0.004 [ms]
[INFO] MatrixAssemblyPII: 98.6 [ms]
[OGL LOG][Proc: 0]: global_index_init: 0.254 [ms]
[OGL LOG][Proc: 0]p_local_coeffs: call_update: 0 [ms]
[OGL LOG][Proc: 0]p_non_local_coeffs: call_update: 0 [ms]
[OGL LOG][Proc: 0]p: update_local_matrix_data: 48.196 [ms]
[OGL LOG][Proc: 0]p: update_non_local_matrix_data: 0.244 [ms]
[OGL LOG][Proc: 0]p_matrix: call_update: 27.758 [ms]
[OGL LOG][Proc: 0]p_rhs: call_update: 6.308 [ms]
[OGL LOG][Preconditioner.H:121] Generate preconditioner BJ MaxBlockSize 1
[OGL LOG][Proc: 0]p: init_precond: 1.128 [ms]
[OGL LOG][StoppingCriterion.H:372] Creating stopping criterion with minIter 1373 frequency 15
[OGL LOG][Proc: 0]p: generate_solver: 0.002 [ms]
[OGL LOG][Proc: 0]p: solve: 3767.58 [ms]
[OGL LOG][Proc: 0]p: copy_x_back: 9.586 [ms]
[OGL LOG][lduLduBase.H:339] 
Statistics:
	Time per iteration: 1640 [mu s]
	Time per residual norm calculation: 326.000000 [mu s]
	Time per iteration and DOF: 0.060741 [ns]
	Retrieve results bandwidth 2.816000 [GByte/s]
[OGL LOG][Proc: 0]p: solve_multi_gpu: 3813.87 [ms]
BJhipGKOCG:  Solving for p, Initial residual = 0.899781, Final residual = 7.56795e-05, No Iterations 2296
[INFO] SolveP: 3872.67 [ms]
time step continuity errors : sum local = 1.05797e-08, global = -3.5272e-22, cumulative = 1.99313e-20
[INFO] ContinuityError: 46.34 [ms]
[INFO] CorrectBoundary: 1.284 [ms]
[INFO] PISOStep: 4496.33 [ms]
[INFO] MatrixAssemblyPI: 338.476 [ms]
[INFO] AdjustPhi: 18.167 [ms]
[INFO] ConstrainPressure: 0.004 [ms]
[INFO] MatrixAssemblyPII: 98.664 [ms]
[OGL LOG][Proc: 0]: global_index_init: 0.198 [ms]
[OGL LOG][Proc: 0]p_local_coeffs: call_update: 0 [ms]
[OGL LOG][Proc: 0]p_non_local_coeffs: call_update: 0 [ms]
[OGL LOG][Proc: 0]p: update_local_matrix_data: 48.017 [ms]
[OGL LOG][Proc: 0]p: update_non_local_matrix_data: 0.217 [ms]
[OGL LOG][Proc: 0]p_matrix: call_update: 26.108 [ms]
[OGL LOG][Proc: 0]p_rhs: call_update: 4.577 [ms]
[OGL LOG][Preconditioner.H:121] Generate preconditioner BJ MaxBlockSize 1
[OGL LOG][Proc: 0]p: init_precond: 1.21 [ms]
[OGL LOG][StoppingCriterion.H:372] Creating stopping criterion with minIter 1377 frequency 13
[OGL LOG][Proc: 0]p: generate_solver: 0.002 [ms]
[OGL LOG][Proc: 0]p: solve: 3789.98 [ms]
[OGL LOG][Proc: 0]p: copy_x_back: 9.551 [ms]
[OGL LOG][lduLduBase.H:339] 
Statistics:
	Time per iteration: 1655 [mu s]
	Time per residual norm calculation: 324.000000 [mu s]
	Time per iteration and DOF: 0.061296 [ns]
	Retrieve results bandwidth 2.826000 [GByte/s]
[OGL LOG][Proc: 0]p: solve_multi_gpu: 3832.96 [ms]
BJhipGKOCG:  Solving for p, Initial residual = 0.824749, Final residual = 8.3108e-05, No Iterations 2289
[INFO] SolveP: 3891.67 [ms]
time step continuity errors : sum local = 1.16931e-08, global = -7.48719e-22, cumulative = 1.91825e-20
[INFO] ContinuityError: 47.492 [ms]
[INFO] CorrectBoundary: 1.443 [ms]
[INFO] PISOStep: 4509.88 [ms]
[INFO] TimeStep: 12288.4 [ms]
ExecutionTime = 274.92 s  ClockTime = 243 s

End

Finalising parallel run
