/*---------------------------------------------------------------------------*\
| =========                 |                                                 |
| \\      /  F ield         | OpenFOAM: The Open Source CFD Toolbox           |
|  \\    /   O peration     | Version:  2306                                  |
|   \\  /    A nd           | Website:  www.openfoam.com                      |
|    \\/     M anipulation  |                                                 |
\*---------------------------------------------------------------------------*/
Build  : c423ebec-20231012 OPENFOAM=2306 version=v2306
Arch   : "LSB;label=32;scalar=64"
Exec   : icoFoam -parallel -case /hkfs/work/workspace/scratch/eq4036-l3d_multi/workspace/0c261364ac9727aa3ebaf346cd390e3f/case
Date   : Feb 05 2024
Time   : 08:54:02
Host   : hkn0203.localdomain
PID    : 3483988
I/O    : uncollated
Case   : /hkfs/work/workspace/scratch/eq4036-l3d_multi/workspace/0c261364ac9727aa3ebaf346cd390e3f/case
nProcs : 380
Hosts  :
(
    (hkn0203.localdomain 76)
    (hkn0204.localdomain 76)
    (hkn0205.localdomain 76)
    (hkn0206.localdomain 76)
    (hkn0208.localdomain 76)
)
Pstream initialized with:
    floatTransfer      : false
    nProcsSimpleSum    : 0
    nonBlockingExchange: 0 (tuning: 0)
    exchange algorithm : -1
    commsType          : nonBlocking
    polling iterations : 0
trapFpe: Floating point exception trapping enabled (FOAM_SIGFPE).
fileModificationChecking : Monitoring run-time modified files using timeStampMaster (fileModificationSkew 5, maxFileModificationPolls 20)
allowSystemOperations : Allowing user-supplied system call operations

// * * * * * * * * * * * * * * * * * * * * * * * * * * * * * * * * * * * * * //
Create time

--> FOAM Warning : 
    From void* Foam::dlLibraryTable::openLibrary(const Foam::fileName&, bool)
    in file db/dynamicLibrary/dlLibraryTable/dlLibraryTable.C at line 188
    Could not load "libpetscFoam.so"
libpetscFoam.so: cannot open shared object file: No such file or directory
Create mesh for time = 0


PISO: Operating solver in PISO mode

Reading transportProperties

Reading field p

Reading field U

Reading/calculating face flux field phi


Starting time loop

Time = 0.0001

Courant Number mean: 6.42004e-18 max: 3.88578e-14
[INFO] MatrixAssemblyU: 105.925 [ms]
DILUPBiCGStab:  Solving for Ux, Initial residual = 1, Final residual = 0.0209002, No Iterations 5
DILUPBiCGStab:  Solving for Uy:  solution singularity
DILUPBiCGStab:  Solving for Uz:  solution singularity
[INFO] MomentumPredictor: 335.773 [ms]
[INFO] MatrixAssemblyPI: 100.048 [ms]
[INFO] AdjustPhi: 22.72 [ms]
[INFO] ConstrainPressure: 0.01 [ms]
[INFO] MatrixAssemblyPII: 24.803 [ms]
GAMG:  Solving for p, Initial residual = 1, Final residual = 7.64678e-05, No Iterations 28
[INFO] SolveP: 1669.56 [ms]
time step continuity errors : sum local = 1.66988e-09, global = 2.25948e-21, cumulative = 2.25948e-21
[INFO] ContinuityError: 20.363 [ms]
[INFO] CorrectBoundary: 0.512 [ms]
[INFO] PISOStep: 1873.38 [ms]
[INFO] MatrixAssemblyPI: 93.853 [ms]
[INFO] AdjustPhi: 6.992 [ms]
[INFO] ConstrainPressure: 0.005 [ms]
[INFO] MatrixAssemblyPII: 25.796 [ms]
GAMG:  Solving for p, Initial residual = 0.823331, Final residual = 8.1069e-05, No Iterations 48
[INFO] SolveP: 2432.44 [ms]
time step continuity errors : sum local = 2.11393e-09, global = 3.58839e-22, cumulative = 2.61832e-21
[INFO] ContinuityError: 11.041 [ms]
[INFO] CorrectBoundary: 0.541 [ms]
[INFO] PISOStep: 2606.37 [ms]
[INFO] TimeStep: 4936.66 [ms]
ExecutionTime = 5.83 s  ClockTime = 7 s

Time = 0.0002

Courant Number mean: 0.00799714 max: 0.345553
[INFO] MatrixAssemblyU: 84.026 [ms]
DILUPBiCGStab:  Solving for Ux, Initial residual = 0.113111, Final residual = 0.0128148, No Iterations 5
DILUPBiCGStab:  Solving for Uy, Initial residual = 0.460399, Final residual = 0.045188, No Iterations 5
DILUPBiCGStab:  Solving for Uz, Initial residual = 0.964857, Final residual = 0.102925, No Iterations 5
[INFO] MomentumPredictor: 633.747 [ms]
[INFO] MatrixAssemblyPI: 94.434 [ms]
[INFO] AdjustPhi: 7.241 [ms]
[INFO] ConstrainPressure: 0.003 [ms]
[INFO] MatrixAssemblyPII: 23.721 [ms]
GAMG:  Solving for p, Initial residual = 0.901727, Final residual = 9.37362e-05, No Iterations 39
[INFO] SolveP: 1985.18 [ms]
time step continuity errors : sum local = 5.03034e-09, global = 6.87984e-22, cumulative = 3.3063e-21
[INFO] ContinuityError: 14.239 [ms]
[INFO] CorrectBoundary: 1.459 [ms]
[INFO] PISOStep: 2164.57 [ms]
[INFO] MatrixAssemblyPI: 93.459 [ms]
[INFO] AdjustPhi: 11.151 [ms]
[INFO] ConstrainPressure: 0.004 [ms]
[INFO] MatrixAssemblyPII: 25.577 [ms]
GAMG:  Solving for p, Initial residual = 0.847071, Final residual = 9.4689e-05, No Iterations 25
[INFO] SolveP: 1353.63 [ms]
time step continuity errors : sum local = 5.15935e-09, global = 5.76628e-22, cumulative = 3.88293e-21
[INFO] ContinuityError: 10.331 [ms]
[INFO] CorrectBoundary: 0.204 [ms]
[INFO] PISOStep: 1532.29 [ms]
[INFO] TimeStep: 4426.42 [ms]
ExecutionTime = 10.24 s  ClockTime = 11 s

Time = 0.0003

Courant Number mean: 0.0124136 max: 0.398323
[INFO] MatrixAssemblyU: 83.827 [ms]
DILUPBiCGStab:  Solving for Ux, Initial residual = 0.0523199, Final residual = 0.0050385, No Iterations 5
DILUPBiCGStab:  Solving for Uy, Initial residual = 0.22049, Final residual = 0.0250621, No Iterations 5
DILUPBiCGStab:  Solving for Uz, Initial residual = 0.836778, Final residual = 0.0781193, No Iterations 5
[INFO] MomentumPredictor: 611.422 [ms]
[INFO] MatrixAssemblyPI: 94.46 [ms]
[INFO] AdjustPhi: 5.713 [ms]
[INFO] ConstrainPressure: 0.003 [ms]
[INFO] MatrixAssemblyPII: 23.868 [ms]
GAMG:  Solving for p, Initial residual = 0.928632, Final residual = 9.91807e-05, No Iterations 26
[INFO] SolveP: 1465.56 [ms]
time step continuity errors : sum local = 5.74952e-09, global = 1.03129e-21, cumulative = 4.91422e-21
[INFO] ContinuityError: 14.503 [ms]
[INFO] CorrectBoundary: 0.425 [ms]
[INFO] PISOStep: 1641.78 [ms]
[INFO] MatrixAssemblyPI: 93.137 [ms]
[INFO] AdjustPhi: 8.187 [ms]
[INFO] ConstrainPressure: 0.004 [ms]
[INFO] MatrixAssemblyPII: 24.981 [ms]
GAMG:  Solving for p, Initial residual = 0.891572, Final residual = 8.4315e-05, No Iterations 17
[INFO] SolveP: 930.633 [ms]
time step continuity errors : sum local = 4.82776e-09, global = 6.12487e-22, cumulative = 5.52671e-21
[INFO] ContinuityError: 12.047 [ms]
[INFO] CorrectBoundary: 1.121 [ms]
[INFO] PISOStep: 1103.87 [ms]
[INFO] TimeStep: 3451.86 [ms]
ExecutionTime = 13.66 s  ClockTime = 15 s

Time = 0.0004

Courant Number mean: 0.0151412 max: 0.380033
[INFO] MatrixAssemblyU: 81.968 [ms]
DILUPBiCGStab:  Solving for Ux, Initial residual = 0.0378247, Final residual = 0.00404844, No Iterations 5
DILUPBiCGStab:  Solving for Uy, Initial residual = 0.169192, Final residual = 0.0198541, No Iterations 5
DILUPBiCGStab:  Solving for Uz, Initial residual = 0.711467, Final residual = 0.0568044, No Iterations 5
[INFO] MomentumPredictor: 641.288 [ms]
[INFO] MatrixAssemblyPI: 94.22 [ms]
[INFO] AdjustPhi: 12.062 [ms]
[INFO] ConstrainPressure: 0.003 [ms]
[INFO] MatrixAssemblyPII: 23.89 [ms]
GAMG:  Solving for p, Initial residual = 0.913944, Final residual = 8.71798e-05, No Iterations 26
[INFO] SolveP: 1232.96 [ms]
time step continuity errors : sum local = 5.58633e-09, global = 1.04645e-21, cumulative = 6.57315e-21
[INFO] ContinuityError: 11.444 [ms]
[INFO] CorrectBoundary: 0.403 [ms]
[INFO] PISOStep: 1407.45 [ms]
[INFO] MatrixAssemblyPI: 92.903 [ms]
[INFO] AdjustPhi: 8.433 [ms]
[INFO] ConstrainPressure: 0.004 [ms]
[INFO] MatrixAssemblyPII: 23.25 [ms]
GAMG:  Solving for p, Initial residual = 0.85182, Final residual = 9.87127e-05, No Iterations 25
[INFO] SolveP: 1284.19 [ms]
time step continuity errors : sum local = 6.45252e-09, global = 6.67191e-22, cumulative = 7.24034e-21
[INFO] ContinuityError: 11.819 [ms]
[INFO] CorrectBoundary: 0.258 [ms]
[INFO] PISOStep: 1458.69 [ms]
[INFO] TimeStep: 3601.78 [ms]
ExecutionTime = 17.25 s  ClockTime = 18 s

Time = 0.0005

Courant Number mean: 0.0174279 max: 0.414961
[INFO] MatrixAssemblyU: 85.381 [ms]
DILUPBiCGStab:  Solving for Ux, Initial residual = 0.0318815, Final residual = 0.00357076, No Iterations 5
DILUPBiCGStab:  Solving for Uy, Initial residual = 0.129782, Final residual = 0.0167185, No Iterations 5
DILUPBiCGStab:  Solving for Uz, Initial residual = 0.650455, Final residual = 0.0474346, No Iterations 5
[INFO] MomentumPredictor: 716.704 [ms]
[INFO] MatrixAssemblyPI: 93.997 [ms]
[INFO] AdjustPhi: 10.036 [ms]
[INFO] ConstrainPressure: 0.003 [ms]
[INFO] MatrixAssemblyPII: 23.667 [ms]
GAMG:  Solving for p, Initial residual = 0.93166, Final residual = 9.74988e-05, No Iterations 26
[INFO] SolveP: 1329.45 [ms]
time step continuity errors : sum local = 6.39547e-09, global = 1.04443e-21, cumulative = 8.28477e-21
[INFO] ContinuityError: 10.126 [ms]
[INFO] CorrectBoundary: 0.569 [ms]
[INFO] PISOStep: 1504.45 [ms]
[INFO] MatrixAssemblyPI: 92.954 [ms]
[INFO] AdjustPhi: 6.094 [ms]
[INFO] ConstrainPressure: 0.004 [ms]
[INFO] MatrixAssemblyPII: 23.779 [ms]
GAMG:  Solving for p, Initial residual = 0.889027, Final residual = 8.8382e-05, No Iterations 21
[INFO] SolveP: 981.867 [ms]
time step continuity errors : sum local = 5.74942e-09, global = 6.27261e-22, cumulative = 8.91203e-21
[INFO] ContinuityError: 9.436 [ms]
[INFO] CorrectBoundary: 0.368 [ms]
[INFO] PISOStep: 1148.25 [ms]
[INFO] TimeStep: 3466.38 [ms]
ExecutionTime = 20.69 s  ClockTime = 22 s

Time = 0.0006

Courant Number mean: 0.019244 max: 0.384986
[INFO] MatrixAssemblyU: 81.375 [ms]
DILUPBiCGStab:  Solving for Ux, Initial residual = 0.0273452, Final residual = 0.00330831, No Iterations 5
DILUPBiCGStab:  Solving for Uy, Initial residual = 0.113857, Final residual = 0.0136004, No Iterations 5
DILUPBiCGStab:  Solving for Uz, Initial residual = 0.592485, Final residual = 0.042894, No Iterations 5
[INFO] MomentumPredictor: 639.093 [ms]
[INFO] MatrixAssemblyPI: 94.754 [ms]
[INFO] AdjustPhi: 7.883 [ms]
[INFO] ConstrainPressure: 0.003 [ms]
[INFO] MatrixAssemblyPII: 23.829 [ms]
GAMG:  Solving for p, Initial residual = 0.917719, Final residual = 5.88977e-05, No Iterations 27
[INFO] SolveP: 1381.44 [ms]
time step continuity errors : sum local = 4.0535e-09, global = 5.3437e-22, cumulative = 9.4464e-21
[INFO] ContinuityError: 10.821 [ms]
[INFO] CorrectBoundary: 0.344 [ms]
[INFO] PISOStep: 1555.07 [ms]
[INFO] MatrixAssemblyPI: 93.232 [ms]
[INFO] AdjustPhi: 6.215 [ms]
[INFO] ConstrainPressure: 0.004 [ms]
[INFO] MatrixAssemblyPII: 24.209 [ms]
GAMG:  Solving for p, Initial residual = 0.852778, Final residual = 7.29749e-05, No Iterations 22
[INFO] SolveP: 1140.16 [ms]
time step continuity errors : sum local = 5.0979e-09, global = 1.40962e-22, cumulative = 9.58736e-21
[INFO] ContinuityError: 11.01 [ms]
[INFO] CorrectBoundary: 1.06 [ms]
[INFO] PISOStep: 1311.39 [ms]
[INFO] TimeStep: 3598.97 [ms]
ExecutionTime = 24.28 s  ClockTime = 26 s

Time = 0.0007

Courant Number mean: 0.0208633 max: 0.426914
[INFO] MatrixAssemblyU: 81.154 [ms]
DILUPBiCGStab:  Solving for Ux, Initial residual = 0.0250076, Final residual = 0.0030764, No Iterations 5
DILUPBiCGStab:  Solving for Uy, Initial residual = 0.102387, Final residual = 0.0122419, No Iterations 5
DILUPBiCGStab:  Solving for Uz, Initial residual = 0.570452, Final residual = 0.0372063, No Iterations 5
[INFO] MomentumPredictor: 697.721 [ms]
[INFO] MatrixAssemblyPI: 93.972 [ms]
[INFO] AdjustPhi: 10.32 [ms]
[INFO] ConstrainPressure: 0.004 [ms]
[INFO] MatrixAssemblyPII: 23.732 [ms]
GAMG:  Solving for p, Initial residual = 0.933279, Final residual = 9.29805e-05, No Iterations 26
[INFO] SolveP: 1543.89 [ms]
time step continuity errors : sum local = 6.45534e-09, global = 6.67754e-22, cumulative = 1.02551e-20
[INFO] ContinuityError: 10.278 [ms]
[INFO] CorrectBoundary: 0.356 [ms]
[INFO] PISOStep: 1716.62 [ms]
[INFO] MatrixAssemblyPI: 91.853 [ms]
[INFO] AdjustPhi: 8.457 [ms]
[INFO] ConstrainPressure: 0.003 [ms]
[INFO] MatrixAssemblyPII: 24.49 [ms]
GAMG:  Solving for p, Initial residual = 0.88487, Final residual = 8.25963e-05, No Iterations 20
[INFO] SolveP: 1176.6 [ms]
time step continuity errors : sum local = 5.6754e-09, global = 3.68933e-22, cumulative = 1.06241e-20
[INFO] ContinuityError: 10.16 [ms]
[INFO] CorrectBoundary: 0.513 [ms]
[INFO] PISOStep: 1345.75 [ms]
[INFO] TimeStep: 3853.49 [ms]
ExecutionTime = 28.11 s  ClockTime = 29 s

Time = 0.0008

Courant Number mean: 0.0222472 max: 0.387608
[INFO] MatrixAssemblyU: 81.241 [ms]
DILUPBiCGStab:  Solving for Ux, Initial residual = 0.0230446, Final residual = 0.00291369, No Iterations 5
DILUPBiCGStab:  Solving for Uy, Initial residual = 0.0919326, Final residual = 0.0104142, No Iterations 5
DILUPBiCGStab:  Solving for Uz, Initial residual = 0.542929, Final residual = 0.0354924, No Iterations 5
[INFO] MomentumPredictor: 639.64 [ms]
[INFO] MatrixAssemblyPI: 96.3 [ms]
[INFO] AdjustPhi: 7.693 [ms]
[INFO] ConstrainPressure: 0.004 [ms]
[INFO] MatrixAssemblyPII: 26.169 [ms]
GAMG:  Solving for p, Initial residual = 0.919782, Final residual = 7.00196e-05, No Iterations 24
[INFO] SolveP: 1526.8 [ms]
time step continuity errors : sum local = 5.0606e-09, global = 6.8169e-22, cumulative = 1.13057e-20
[INFO] ContinuityError: 9.807 [ms]
[INFO] CorrectBoundary: 0.405 [ms]
[INFO] PISOStep: 1699.9 [ms]
[INFO] MatrixAssemblyPI: 93.488 [ms]
[INFO] AdjustPhi: 7.496 [ms]
[INFO] ConstrainPressure: 0.005 [ms]
[INFO] MatrixAssemblyPII: 24.215 [ms]
GAMG:  Solving for p, Initial residual = 0.851612, Final residual = 9.28902e-05, No Iterations 21
[INFO] SolveP: 1071.67 [ms]
time step continuity errors : sum local = 6.81181e-09, global = 1.56263e-21, cumulative = 1.28684e-20
[INFO] ContinuityError: 10.003 [ms]
[INFO] CorrectBoundary: 0.661 [ms]
[INFO] PISOStep: 1241.91 [ms]
[INFO] TimeStep: 3674.72 [ms]
ExecutionTime = 31.77 s  ClockTime = 33 s

Time = 0.0009

Courant Number mean: 0.0235334 max: 0.439489
[INFO] MatrixAssemblyU: 80.326 [ms]
DILUPBiCGStab:  Solving for Ux, Initial residual = 0.0216544, Final residual = 0.00271813, No Iterations 5
DILUPBiCGStab:  Solving for Uy, Initial residual = 0.0889773, Final residual = 0.00988125, No Iterations 5
DILUPBiCGStab:  Solving for Uz, Initial residual = 0.54813, Final residual = 0.0354006, No Iterations 5
[INFO] MomentumPredictor: 679.409 [ms]
[INFO] MatrixAssemblyPI: 94.828 [ms]
[INFO] AdjustPhi: 7.599 [ms]
[INFO] ConstrainPressure: 0.003 [ms]
[INFO] MatrixAssemblyPII: 23.702 [ms]
GAMG:  Solving for p, Initial residual = 0.933778, Final residual = 9.0558e-05, No Iterations 27
[INFO] SolveP: 1387.09 [ms]
time step continuity errors : sum local = 6.64078e-09, global = 1.23845e-21, cumulative = 1.41068e-20
[INFO] ContinuityError: 11.823 [ms]
[INFO] CorrectBoundary: 1.261 [ms]
[INFO] PISOStep: 1563.14 [ms]
[INFO] MatrixAssemblyPI: 92.266 [ms]
[INFO] AdjustPhi: 10.966 [ms]
[INFO] ConstrainPressure: 0.005 [ms]
[INFO] MatrixAssemblyPII: 23.268 [ms]
GAMG:  Solving for p, Initial residual = 0.880992, Final residual = 9.77757e-05, No Iterations 19
[INFO] SolveP: 961.621 [ms]
time step continuity errors : sum local = 7.09963e-09, global = 1.0711e-21, cumulative = 1.51779e-20
[INFO] ContinuityError: 9.665 [ms]
[INFO] CorrectBoundary: 0.311 [ms]
[INFO] PISOStep: 1134.37 [ms]
[INFO] TimeStep: 3468.1 [ms]
ExecutionTime = 35.21 s  ClockTime = 37 s

Time = 0.001

Courant Number mean: 0.0246667 max: 0.39207
[INFO] MatrixAssemblyU: 79.532 [ms]
DILUPBiCGStab:  Solving for Ux, Initial residual = 0.0207484, Final residual = 0.00261475, No Iterations 5
DILUPBiCGStab:  Solving for Uy, Initial residual = 0.0817583, Final residual = 0.00865601, No Iterations 5
DILUPBiCGStab:  Solving for Uz, Initial residual = 0.527555, Final residual = 0.0312923, No Iterations 5
[INFO] MomentumPredictor: 652.041 [ms]
[INFO] MatrixAssemblyPI: 94.384 [ms]
[INFO] AdjustPhi: 6.869 [ms]
[INFO] ConstrainPressure: 0.003 [ms]
[INFO] MatrixAssemblyPII: 23.688 [ms]
GAMG:  Solving for p, Initial residual = 0.922633, Final residual = 9.98252e-05, No Iterations 31
[INFO] SolveP: 1553.81 [ms]
time step continuity errors : sum local = 7.66565e-09, global = 6.37487e-22, cumulative = 1.58154e-20
[INFO] ContinuityError: 10.264 [ms]
[INFO] CorrectBoundary: 0.697 [ms]
[INFO] PISOStep: 1725.41 [ms]
[INFO] MatrixAssemblyPI: 92.201 [ms]
[INFO] AdjustPhi: 9.874 [ms]
[INFO] ConstrainPressure: 0.004 [ms]
[INFO] MatrixAssemblyPII: 23.664 [ms]
GAMG:  Solving for p, Initial residual = 0.851355, Final residual = 9.84112e-05, No Iterations 26
[INFO] SolveP: 1276 [ms]
time step continuity errors : sum local = 7.65581e-09, global = 1.09148e-21, cumulative = 1.69069e-20
[INFO] ContinuityError: 13.534 [ms]
[INFO] CorrectBoundary: 0.193 [ms]
[INFO] PISOStep: 1450.6 [ms]
[INFO] TimeStep: 3918.71 [ms]
ExecutionTime = 39.11 s  ClockTime = 40 s

Time = 0.0011

Courant Number mean: 0.0257501 max: 0.454228
[INFO] MatrixAssemblyU: 79.357 [ms]
DILUPBiCGStab:  Solving for Ux, Initial residual = 0.0197855, Final residual = 0.00243282, No Iterations 5
DILUPBiCGStab:  Solving for Uy, Initial residual = 0.081795, Final residual = 0.0084681, No Iterations 5
DILUPBiCGStab:  Solving for Uz, Initial residual = 0.541071, Final residual = 0.0336963, No Iterations 5
[INFO] MomentumPredictor: 655.873 [ms]
[INFO] MatrixAssemblyPI: 93.962 [ms]
[INFO] AdjustPhi: 8.726 [ms]
[INFO] ConstrainPressure: 0.004 [ms]
[INFO] MatrixAssemblyPII: 23.505 [ms]
GAMG:  Solving for p, Initial residual = 0.936816, Final residual = 6.89155e-05, No Iterations 34
[INFO] SolveP: 1804.05 [ms]
time step continuity errors : sum local = 5.43757e-09, global = 8.28556e-22, cumulative = 1.77354e-20
[INFO] ContinuityError: 10.445 [ms]
[INFO] CorrectBoundary: 1.534 [ms]
[INFO] PISOStep: 1975.65 [ms]
[INFO] MatrixAssemblyPI: 91.945 [ms]
[INFO] AdjustPhi: 9.977 [ms]
[INFO] ConstrainPressure: 0.004 [ms]
[INFO] MatrixAssemblyPII: 23.751 [ms]
GAMG:  Solving for p, Initial residual = 0.878813, Final residual = 9.88872e-05, No Iterations 24
[INFO] SolveP: 1392.95 [ms]
time step continuity errors : sum local = 7.75963e-09, global = 4.64059e-22, cumulative = 1.81995e-20
[INFO] ContinuityError: 10.693 [ms]
[INFO] CorrectBoundary: 0.503 [ms]
[INFO] PISOStep: 1564.76 [ms]
[INFO] TimeStep: 4286.1 [ms]
ExecutionTime = 43.37 s  ClockTime = 45 s

Time = 0.0012

Courant Number mean: 0.0267175 max: 0.396616
[INFO] MatrixAssemblyU: 79.812 [ms]
DILUPBiCGStab:  Solving for Ux, Initial residual = 0.0194562, Final residual = 0.00238571, No Iterations 5
DILUPBiCGStab:  Solving for Uy, Initial residual = 0.0757348, Final residual = 0.00743767, No Iterations 5
DILUPBiCGStab:  Solving for Uz, Initial residual = 0.529039, Final residual = 0.0302053, No Iterations 5
[INFO] MomentumPredictor: 668.161 [ms]
[INFO] MatrixAssemblyPI: 94.508 [ms]
[INFO] AdjustPhi: 12.434 [ms]
[INFO] ConstrainPressure: 0.003 [ms]
[INFO] MatrixAssemblyPII: 23.766 [ms]
GAMG:  Solving for p, Initial residual = 0.927131, Final residual = 5.92176e-05, No Iterations 27
[INFO] SolveP: 1401.45 [ms]
time step continuity errors : sum local = 4.94368e-09, global = 7.2769e-22, cumulative = 1.89272e-20
[INFO] ContinuityError: 10.414 [ms]
[INFO] CorrectBoundary: 0.328 [ms]
[INFO] PISOStep: 1580.16 [ms]
[INFO] MatrixAssemblyPI: 93.464 [ms]
[INFO] AdjustPhi: 5.958 [ms]
[INFO] ConstrainPressure: 0.004 [ms]
[INFO] MatrixAssemblyPII: 24.211 [ms]
GAMG:  Solving for p, Initial residual = 0.853784, Final residual = 7.7446e-05, No Iterations 36
[INFO] SolveP: 1777 [ms]
time step continuity errors : sum local = 6.54018e-09, global = 1.70656e-21, cumulative = 2.06338e-20
[INFO] ContinuityError: 9.594 [ms]
[INFO] CorrectBoundary: 0.248 [ms]
[INFO] PISOStep: 1946.33 [ms]
[INFO] TimeStep: 4285.79 [ms]
ExecutionTime = 47.64 s  ClockTime = 49 s

Time = 0.0013

Courant Number mean: 0.0276626 max: 0.471855
[INFO] MatrixAssemblyU: 81.027 [ms]
DILUPBiCGStab:  Solving for Ux, Initial residual = 0.0187768, Final residual = 0.0022162, No Iterations 5
DILUPBiCGStab:  Solving for Uy, Initial residual = 0.0768453, Final residual = 0.0073085, No Iterations 5
DILUPBiCGStab:  Solving for Uz, Initial residual = 0.536574, Final residual = 0.0289449, No Iterations 5
[INFO] MomentumPredictor: 636.232 [ms]
[INFO] MatrixAssemblyPI: 94.164 [ms]
[INFO] AdjustPhi: 9.692 [ms]
[INFO] ConstrainPressure: 0.003 [ms]
[INFO] MatrixAssemblyPII: 23.958 [ms]
GAMG:  Solving for p, Initial residual = 0.939919, Final residual = 8.68165e-05, No Iterations 25
[INFO] SolveP: 1511.71 [ms]
time step continuity errors : sum local = 7.49413e-09, global = 8.9017e-22, cumulative = 2.15239e-20
[INFO] ContinuityError: 9.766 [ms]
[INFO] CorrectBoundary: 1.171 [ms]
[INFO] PISOStep: 1683.27 [ms]
[INFO] MatrixAssemblyPI: 94.323 [ms]
[INFO] AdjustPhi: 5.6 [ms]
[INFO] ConstrainPressure: 0.003 [ms]
[INFO] MatrixAssemblyPII: 23.845 [ms]
GAMG:  Solving for p, Initial residual = 0.878261, Final residual = 8.31081e-05, No Iterations 32
[INFO] SolveP: 1538.71 [ms]
time step continuity errors : sum local = 7.13513e-09, global = 7.61006e-22, cumulative = 2.22849e-20
[INFO] ContinuityError: 10.117 [ms]
[INFO] CorrectBoundary: 0.843 [ms]
[INFO] PISOStep: 1705 [ms]
[INFO] TimeStep: 4115.94 [ms]
ExecutionTime = 51.72 s  ClockTime = 53 s

Time = 0.0014

Courant Number mean: 0.028511 max: 0.401694
[INFO] MatrixAssemblyU: 79.142 [ms]
DILUPBiCGStab:  Solving for Ux, Initial residual = 0.0187293, Final residual = 0.00219506, No Iterations 5
DILUPBiCGStab:  Solving for Uy, Initial residual = 0.0730674, Final residual = 0.0067152, No Iterations 5
DILUPBiCGStab:  Solving for Uz, Initial residual = 0.536766, Final residual = 0.0293549, No Iterations 5
[INFO] MomentumPredictor: 637.852 [ms]
[INFO] MatrixAssemblyPI: 93.923 [ms]
[INFO] AdjustPhi: 9.343 [ms]
[INFO] ConstrainPressure: 0.003 [ms]
[INFO] MatrixAssemblyPII: 23.959 [ms]
GAMG:  Solving for p, Initial residual = 0.931778, Final residual = 5.98359e-05, No Iterations 35
[INFO] SolveP: 1883.3 [ms]
time step continuity errors : sum local = 5.45236e-09, global = 1.37279e-21, cumulative = 2.36577e-20
[INFO] ContinuityError: 9.879 [ms]
[INFO] CorrectBoundary: 1.105 [ms]
[INFO] PISOStep: 2054.16 [ms]
[INFO] MatrixAssemblyPI: 91.347 [ms]
[INFO] AdjustPhi: 10.253 [ms]
[INFO] ConstrainPressure: 0.005 [ms]
[INFO] MatrixAssemblyPII: 23.713 [ms]
GAMG:  Solving for p, Initial residual = 0.856904, Final residual = 9.53531e-05, No Iterations 31
[INFO] SolveP: 1542.55 [ms]
time step continuity errors : sum local = 8.7945e-09, global = 5.62617e-22, cumulative = 2.42203e-20
[INFO] ContinuityError: 11.118 [ms]
[INFO] CorrectBoundary: 0.307 [ms]
[INFO] PISOStep: 1712.2 [ms]
[INFO] TimeStep: 4494.4 [ms]
ExecutionTime = 56.2 s  ClockTime = 58 s

Time = 0.0015

Courant Number mean: 0.0293557 max: 0.493485
[INFO] MatrixAssemblyU: 79.64 [ms]
DILUPBiCGStab:  Solving for Ux, Initial residual = 0.0183054, Final residual = 0.00204758, No Iterations 5
DILUPBiCGStab:  Solving for Uy, Initial residual = 0.0750576, Final residual = 0.00666155, No Iterations 5
DILUPBiCGStab:  Solving for Uz, Initial residual = 0.549564, Final residual = 0.02925, No Iterations 5
[INFO] MomentumPredictor: 662.202 [ms]
[INFO] MatrixAssemblyPI: 95.965 [ms]
[INFO] AdjustPhi: 6.062 [ms]
[INFO] ConstrainPressure: 0.006 [ms]
[INFO] MatrixAssemblyPII: 24.221 [ms]
GAMG:  Solving for p, Initial residual = 0.943083, Final residual = 9.93323e-05, No Iterations 26
[INFO] SolveP: 1281.82 [ms]
time step continuity errors : sum local = 9.38704e-09, global = 1.11554e-21, cumulative = 2.53359e-20
[INFO] ContinuityError: 9.592 [ms]
[INFO] CorrectBoundary: 0.908 [ms]
[INFO] PISOStep: 1452.28 [ms]
[INFO] MatrixAssemblyPI: 91.503 [ms]
[INFO] AdjustPhi: 8.091 [ms]
[INFO] ConstrainPressure: 0.005 [ms]
[INFO] MatrixAssemblyPII: 23.708 [ms]
GAMG:  Solving for p, Initial residual = 0.87814, Final residual = 9.14539e-05, No Iterations 24
[INFO] SolveP: 1208.49 [ms]
time step continuity errors : sum local = 8.59922e-09, global = 4.3731e-22, cumulative = 2.57732e-20
[INFO] ContinuityError: 9.662 [ms]
[INFO] CorrectBoundary: 0.313 [ms]
[INFO] PISOStep: 1376.86 [ms]
[INFO] TimeStep: 3581.36 [ms]
ExecutionTime = 59.76 s  ClockTime = 61 s

Time = 0.0016

Courant Number mean: 0.0301139 max: 0.407656
[INFO] MatrixAssemblyU: 80.639 [ms]
DILUPBiCGStab:  Solving for Ux, Initial residual = 0.0184883, Final residual = 0.00204872, No Iterations 5
DILUPBiCGStab:  Solving for Uy, Initial residual = 0.072786, Final residual = 0.00627934, No Iterations 5
DILUPBiCGStab:  Solving for Uz, Initial residual = 0.555828, Final residual = 0.0311334, No Iterations 5
[INFO] MomentumPredictor: 639.201 [ms]
[INFO] MatrixAssemblyPI: 94.192 [ms]
[INFO] AdjustPhi: 9.323 [ms]
[INFO] ConstrainPressure: 0.003 [ms]
[INFO] MatrixAssemblyPII: 23.996 [ms]
GAMG:  Solving for p, Initial residual = 0.936251, Final residual = 9.11742e-05, No Iterations 38
[INFO] SolveP: 1875.9 [ms]
time step continuity errors : sum local = 9.12868e-09, global = 7.04572e-22, cumulative = 2.64778e-20
[INFO] ContinuityError: 9.918 [ms]
[INFO] CorrectBoundary: 0.301 [ms]
[INFO] PISOStep: 2049.14 [ms]
[INFO] MatrixAssemblyPI: 92.799 [ms]
[INFO] AdjustPhi: 7.325 [ms]
[INFO] ConstrainPressure: 0.003 [ms]
[INFO] MatrixAssemblyPII: 23.73 [ms]
GAMG:  Solving for p, Initial residual = 0.860329, Final residual = 7.71844e-05, No Iterations 27
[INFO] SolveP: 1336.07 [ms]
time step continuity errors : sum local = 7.78927e-09, global = 1.06117e-21, cumulative = 2.75389e-20
[INFO] ContinuityError: 12.1 [ms]
[INFO] CorrectBoundary: 0.302 [ms]
[INFO] PISOStep: 1505.46 [ms]
[INFO] TimeStep: 4285.37 [ms]
ExecutionTime = 64.02 s  ClockTime = 65 s

Time = 0.0017

Courant Number mean: 0.0308822 max: 0.519699
[INFO] MatrixAssemblyU: 80.826 [ms]
DILUPBiCGStab:  Solving for Ux, Initial residual = 0.0182661, Final residual = 0.00191667, No Iterations 5
DILUPBiCGStab:  Solving for Uy, Initial residual = 0.0753675, Final residual = 0.00628628, No Iterations 5
DILUPBiCGStab:  Solving for Uz, Initial residual = 0.567696, Final residual = 0.0304065, No Iterations 5
[INFO] MomentumPredictor: 634.206 [ms]
[INFO] MatrixAssemblyPI: 93.751 [ms]
[INFO] AdjustPhi: 9.63 [ms]
[INFO] ConstrainPressure: 0.003 [ms]
[INFO] MatrixAssemblyPII: 23.674 [ms]
GAMG:  Solving for p, Initial residual = 0.946135, Final residual = 5.85382e-05, No Iterations 29
[INFO] SolveP: 1704.51 [ms]
time step continuity errors : sum local = 6.07991e-09, global = 8.24844e-22, cumulative = 2.83638e-20
[INFO] ContinuityError: 9.901 [ms]
[INFO] CorrectBoundary: 0.904 [ms]
[INFO] PISOStep: 1878.57 [ms]
[INFO] MatrixAssemblyPI: 91.484 [ms]
[INFO] AdjustPhi: 8.596 [ms]
[INFO] ConstrainPressure: 0.005 [ms]
[INFO] MatrixAssemblyPII: 23.747 [ms]
GAMG:  Solving for p, Initial residual = 0.878526, Final residual = 9.46957e-05, No Iterations 32
[INFO] SolveP: 1859.69 [ms]
time step continuity errors : sum local = 9.80439e-09, global = 1.30281e-21, cumulative = 2.96666e-20
[INFO] ContinuityError: 9.938 [ms]
[INFO] CorrectBoundary: 0.668 [ms]
[INFO] PISOStep: 2026.52 [ms]
[INFO] TimeStep: 4630.68 [ms]
ExecutionTime = 68.63 s  ClockTime = 70 s

Time = 0.0018

Courant Number mean: 0.0315696 max: 0.414606
[INFO] MatrixAssemblyU: 81.547 [ms]
DILUPBiCGStab:  Solving for Ux, Initial residual = 0.0186075, Final residual = 0.00192586, No Iterations 5
DILUPBiCGStab:  Solving for Uy, Initial residual = 0.0728315, Final residual = 0.00570721, No Iterations 5
DILUPBiCGStab:  Solving for Uz, Initial residual = 0.566282, Final residual = 0.0286537, No Iterations 5
[INFO] MomentumPredictor: 638.461 [ms]
[INFO] MatrixAssemblyPI: 92.92 [ms]
[INFO] AdjustPhi: 10.388 [ms]
[INFO] ConstrainPressure: 0.003 [ms]
[INFO] MatrixAssemblyPII: 23.832 [ms]
GAMG:  Solving for p, Initial residual = 0.941429, Final residual = 7.62092e-05, No Iterations 32
[INFO] SolveP: 1614.31 [ms]
time step continuity errors : sum local = 8.37159e-09, global = 1.37581e-21, cumulative = 3.10424e-20
[INFO] ContinuityError: 9.24 [ms]
[INFO] CorrectBoundary: 0.593 [ms]
[INFO] PISOStep: 1785.78 [ms]
[INFO] MatrixAssemblyPI: 92.902 [ms]
[INFO] AdjustPhi: 5.567 [ms]
[INFO] ConstrainPressure: 0.004 [ms]
[INFO] MatrixAssemblyPII: 23.923 [ms]
GAMG:  Solving for p, Initial residual = 0.864534, Final residual = 5.01319e-05, No Iterations 30
[INFO] SolveP: 1497.27 [ms]
time step continuity errors : sum local = 5.55509e-09, global = 1.39131e-21, cumulative = 3.24337e-20
[INFO] ContinuityError: 9.698 [ms]
[INFO] CorrectBoundary: 0.197 [ms]
[INFO] PISOStep: 1666.09 [ms]
[INFO] TimeStep: 4183.88 [ms]
ExecutionTime = 72.78 s  ClockTime = 74 s

Time = 0.0019

Courant Number mean: 0.032278 max: 0.551588
[INFO] MatrixAssemblyU: 83.229 [ms]
DILUPBiCGStab:  Solving for Ux, Initial residual = 0.0186015, Final residual = 0.00181323, No Iterations 5
DILUPBiCGStab:  Solving for Uy, Initial residual = 0.075269, Final residual = 0.00569146, No Iterations 5
DILUPBiCGStab:  Solving for Uz, Initial residual = 0.576966, Final residual = 0.0278659, No Iterations 5
[INFO] MomentumPredictor: 636.107 [ms]
[INFO] MatrixAssemblyPI: 94.911 [ms]
[INFO] AdjustPhi: 9.505 [ms]
[INFO] ConstrainPressure: 0.003 [ms]
[INFO] MatrixAssemblyPII: 23.972 [ms]
GAMG:  Solving for p, Initial residual = 0.949623, Final residual = 5.23779e-05, No Iterations 29
[INFO] SolveP: 1465.1 [ms]
time step continuity errors : sum local = 6.00702e-09, global = 1.95723e-21, cumulative = 3.43909e-20
[INFO] ContinuityError: 10.583 [ms]
[INFO] CorrectBoundary: 0.361 [ms]
[INFO] PISOStep: 1639.82 [ms]
[INFO] MatrixAssemblyPI: 93.67 [ms]
[INFO] AdjustPhi: 8.865 [ms]
[INFO] ConstrainPressure: 0.004 [ms]
[INFO] MatrixAssemblyPII: 23.78 [ms]
GAMG:  Solving for p, Initial residual = 0.879646, Final residual = 9.02288e-05, No Iterations 23
[INFO] SolveP: 1149.53 [ms]
time step continuity errors : sum local = 1.03151e-08, global = 1.41433e-21, cumulative = 3.58053e-20
[INFO] ContinuityError: 10.19 [ms]
[INFO] CorrectBoundary: 0.736 [ms]
[INFO] PISOStep: 1321.98 [ms]
[INFO] TimeStep: 3692.57 [ms]
ExecutionTime = 76.45 s  ClockTime = 78 s

Time = 0.002

Courant Number mean: 0.0329073 max: 0.42291
[INFO] MatrixAssemblyU: 80.614 [ms]
DILUPBiCGStab:  Solving for Ux, Initial residual = 0.0191134, Final residual = 0.00183075, No Iterations 5
DILUPBiCGStab:  Solving for Uy, Initial residual = 0.0747869, Final residual = 0.00548967, No Iterations 5
DILUPBiCGStab:  Solving for Uz, Initial residual = 0.582071, Final residual = 0.0287225, No Iterations 5
[INFO] MomentumPredictor: 651.089 [ms]
[INFO] MatrixAssemblyPI: 94.596 [ms]
[INFO] AdjustPhi: 6.991 [ms]
[INFO] ConstrainPressure: 0.003 [ms]
[INFO] MatrixAssemblyPII: 23.706 [ms]
GAMG:  Solving for p, Initial residual = 0.946484, Final residual = 6.0364e-05, No Iterations 26
[INFO] SolveP: 1292.72 [ms]
time step continuity errors : sum local = 7.32244e-09, global = 1.77723e-21, cumulative = 3.75825e-20
[INFO] ContinuityError: 10.207 [ms]
[INFO] CorrectBoundary: 0.822 [ms]
[INFO] PISOStep: 1461 [ms]
[INFO] MatrixAssemblyPI: 92.976 [ms]
[INFO] AdjustPhi: 8.613 [ms]
[INFO] ConstrainPressure: 0.004 [ms]
[INFO] MatrixAssemblyPII: 23.669 [ms]
GAMG:  Solving for p, Initial residual = 0.868813, Final residual = 6.35349e-05, No Iterations 39
[INFO] SolveP: 1879.27 [ms]
time step continuity errors : sum local = 7.76365e-09, global = 1.01024e-21, cumulative = 3.85928e-20
[INFO] ContinuityError: 13.277 [ms]
[INFO] CorrectBoundary: 1.044 [ms]
[INFO] PISOStep: 2052.14 [ms]
[INFO] TimeStep: 4255.04 [ms]
ExecutionTime = 80.69 s  ClockTime = 82 s

End

Finalising parallel run
