/*---------------------------------------------------------------------------*\
| =========                 |                                                 |
| \\      /  F ield         | OpenFOAM: The Open Source CFD Toolbox           |
|  \\    /   O peration     | Version:  2306                                  |
|   \\  /    A nd           | Website:  www.openfoam.com                      |
|    \\/     M anipulation  |                                                 |
\*---------------------------------------------------------------------------*/
Build  : c423ebec-20231012 OPENFOAM=2306 version=v2306
Arch   : "LSB;label=32;scalar=64"
Exec   : icoFoam -parallel -case /hkfs/work/workspace/scratch/eq4036-l3d/workspace/e8a26dd77fc89529717fd86d9e8f815c/case
Date   : Jan 10 2024
Time   : 21:59:53
Host   : hkn0619.localdomain
PID    : 1569704
I/O    : uncollated
Case   : /hkfs/work/workspace/scratch/eq4036-l3d/workspace/e8a26dd77fc89529717fd86d9e8f815c/case
nProcs : 8
Hosts  :
(
    (hkn0619.localdomain 8)
)
Pstream initialized with:
    floatTransfer      : false
    nProcsSimpleSum    : 0
    nonBlockingExchange: 0 (tuning: 0)
    exchange algorithm : -1
    commsType          : nonBlocking
    polling iterations : 0
trapFpe: Floating point exception trapping enabled (FOAM_SIGFPE).
fileModificationChecking : Monitoring run-time modified files using timeStampMaster (fileModificationSkew 5, maxFileModificationPolls 20)
allowSystemOperations : Allowing user-supplied system call operations

// * * * * * * * * * * * * * * * * * * * * * * * * * * * * * * * * * * * * * //
Create time

--> FOAM Warning : 
    From void* Foam::dlLibraryTable::openLibrary(const Foam::fileName&, bool)
    in file db/dynamicLibrary/dlLibraryTable/dlLibraryTable.C at line 188
    Could not load "libpetscFoam.so"
libpetscFoam.so: cannot open shared object file: No such file or directory
Create mesh for time = 0


PISO: Operating solver in PISO mode

Reading transportProperties

Reading field p

Reading field U

Reading/calculating face flux field phi


Starting time loop

Time = 0.00025

Courant Number mean: 8.24341e-18 max: 2.08167e-14
[INFO] MatrixAssemblyU: 209.871 [ms]
DILUPBiCGStab:  Solving for Ux, Initial residual = 1, Final residual = 0.00959752, No Iterations 5
DILUPBiCGStab:  Solving for Uy:  solution singularity
DILUPBiCGStab:  Solving for Uz:  solution singularity
[INFO] MomentumPredictor: 762.257 [ms]
[INFO] MatrixAssemblyPI: 214.483 [ms]
[INFO] AdjustPhi: 10.213 [ms]
[INFO] ConstrainPressure: 0.005 [ms]
[INFO] MatrixAssemblyPII: 56.578 [ms]
[OGL LOG][lduLduBase.H:119] Initialising OGL
	OGL commit:  e75313f+
	Branch: dev 
	Build type: Debug
	Ginkgo version: 1.8.0 ( develop)
	Ginkgo commit: sparse-communicator
	MPI is GPU aware: 1
	Forces host buffer based communication: 0
	CPU ranks per GPU: 1
	Matrix format: Ell
	End OGL_INFO
[OGL LOG][Proc: 0]: global_index_init: 7.838 [ms]
[OGL LOG][Proc: 0]p_local_cols: call_init: 0.234 [ms]
[OGL LOG][Proc: 0]p_local_rows: call_init: 0.032 [ms]
[OGL LOG][Proc: 0]p_local_ldu_map: call_init: 0.013 [ms]
[OGL LOG][Proc: 0]p_local_coeffs: call_init: 4.284 [ms]
[OGL LOG][Proc: 0]p_non_local_cols: call_init: 0.034 [ms]
[OGL LOG][Proc: 0]p_non_local_rows: call_init: 0.005 [ms]
[OGL LOG][Proc: 0]p_non_local_ldu_map: call_init: 0.004 [ms]
[OGL LOG][Proc: 0]p_non_local_coeffs: call_init: 0.011 [ms]
[OGL LOG][Proc: 0]p: init_local_sparsity_pattern: 26696.5 [ms]
[OGL LOG][Proc: 0]p: init_non_local_sparsity_pattern: 124.453 [ms]
[OGL LOG][Proc: 0]p: update_local_matrix_data: 65.174 [ms]
[OGL LOG][Proc: 0]p: update_non_local_matrix_data: 0.788 [ms]
[OGL LOG][Proc: 0]device_partition: call_init: 0.178 [ms]
[OGL LOG][Proc: 0]p_matrix: call_init: 108.656 [ms]
[OGL LOG][Proc: 0]p_rhs: call_init: 1.29 [ms]
[OGL LOG][Proc: 0]p_solution: call_init: 3.054 [ms]
[OGL LOG][Preconditioner.H:346] Generate preconditioner Multigrid MaxLevels 9 MinCoarseRows 10 ZeroGuess 1 Cycle v
[OGL LOG][Proc: 0]p: init_precond: 505.589 [ms]
[OGL LOG][StoppingCriterion.H:239] Creating stopping criterion with minIter 0 frequency 1
[OGL LOG][Proc: 0]p: generate_solver: 0.028 [ms]
[OGL LOG][Proc: 0]p: solve: 31426.2 [ms]
[OGL LOG][Proc: 0]p: copy_x_back: 3.213 [ms]
[OGL LOG][lduLduBase.H:330] 
Statistics:
	Time per iteration: 151087 [mu s]
	Time per residual norm calculation: 1274.000000 [mu s]
	Time per iteration and DOF: 18.885875 [ns]
	Retrieve results bandwidth 2.489000 [GByte/s]
[OGL LOG][Proc: 0]p: solve_multi_gpu: 32141.5 [ms]
MultigridcudaGKOCG:  Solving for p, Initial residual = 1, Final residual = 9.75648e-05, No Iterations 208
[INFO] SolveP: 60492.1 [ms]
time step continuity errors : sum local = 7.64396e-09, global = -3.22564e-21, cumulative = -3.22564e-21
[INFO] ContinuityError: 22.465 [ms]
[INFO] CorrectBoundary: 1.173 [ms]
[INFO] PISOStep: 60872.9 [ms]
[INFO] MatrixAssemblyPI: 189.62 [ms]
[INFO] AdjustPhi: 9.465 [ms]
[INFO] ConstrainPressure: 0.002 [ms]
[INFO] MatrixAssemblyPII: 58.67 [ms]
[OGL LOG][Proc: 0]: global_index_init: 0.021 [ms]
[OGL LOG][Proc: 0]p_local_coeffs: call_update: 0.001 [ms]
[OGL LOG][Proc: 0]p_non_local_coeffs: call_update: 0 [ms]
[OGL LOG][Proc: 0]p: update_local_matrix_data: 31.663 [ms]
[OGL LOG][Proc: 0]p: update_non_local_matrix_data: 0.847 [ms]
[OGL LOG][Proc: 0]p: regenerate_distributed_matrix: 103.244 [ms]
[OGL LOG][Proc: 0]p_matrix: call_update: 104.566 [ms]
[OGL LOG][Proc: 0]p_rhs: call_update: 1.315 [ms]
[OGL LOG][Preconditioner.H:346] Generate preconditioner Multigrid MaxLevels 9 MinCoarseRows 10 ZeroGuess 1 Cycle v
[OGL LOG][Proc: 0]p: init_precond: 347.93 [ms]
[OGL LOG][StoppingCriterion.H:239] Creating stopping criterion with minIter 124 frequency 1
[OGL LOG][Proc: 0]p: generate_solver: 0.009 [ms]
[OGL LOG][Proc: 0]p: solve: 1903.3 [ms]
[OGL LOG][Proc: 0]p: copy_x_back: 3.038 [ms]
[OGL LOG][lduLduBase.H:330] 
Statistics:
	Time per iteration: 9194 [mu s]
	Time per residual norm calculation: 1117.000000 [mu s]
	Time per iteration and DOF: 1.149250 [ns]
	Retrieve results bandwidth 2.633000 [GByte/s]
[OGL LOG][Proc: 0]p: solve_multi_gpu: 2389.07 [ms]
MultigridcudaGKOCG:  Solving for p, Initial residual = 0.786519, Final residual = 8.7804e-05, No Iterations 207
[INFO] SolveP: 2429.7 [ms]
time step continuity errors : sum local = 8.58081e-09, global = -1.16607e-21, cumulative = -4.39171e-21
[INFO] ContinuityError: 22.358 [ms]
[INFO] CorrectBoundary: 0.401 [ms]
[INFO] PISOStep: 2777.88 [ms]
[INFO] TimeStep: 64650.1 [ms]
ExecutionTime = 64.28 s  ClockTime = 66 s

Time = 0.0005

Courant Number mean: 0.0159725 max: 0.41252
[INFO] MatrixAssemblyU: 169.494 [ms]
DILUPBiCGStab:  Solving for Ux, Initial residual = 0.129587, Final residual = 0.00510176, No Iterations 5
DILUPBiCGStab:  Solving for Uy, Initial residual = 0.426773, Final residual = 0.013235, No Iterations 5
DILUPBiCGStab:  Solving for Uz, Initial residual = 0.993198, Final residual = 0.0332915, No Iterations 5
[INFO] MomentumPredictor: 1459.8 [ms]
[INFO] MatrixAssemblyPI: 193.582 [ms]
[INFO] AdjustPhi: 10.185 [ms]
[INFO] ConstrainPressure: 0.003 [ms]
[INFO] MatrixAssemblyPII: 56.171 [ms]
[OGL LOG][Proc: 0]: global_index_init: 0.015 [ms]
[OGL LOG][Proc: 0]p_local_coeffs: call_update: 0 [ms]
[OGL LOG][Proc: 0]p_non_local_coeffs: call_update: 0 [ms]
[OGL LOG][Proc: 0]p: update_local_matrix_data: 32.674 [ms]
[OGL LOG][Proc: 0]p: update_non_local_matrix_data: 0.799 [ms]
[OGL LOG][Proc: 0]p: regenerate_distributed_matrix: 109.596 [ms]
[OGL LOG][Proc: 0]p_matrix: call_update: 110.355 [ms]
[OGL LOG][Proc: 0]p_rhs: call_update: 1.519 [ms]
[OGL LOG][Preconditioner.H:346] Generate preconditioner Multigrid MaxLevels 9 MinCoarseRows 10 ZeroGuess 1 Cycle v
[OGL LOG][Proc: 0]p: init_precond: 343.081 [ms]
[OGL LOG][StoppingCriterion.H:239] Creating stopping criterion with minIter 124 frequency 3
[OGL LOG][Proc: 0]p: generate_solver: 0.009 [ms]
[OGL LOG][Proc: 0]p: solve: 1788.72 [ms]
[OGL LOG][Proc: 0]p: copy_x_back: 2.901 [ms]
[OGL LOG][lduLduBase.H:330] 
Statistics:
	Time per iteration: 8855 [mu s]
	Time per residual norm calculation: 1419.000000 [mu s]
	Time per iteration and DOF: 1.106875 [ns]
	Retrieve results bandwidth 2.757000 [GByte/s]
[OGL LOG][Proc: 0]p: solve_multi_gpu: 2273.02 [ms]
MultigridcudaGKOCG:  Solving for p, Initial residual = 0.824113, Final residual = 7.79568e-05, No Iterations 202
[INFO] SolveP: 2313.53 [ms]
time step continuity errors : sum local = 1.14249e-08, global = -1.25137e-21, cumulative = -5.64308e-21
[INFO] ContinuityError: 22.945 [ms]
[INFO] CorrectBoundary: 0.419 [ms]
[INFO] PISOStep: 2663.73 [ms]
[INFO] MatrixAssemblyPI: 190.399 [ms]
[INFO] AdjustPhi: 11.482 [ms]
[INFO] ConstrainPressure: 0.002 [ms]
[INFO] MatrixAssemblyPII: 55.803 [ms]
[OGL LOG][Proc: 0]: global_index_init: 0.016 [ms]
[OGL LOG][Proc: 0]p_local_coeffs: call_update: 0 [ms]
[OGL LOG][Proc: 0]p_non_local_coeffs: call_update: 0 [ms]
[OGL LOG][Proc: 0]p: update_local_matrix_data: 34.068 [ms]
[OGL LOG][Proc: 0]p: update_non_local_matrix_data: 0.847 [ms]
[OGL LOG][Proc: 0]p: regenerate_distributed_matrix: 109.493 [ms]
[OGL LOG][Proc: 0]p_matrix: call_update: 110.244 [ms]
[OGL LOG][Proc: 0]p_rhs: call_update: 2.369 [ms]
[OGL LOG][Preconditioner.H:346] Generate preconditioner Multigrid MaxLevels 9 MinCoarseRows 10 ZeroGuess 1 Cycle v
[OGL LOG][Proc: 0]p: init_precond: 321.307 [ms]
[OGL LOG][StoppingCriterion.H:239] Creating stopping criterion with minIter 121 frequency 3
[OGL LOG][Proc: 0]p: generate_solver: 0.009 [ms]
[OGL LOG][Proc: 0]p: solve: 1794.08 [ms]
[OGL LOG][Proc: 0]p: copy_x_back: 2.973 [ms]
[OGL LOG][lduLduBase.H:330] 
Statistics:
	Time per iteration: 8881 [mu s]
	Time per residual norm calculation: 1262.000000 [mu s]
	Time per iteration and DOF: 1.110125 [ns]
	Retrieve results bandwidth 2.690000 [GByte/s]
[OGL LOG][Proc: 0]p: solve_multi_gpu: 2257.49 [ms]
MultigridcudaGKOCG:  Solving for p, Initial residual = 0.767417, Final residual = 6.9503e-05, No Iterations 202
[INFO] SolveP: 2299.47 [ms]
time step continuity errors : sum local = 1.03698e-08, global = 1.37881e-22, cumulative = -5.5052e-21
[INFO] ContinuityError: 21.91 [ms]
[INFO] CorrectBoundary: 0.648 [ms]
[INFO] PISOStep: 2648.91 [ms]
[INFO] TimeStep: 6964.61 [ms]
ExecutionTime = 71.24 s  ClockTime = 73 s

Time = 0.00075

Courant Number mean: 0.0243584 max: 0.471978
[INFO] MatrixAssemblyU: 167.359 [ms]
DILUPBiCGStab:  Solving for Ux, Initial residual = 0.0547503, Final residual = 0.00175893, No Iterations 5
DILUPBiCGStab:  Solving for Uy, Initial residual = 0.182039, Final residual = 0.00706961, No Iterations 5
DILUPBiCGStab:  Solving for Uz, Initial residual = 0.815266, Final residual = 0.0253189, No Iterations 5
[INFO] MomentumPredictor: 1456.52 [ms]
[INFO] MatrixAssemblyPI: 192.897 [ms]
[INFO] AdjustPhi: 9.608 [ms]
[INFO] ConstrainPressure: 0.002 [ms]
[INFO] MatrixAssemblyPII: 55.606 [ms]
[OGL LOG][Proc: 0]: global_index_init: 0.032 [ms]
[OGL LOG][Proc: 0]p_local_coeffs: call_update: 0 [ms]
[OGL LOG][Proc: 0]p_non_local_coeffs: call_update: 0 [ms]
[OGL LOG][Proc: 0]p: update_local_matrix_data: 32.57 [ms]
[OGL LOG][Proc: 0]p: update_non_local_matrix_data: 0.743 [ms]
[OGL LOG][Proc: 0]p: regenerate_distributed_matrix: 107.531 [ms]
[OGL LOG][Proc: 0]p_matrix: call_update: 108.689 [ms]
[OGL LOG][Proc: 0]p_rhs: call_update: 1.097 [ms]
[OGL LOG][Preconditioner.H:346] Generate preconditioner Multigrid MaxLevels 9 MinCoarseRows 10 ZeroGuess 1 Cycle v
[OGL LOG][Proc: 0]p: init_precond: 327.47 [ms]
[OGL LOG][StoppingCriterion.H:239] Creating stopping criterion with minIter 121 frequency 3
[OGL LOG][Proc: 0]p: generate_solver: 0.009 [ms]
[OGL LOG][Proc: 0]p: solve: 1624.99 [ms]
[OGL LOG][Proc: 0]p: copy_x_back: 2.988 [ms]
[OGL LOG][lduLduBase.H:330] 
Statistics:
	Time per iteration: 8977 [mu s]
	Time per residual norm calculation: 1265.000000 [mu s]
	Time per iteration and DOF: 1.122125 [ns]
	Retrieve results bandwidth 2.677000 [GByte/s]
[OGL LOG][Proc: 0]p: solve_multi_gpu: 2092.08 [ms]
MultigridcudaGKOCG:  Solving for p, Initial residual = 0.848674, Final residual = 9.05955e-05, No Iterations 181
[INFO] SolveP: 2132.35 [ms]
time step continuity errors : sum local = 1.21502e-08, global = 6.04411e-22, cumulative = -4.90079e-21
[INFO] ContinuityError: 23.183 [ms]
[INFO] CorrectBoundary: 0.381 [ms]
[INFO] PISOStep: 2480.06 [ms]
[INFO] MatrixAssemblyPI: 186.972 [ms]
[INFO] AdjustPhi: 10.851 [ms]
[INFO] ConstrainPressure: 0.003 [ms]
[INFO] MatrixAssemblyPII: 54.983 [ms]
[OGL LOG][Proc: 0]: global_index_init: 0.018 [ms]
[OGL LOG][Proc: 0]p_local_coeffs: call_update: 0 [ms]
[OGL LOG][Proc: 0]p_non_local_coeffs: call_update: 0 [ms]
[OGL LOG][Proc: 0]p: update_local_matrix_data: 33.487 [ms]
[OGL LOG][Proc: 0]p: update_non_local_matrix_data: 0.789 [ms]
[OGL LOG][Proc: 0]p: regenerate_distributed_matrix: 109.791 [ms]
[OGL LOG][Proc: 0]p_matrix: call_update: 110.945 [ms]
[OGL LOG][Proc: 0]p_rhs: call_update: 1.087 [ms]
[OGL LOG][Preconditioner.H:346] Generate preconditioner Multigrid MaxLevels 9 MinCoarseRows 10 ZeroGuess 1 Cycle v
[OGL LOG][Proc: 0]p: init_precond: 333.299 [ms]
[OGL LOG][StoppingCriterion.H:239] Creating stopping criterion with minIter 108 frequency 3
[OGL LOG][Proc: 0]p: generate_solver: 0.009 [ms]
[OGL LOG][Proc: 0]p: solve: 1605.98 [ms]
[OGL LOG][Proc: 0]p: copy_x_back: 3.001 [ms]
[OGL LOG][lduLduBase.H:330] 
Statistics:
	Time per iteration: 8872 [mu s]
	Time per residual norm calculation: 1119.000000 [mu s]
	Time per iteration and DOF: 1.109000 [ns]
	Retrieve results bandwidth 2.665000 [GByte/s]
[OGL LOG][Proc: 0]p: solve_multi_gpu: 2078.21 [ms]
MultigridcudaGKOCG:  Solving for p, Initial residual = 0.815325, Final residual = 8.77592e-05, No Iterations 181
[INFO] SolveP: 2121.52 [ms]
time step continuity errors : sum local = 1.15171e-08, global = 6.09787e-23, cumulative = -4.83981e-21
[INFO] ContinuityError: 23.342 [ms]
[INFO] CorrectBoundary: 0.501 [ms]
[INFO] PISOStep: 2467.47 [ms]
[INFO] TimeStep: 6595.05 [ms]
ExecutionTime = 77.81 s  ClockTime = 80 s

Time = 0.001

Courant Number mean: 0.029233 max: 0.467771
[INFO] MatrixAssemblyU: 173.329 [ms]
DILUPBiCGStab:  Solving for Ux, Initial residual = 0.0346576, Final residual = 0.00116403, No Iterations 5
DILUPBiCGStab:  Solving for Uy, Initial residual = 0.128989, Final residual = 0.00438794, No Iterations 5
DILUPBiCGStab:  Solving for Uz, Initial residual = 0.601926, Final residual = 0.0149478, No Iterations 5
[INFO] MomentumPredictor: 1459.64 [ms]
[INFO] MatrixAssemblyPI: 193.077 [ms]
[INFO] AdjustPhi: 10.691 [ms]
[INFO] ConstrainPressure: 0.003 [ms]
[INFO] MatrixAssemblyPII: 55.782 [ms]
[OGL LOG][Proc: 0]: global_index_init: 0.099 [ms]
[OGL LOG][Proc: 0]p_local_coeffs: call_update: 0 [ms]
[OGL LOG][Proc: 0]p_non_local_coeffs: call_update: 0 [ms]
[OGL LOG][Proc: 0]p: update_local_matrix_data: 32.145 [ms]
[OGL LOG][Proc: 0]p: update_non_local_matrix_data: 0.745 [ms]
[OGL LOG][Proc: 0]p: regenerate_distributed_matrix: 107.399 [ms]
[OGL LOG][Proc: 0]p_matrix: call_update: 108.531 [ms]
[OGL LOG][Proc: 0]p_rhs: call_update: 1.1 [ms]
[OGL LOG][Preconditioner.H:346] Generate preconditioner Multigrid MaxLevels 9 MinCoarseRows 10 ZeroGuess 1 Cycle v
[OGL LOG][Proc: 0]p: init_precond: 345.131 [ms]
[OGL LOG][StoppingCriterion.H:239] Creating stopping criterion with minIter 108 frequency 3
[OGL LOG][Proc: 0]p: generate_solver: 0.009 [ms]
[OGL LOG][Proc: 0]p: solve: 974.879 [ms]
[OGL LOG][Proc: 0]p: copy_x_back: 2.848 [ms]
[OGL LOG][lduLduBase.H:330] 
Statistics:
	Time per iteration: 8943 [mu s]
	Time per residual norm calculation: 1418.000000 [mu s]
	Time per iteration and DOF: 1.117875 [ns]
	Retrieve results bandwidth 2.808000 [GByte/s]
[OGL LOG][Proc: 0]p: solve_multi_gpu: 1460.95 [ms]
MultigridcudaGKOCG:  Solving for p, Initial residual = 0.769297, Final residual = 1.15788e-05, No Iterations 109
[INFO] SolveP: 1501.54 [ms]
time step continuity errors : sum local = 1.52781e-09, global = -3.40824e-23, cumulative = -4.87389e-21
[INFO] ContinuityError: 23.066 [ms]
[INFO] CorrectBoundary: 0.392 [ms]
[INFO] PISOStep: 1853.41 [ms]
[INFO] MatrixAssemblyPI: 189.67 [ms]
[INFO] AdjustPhi: 9.51 [ms]
[INFO] ConstrainPressure: 0.003 [ms]
[INFO] MatrixAssemblyPII: 55.569 [ms]
[OGL LOG][Proc: 0]: global_index_init: 0.026 [ms]
[OGL LOG][Proc: 0]p_local_coeffs: call_update: 0 [ms]
[OGL LOG][Proc: 0]p_non_local_coeffs: call_update: 0 [ms]
[OGL LOG][Proc: 0]p: update_local_matrix_data: 33.901 [ms]
[OGL LOG][Proc: 0]p: update_non_local_matrix_data: 0.782 [ms]
[OGL LOG][Proc: 0]p: regenerate_distributed_matrix: 112.428 [ms]
[OGL LOG][Proc: 0]p_matrix: call_update: 113.674 [ms]
[OGL LOG][Proc: 0]p_rhs: call_update: 8.558 [ms]
[OGL LOG][Preconditioner.H:346] Generate preconditioner Multigrid MaxLevels 9 MinCoarseRows 10 ZeroGuess 1 Cycle v
[OGL LOG][Proc: 0]p: init_precond: 412.064 [ms]
[OGL LOG][StoppingCriterion.H:239] Creating stopping criterion with minIter 65 frequency 2
[OGL LOG][Proc: 0]p: generate_solver: 0.009 [ms]
[OGL LOG][Proc: 0]p: solve: 803.253 [ms]
[OGL LOG][Proc: 0]p: copy_x_back: 2.938 [ms]
[OGL LOG][lduLduBase.H:330] 
Statistics:
	Time per iteration: 9450 [mu s]
	Time per residual norm calculation: 1119.000000 [mu s]
	Time per iteration and DOF: 1.181250 [ns]
	Retrieve results bandwidth 2.722000 [GByte/s]
[OGL LOG][Proc: 0]p: solve_multi_gpu: 1366.95 [ms]
MultigridcudaGKOCG:  Solving for p, Initial residual = 0.706613, Final residual = 8.39446e-05, No Iterations 85
[INFO] SolveP: 1410.15 [ms]
time step continuity errors : sum local = 1.03411e-08, global = 1.37262e-21, cumulative = -3.50127e-21
[INFO] ContinuityError: 22.394 [ms]
[INFO] CorrectBoundary: 0.382 [ms]
[INFO] PISOStep: 1757.16 [ms]
[INFO] TimeStep: 5266.13 [ms]
ExecutionTime = 82.95 s  ClockTime = 85 s

Time = 0.00125

Courant Number mean: 0.0333806 max: 0.472899
[INFO] MatrixAssemblyU: 166.864 [ms]
DILUPBiCGStab:  Solving for Ux, Initial residual = 0.0271084, Final residual = 0.000842882, No Iterations 5
DILUPBiCGStab:  Solving for Uy, Initial residual = 0.0811522, Final residual = 0.00325785, No Iterations 5
DILUPBiCGStab:  Solving for Uz, Initial residual = 0.449068, Final residual = 0.0110277, No Iterations 5
[INFO] MomentumPredictor: 1463.7 [ms]
[INFO] MatrixAssemblyPI: 194.211 [ms]
[INFO] AdjustPhi: 9.462 [ms]
[INFO] ConstrainPressure: 0.002 [ms]
[INFO] MatrixAssemblyPII: 56.126 [ms]
[OGL LOG][Proc: 0]: global_index_init: 0.119 [ms]
[OGL LOG][Proc: 0]p_local_coeffs: call_update: 0 [ms]
[OGL LOG][Proc: 0]p_non_local_coeffs: call_update: 0 [ms]
[OGL LOG][Proc: 0]p: update_local_matrix_data: 32.36 [ms]
[OGL LOG][Proc: 0]p: update_non_local_matrix_data: 0.771 [ms]
[OGL LOG][Proc: 0]p: regenerate_distributed_matrix: 104.287 [ms]
[OGL LOG][Proc: 0]p_matrix: call_update: 105.328 [ms]
[OGL LOG][Proc: 0]p_rhs: call_update: 1.568 [ms]
[OGL LOG][Preconditioner.H:346] Generate preconditioner Multigrid MaxLevels 9 MinCoarseRows 10 ZeroGuess 1 Cycle v
[OGL LOG][Proc: 0]p: init_precond: 331.262 [ms]
[OGL LOG][StoppingCriterion.H:239] Creating stopping criterion with minIter 51 frequency 2
[OGL LOG][Proc: 0]p: generate_solver: 0.009 [ms]
[OGL LOG][Proc: 0]p: solve: 824.876 [ms]
[OGL LOG][Proc: 0]p: copy_x_back: 3.195 [ms]
[OGL LOG][lduLduBase.H:330] 
Statistics:
	Time per iteration: 9481 [mu s]
	Time per residual norm calculation: 1264.000000 [mu s]
	Time per iteration and DOF: 1.185125 [ns]
	Retrieve results bandwidth 2.503000 [GByte/s]
[OGL LOG][Proc: 0]p: solve_multi_gpu: 1296.54 [ms]
MultigridcudaGKOCG:  Solving for p, Initial residual = 0.774722, Final residual = 7.77724e-05, No Iterations 87
[INFO] SolveP: 1336.48 [ms]
time step continuity errors : sum local = 8.21702e-09, global = -2.37375e-22, cumulative = -3.73865e-21
[INFO] ContinuityError: 22.61 [ms]
[INFO] CorrectBoundary: 0.377 [ms]
[INFO] PISOStep: 1689.45 [ms]
[INFO] MatrixAssemblyPI: 188.538 [ms]
[INFO] AdjustPhi: 9.6 [ms]
[INFO] ConstrainPressure: 0.003 [ms]
[INFO] MatrixAssemblyPII: 57.251 [ms]
[OGL LOG][Proc: 0]: global_index_init: 0.016 [ms]
[OGL LOG][Proc: 0]p_local_coeffs: call_update: 0 [ms]
[OGL LOG][Proc: 0]p_non_local_coeffs: call_update: 0 [ms]
[OGL LOG][Proc: 0]p: update_local_matrix_data: 33.943 [ms]
[OGL LOG][Proc: 0]p: update_non_local_matrix_data: 0.78 [ms]
[OGL LOG][Proc: 0]p: regenerate_distributed_matrix: 110.258 [ms]
[OGL LOG][Proc: 0]p_matrix: call_update: 111.282 [ms]
[OGL LOG][Proc: 0]p_rhs: call_update: 1.102 [ms]
[OGL LOG][Preconditioner.H:346] Generate preconditioner Multigrid MaxLevels 9 MinCoarseRows 10 ZeroGuess 1 Cycle v
[OGL LOG][Proc: 0]p: init_precond: 323.005 [ms]
[OGL LOG][StoppingCriterion.H:239] Creating stopping criterion with minIter 52 frequency 2
[OGL LOG][Proc: 0]p: generate_solver: 0.009 [ms]
[OGL LOG][Proc: 0]p: solve: 803.264 [ms]
[OGL LOG][Proc: 0]p: copy_x_back: 2.904 [ms]
[OGL LOG][lduLduBase.H:330] 
Statistics:
	Time per iteration: 9450 [mu s]
	Time per residual norm calculation: 1260.000000 [mu s]
	Time per iteration and DOF: 1.181250 [ns]
	Retrieve results bandwidth 2.754000 [GByte/s]
[OGL LOG][Proc: 0]p: solve_multi_gpu: 1267.95 [ms]
MultigridcudaGKOCG:  Solving for p, Initial residual = 0.723554, Final residual = 9.70764e-05, No Iterations 85
[INFO] SolveP: 1310.09 [ms]
time step continuity errors : sum local = 9.72424e-09, global = -1.04359e-21, cumulative = -4.78224e-21
[INFO] ContinuityError: 22.411 [ms]
[INFO] CorrectBoundary: 0.386 [ms]
[INFO] PISOStep: 1655.76 [ms]
[INFO] TimeStep: 5000.84 [ms]
ExecutionTime = 87.94 s  ClockTime = 90 s

Time = 0.0015

Courant Number mean: 0.036686 max: 0.475571
[INFO] MatrixAssemblyU: 173.657 [ms]
DILUPBiCGStab:  Solving for Ux, Initial residual = 0.0203671, Final residual = 0.000602806, No Iterations 5
DILUPBiCGStab:  Solving for Uy, Initial residual = 0.0656918, Final residual = 0.00224272, No Iterations 5
DILUPBiCGStab:  Solving for Uz, Initial residual = 0.327121, Final residual = 0.00784468, No Iterations 5
[INFO] MomentumPredictor: 1463.28 [ms]
[INFO] MatrixAssemblyPI: 195.018 [ms]
[INFO] AdjustPhi: 9.514 [ms]
[INFO] ConstrainPressure: 0.003 [ms]
[INFO] MatrixAssemblyPII: 55.793 [ms]
[OGL LOG][Proc: 0]: global_index_init: 0.083 [ms]
[OGL LOG][Proc: 0]p_local_coeffs: call_update: 0 [ms]
[OGL LOG][Proc: 0]p_non_local_coeffs: call_update: 0 [ms]
[OGL LOG][Proc: 0]p: update_local_matrix_data: 32.273 [ms]
[OGL LOG][Proc: 0]p: update_non_local_matrix_data: 0.805 [ms]
[OGL LOG][Proc: 0]p: regenerate_distributed_matrix: 103.999 [ms]
[OGL LOG][Proc: 0]p_matrix: call_update: 105.206 [ms]
[OGL LOG][Proc: 0]p_rhs: call_update: 1.761 [ms]
[OGL LOG][Preconditioner.H:346] Generate preconditioner Multigrid MaxLevels 9 MinCoarseRows 10 ZeroGuess 1 Cycle v
[OGL LOG][Proc: 0]p: init_precond: 344.486 [ms]
[OGL LOG][StoppingCriterion.H:239] Creating stopping criterion with minIter 51 frequency 2
[OGL LOG][Proc: 0]p: generate_solver: 0.01 [ms]
[OGL LOG][Proc: 0]p: solve: 787.888 [ms]
[OGL LOG][Proc: 0]p: copy_x_back: 2.844 [ms]
[OGL LOG][lduLduBase.H:330] 
Statistics:
	Time per iteration: 9269 [mu s]
	Time per residual norm calculation: 1119.000000 [mu s]
	Time per iteration and DOF: 1.158625 [ns]
	Retrieve results bandwidth 2.812000 [GByte/s]
[OGL LOG][Proc: 0]p: solve_multi_gpu: 1270.71 [ms]
MultigridcudaGKOCG:  Solving for p, Initial residual = 0.681172, Final residual = 7.18727e-05, No Iterations 85
[INFO] SolveP: 1312.96 [ms]
time step continuity errors : sum local = 7.04618e-09, global = -1.40442e-21, cumulative = -6.18666e-21
[INFO] ContinuityError: 21.973 [ms]
[INFO] CorrectBoundary: 0.381 [ms]
[INFO] PISOStep: 1664.15 [ms]
[INFO] MatrixAssemblyPI: 187.595 [ms]
[INFO] AdjustPhi: 10.085 [ms]
[INFO] ConstrainPressure: 0.002 [ms]
[INFO] MatrixAssemblyPII: 58.063 [ms]
[OGL LOG][Proc: 0]: global_index_init: 0.058 [ms]
[OGL LOG][Proc: 0]p_local_coeffs: call_update: 0 [ms]
[OGL LOG][Proc: 0]p_non_local_coeffs: call_update: 0 [ms]
[OGL LOG][Proc: 0]p: update_local_matrix_data: 33.723 [ms]
[OGL LOG][Proc: 0]p: update_non_local_matrix_data: 0.788 [ms]
[OGL LOG][Proc: 0]p: regenerate_distributed_matrix: 110.525 [ms]
[OGL LOG][Proc: 0]p_matrix: call_update: 111.73 [ms]
[OGL LOG][Proc: 0]p_rhs: call_update: 1.126 [ms]
[OGL LOG][Preconditioner.H:346] Generate preconditioner Multigrid MaxLevels 9 MinCoarseRows 10 ZeroGuess 1 Cycle v
[OGL LOG][Proc: 0]p: init_precond: 325.371 [ms]
[OGL LOG][StoppingCriterion.H:239] Creating stopping criterion with minIter 51 frequency 2
[OGL LOG][Proc: 0]p: generate_solver: 0.01 [ms]
[OGL LOG][Proc: 0]p: solve: 740.359 [ms]
[OGL LOG][Proc: 0]p: copy_x_back: 2.85 [ms]
[OGL LOG][lduLduBase.H:330] 
Statistics:
	Time per iteration: 9371 [mu s]
	Time per residual norm calculation: 1267.000000 [mu s]
	Time per iteration and DOF: 1.171375 [ns]
	Retrieve results bandwidth 2.807000 [GByte/s]
[OGL LOG][Proc: 0]p: solve_multi_gpu: 1206.94 [ms]
MultigridcudaGKOCG:  Solving for p, Initial residual = 0.620391, Final residual = 9.02659e-05, No Iterations 79
[INFO] SolveP: 1248.64 [ms]
time step continuity errors : sum local = 8.5123e-09, global = 1.01511e-22, cumulative = -6.08515e-21
[INFO] ContinuityError: 23.008 [ms]
[INFO] CorrectBoundary: 0.329 [ms]
[INFO] PISOStep: 1593.88 [ms]
[INFO] TimeStep: 4919.15 [ms]
ExecutionTime = 92.84 s  ClockTime = 95 s

Time = 0.00175

Courant Number mean: 0.0396039 max: 0.477516
[INFO] MatrixAssemblyU: 172.888 [ms]
DILUPBiCGStab:  Solving for Ux, Initial residual = 0.0174138, Final residual = 0.000479308, No Iterations 5
DILUPBiCGStab:  Solving for Uy, Initial residual = 0.0487652, Final residual = 0.00163082, No Iterations 5
DILUPBiCGStab:  Solving for Uz, Initial residual = 0.251157, Final residual = 0.00717182, No Iterations 5
[INFO] MomentumPredictor: 1465.11 [ms]
[INFO] MatrixAssemblyPI: 194.452 [ms]
[INFO] AdjustPhi: 9.475 [ms]
[INFO] ConstrainPressure: 0.002 [ms]
[INFO] MatrixAssemblyPII: 55.843 [ms]
[OGL LOG][Proc: 0]: global_index_init: 0.015 [ms]
[OGL LOG][Proc: 0]p_local_coeffs: call_update: 0 [ms]
[OGL LOG][Proc: 0]p_non_local_coeffs: call_update: 0 [ms]
[OGL LOG][Proc: 0]p: update_local_matrix_data: 31.746 [ms]
[OGL LOG][Proc: 0]p: update_non_local_matrix_data: 0.873 [ms]
[OGL LOG][Proc: 0]p: regenerate_distributed_matrix: 109.075 [ms]
[OGL LOG][Proc: 0]p_matrix: call_update: 110.421 [ms]
[OGL LOG][Proc: 0]p_rhs: call_update: 1.093 [ms]
[OGL LOG][Preconditioner.H:346] Generate preconditioner Multigrid MaxLevels 9 MinCoarseRows 10 ZeroGuess 1 Cycle v
[OGL LOG][Proc: 0]p: init_precond: 332.97 [ms]
[OGL LOG][StoppingCriterion.H:239] Creating stopping criterion with minIter 47 frequency 2
[OGL LOG][Proc: 0]p: generate_solver: 0.01 [ms]
[OGL LOG][Proc: 0]p: solve: 1699.39 [ms]
[OGL LOG][Proc: 0]p: copy_x_back: 2.966 [ms]
[OGL LOG][lduLduBase.H:330] 
Statistics:
	Time per iteration: 9185 [mu s]
	Time per residual norm calculation: 1122.000000 [mu s]
	Time per iteration and DOF: 1.148125 [ns]
	Retrieve results bandwidth 2.697000 [GByte/s]
[OGL LOG][Proc: 0]p: solve_multi_gpu: 2173.71 [ms]
MultigridcudaGKOCG:  Solving for p, Initial residual = 0.677003, Final residual = 9.31745e-05, No Iterations 185
[INFO] SolveP: 2213.93 [ms]
time step continuity errors : sum local = 7.20255e-09, global = -2.1037e-21, cumulative = -8.18886e-21
[INFO] ContinuityError: 24.732 [ms]
[INFO] CorrectBoundary: 0.891 [ms]
[INFO] PISOStep: 2567.36 [ms]
[INFO] MatrixAssemblyPI: 188.896 [ms]
[INFO] AdjustPhi: 9.472 [ms]
[INFO] ConstrainPressure: 0.002 [ms]
[INFO] MatrixAssemblyPII: 55.514 [ms]
[OGL LOG][Proc: 0]: global_index_init: 0.016 [ms]
[OGL LOG][Proc: 0]p_local_coeffs: call_update: 0 [ms]
[OGL LOG][Proc: 0]p_non_local_coeffs: call_update: 0 [ms]
[OGL LOG][Proc: 0]p: update_local_matrix_data: 34.35 [ms]
[OGL LOG][Proc: 0]p: update_non_local_matrix_data: 0.818 [ms]
[OGL LOG][Proc: 0]p: regenerate_distributed_matrix: 110.779 [ms]
[OGL LOG][Proc: 0]p_matrix: call_update: 112.093 [ms]
[OGL LOG][Proc: 0]p_rhs: call_update: 1.107 [ms]
[OGL LOG][Preconditioner.H:346] Generate preconditioner Multigrid MaxLevels 9 MinCoarseRows 10 ZeroGuess 1 Cycle v
[OGL LOG][Proc: 0]p: init_precond: 336.202 [ms]
[OGL LOG][StoppingCriterion.H:239] Creating stopping criterion with minIter 111 frequency 3
[OGL LOG][Proc: 0]p: generate_solver: 0.01 [ms]
[OGL LOG][Proc: 0]p: solve: 1627.28 [ms]
[OGL LOG][Proc: 0]p: copy_x_back: 3.031 [ms]
[OGL LOG][lduLduBase.H:330] 
Statistics:
	Time per iteration: 8843 [mu s]
	Time per residual norm calculation: 1269.000000 [mu s]
	Time per iteration and DOF: 1.105375 [ns]
	Retrieve results bandwidth 2.639000 [GByte/s]
[OGL LOG][Proc: 0]p: solve_multi_gpu: 2106.56 [ms]
MultigridcudaGKOCG:  Solving for p, Initial residual = 0.617203, Final residual = 9.53478e-05, No Iterations 184
[INFO] SolveP: 2148.81 [ms]
time step continuity errors : sum local = 7.33124e-09, global = -2.29566e-21, cumulative = -1.04845e-20
[INFO] ContinuityError: 22.791 [ms]
[INFO] CorrectBoundary: 0.337 [ms]
[INFO] PISOStep: 2494.01 [ms]
[INFO] TimeStep: 6722.35 [ms]
ExecutionTime = 99.56 s  ClockTime = 102 s

Time = 0.002

Courant Number mean: 0.0421308 max: 0.479221
[INFO] MatrixAssemblyU: 172.212 [ms]
DILUPBiCGStab:  Solving for Ux, Initial residual = 0.0142552, Final residual = 0.000366345, No Iterations 5
DILUPBiCGStab:  Solving for Uy, Initial residual = 0.0415761, Final residual = 0.00126875, No Iterations 5
DILUPBiCGStab:  Solving for Uz, Initial residual = 0.194756, Final residual = 0.00539935, No Iterations 5
[INFO] MomentumPredictor: 1463.43 [ms]
[INFO] MatrixAssemblyPI: 194.698 [ms]
[INFO] AdjustPhi: 9.467 [ms]
[INFO] ConstrainPressure: 0.003 [ms]
[INFO] MatrixAssemblyPII: 55.533 [ms]
[OGL LOG][Proc: 0]: global_index_init: 0.076 [ms]
[OGL LOG][Proc: 0]p_local_coeffs: call_update: 0 [ms]
[OGL LOG][Proc: 0]p_non_local_coeffs: call_update: 0 [ms]
[OGL LOG][Proc: 0]p: update_local_matrix_data: 31.424 [ms]
[OGL LOG][Proc: 0]p: update_non_local_matrix_data: 0.82 [ms]
[OGL LOG][Proc: 0]p: regenerate_distributed_matrix: 108.102 [ms]
[OGL LOG][Proc: 0]p_matrix: call_update: 109.148 [ms]
[OGL LOG][Proc: 0]p_rhs: call_update: 1.075 [ms]
[OGL LOG][Preconditioner.H:346] Generate preconditioner Multigrid MaxLevels 9 MinCoarseRows 10 ZeroGuess 1 Cycle v
[OGL LOG][Proc: 0]p: init_precond: 358.848 [ms]
[OGL LOG][StoppingCriterion.H:239] Creating stopping criterion with minIter 110 frequency 3
[OGL LOG][Proc: 0]p: generate_solver: 0.009 [ms]
[OGL LOG][Proc: 0]p: solve: 1525.6 [ms]
[OGL LOG][Proc: 0]p: copy_x_back: 2.984 [ms]
[OGL LOG][lduLduBase.H:330] 
Statistics:
	Time per iteration: 8869 [mu s]
	Time per residual norm calculation: 1278.000000 [mu s]
	Time per iteration and DOF: 1.108625 [ns]
	Retrieve results bandwidth 2.680000 [GByte/s]
[OGL LOG][Proc: 0]p: solve_multi_gpu: 2026.11 [ms]
MultigridcudaGKOCG:  Solving for p, Initial residual = 0.585776, Final residual = 8.19486e-05, No Iterations 172
[INFO] SolveP: 2065.86 [ms]
time step continuity errors : sum local = 6.03004e-09, global = -1.52028e-21, cumulative = -1.20048e-20
[INFO] ContinuityError: 23.235 [ms]
[INFO] CorrectBoundary: 0.41 [ms]
[INFO] PISOStep: 2417.56 [ms]
[INFO] MatrixAssemblyPI: 187.036 [ms]
[INFO] AdjustPhi: 10.237 [ms]
[INFO] ConstrainPressure: 0.002 [ms]
[INFO] MatrixAssemblyPII: 54.883 [ms]
[OGL LOG][Proc: 0]: global_index_init: 0.094 [ms]
[OGL LOG][Proc: 0]p_local_coeffs: call_update: 0 [ms]
[OGL LOG][Proc: 0]p_non_local_coeffs: call_update: 0 [ms]
[OGL LOG][Proc: 0]p: update_local_matrix_data: 34.026 [ms]
[OGL LOG][Proc: 0]p: update_non_local_matrix_data: 0.761 [ms]
[OGL LOG][Proc: 0]p: regenerate_distributed_matrix: 110.261 [ms]
[OGL LOG][Proc: 0]p_matrix: call_update: 111.467 [ms]
[OGL LOG][Proc: 0]p_rhs: call_update: 1.135 [ms]
[OGL LOG][Preconditioner.H:346] Generate preconditioner Multigrid MaxLevels 9 MinCoarseRows 10 ZeroGuess 1 Cycle v
[OGL LOG][Proc: 0]p: init_precond: 335.744 [ms]
[OGL LOG][StoppingCriterion.H:239] Creating stopping criterion with minIter 103 frequency 3
[OGL LOG][Proc: 0]p: generate_solver: 0.01 [ms]
[OGL LOG][Proc: 0]p: solve: 1527.16 [ms]
[OGL LOG][Proc: 0]p: copy_x_back: 2.97 [ms]
[OGL LOG][lduLduBase.H:330] 
Statistics:
	Time per iteration: 8878 [mu s]
	Time per residual norm calculation: 1267.000000 [mu s]
	Time per iteration and DOF: 1.109750 [ns]
	Retrieve results bandwidth 2.693000 [GByte/s]
[OGL LOG][Proc: 0]p: solve_multi_gpu: 2004.75 [ms]
MultigridcudaGKOCG:  Solving for p, Initial residual = 0.527975, Final residual = 7.89143e-05, No Iterations 172
[INFO] SolveP: 2047.21 [ms]
time step continuity errors : sum local = 5.79205e-09, global = -2.82045e-21, cumulative = -1.48252e-20
[INFO] ContinuityError: 22.948 [ms]
[INFO] CorrectBoundary: 0.337 [ms]
[INFO] PISOStep: 2391.09 [ms]
[INFO] TimeStep: 6467.17 [ms]
ExecutionTime = 106.01 s  ClockTime = 108 s

Time = 0.00225

Courant Number mean: 0.044417 max: 0.48037
[INFO] MatrixAssemblyU: 172.334 [ms]
DILUPBiCGStab:  Solving for Ux, Initial residual = 0.0125369, Final residual = 0.000301359, No Iterations 5
DILUPBiCGStab:  Solving for Uy, Initial residual = 0.0334705, Final residual = 0.000893788, No Iterations 5
DILUPBiCGStab:  Solving for Uz, Initial residual = 0.157181, Final residual = 0.00516968, No Iterations 5
[INFO] MomentumPredictor: 1462.5 [ms]
[INFO] MatrixAssemblyPI: 193.204 [ms]
[INFO] AdjustPhi: 9.378 [ms]
[INFO] ConstrainPressure: 0.003 [ms]
[INFO] MatrixAssemblyPII: 55.753 [ms]
[OGL LOG][Proc: 0]: global_index_init: 0.053 [ms]
[OGL LOG][Proc: 0]p_local_coeffs: call_update: 0 [ms]
[OGL LOG][Proc: 0]p_non_local_coeffs: call_update: 0 [ms]
[OGL LOG][Proc: 0]p: update_local_matrix_data: 31.708 [ms]
[OGL LOG][Proc: 0]p: update_non_local_matrix_data: 0.786 [ms]
[OGL LOG][Proc: 0]p: regenerate_distributed_matrix: 107.938 [ms]
[OGL LOG][Proc: 0]p_matrix: call_update: 109.212 [ms]
[OGL LOG][Proc: 0]p_rhs: call_update: 1.067 [ms]
[OGL LOG][Preconditioner.H:346] Generate preconditioner Multigrid MaxLevels 9 MinCoarseRows 10 ZeroGuess 1 Cycle v
[OGL LOG][Proc: 0]p: init_precond: 346.143 [ms]
[OGL LOG][StoppingCriterion.H:239] Creating stopping criterion with minIter 103 frequency 3
[OGL LOG][Proc: 0]p: generate_solver: 0.009 [ms]
[OGL LOG][Proc: 0]p: solve: 1623.3 [ms]
[OGL LOG][Proc: 0]p: copy_x_back: 2.95 [ms]
[OGL LOG][lduLduBase.H:330] 
Statistics:
	Time per iteration: 8968 [mu s]
	Time per residual norm calculation: 1264.000000 [mu s]
	Time per iteration and DOF: 1.121000 [ns]
	Retrieve results bandwidth 2.711000 [GByte/s]
[OGL LOG][Proc: 0]p: solve_multi_gpu: 2111.7 [ms]
MultigridcudaGKOCG:  Solving for p, Initial residual = 0.572672, Final residual = 7.67093e-05, No Iterations 181
[INFO] SolveP: 2152.28 [ms]
time step continuity errors : sum local = 4.89288e-09, global = -5.23925e-21, cumulative = -2.00645e-20
[INFO] ContinuityError: 24.404 [ms]
[INFO] CorrectBoundary: 0.56 [ms]
[INFO] PISOStep: 2503.27 [ms]
[INFO] MatrixAssemblyPI: 188.785 [ms]
[INFO] AdjustPhi: 9.664 [ms]
[INFO] ConstrainPressure: 0.002 [ms]
[INFO] MatrixAssemblyPII: 55.162 [ms]
[OGL LOG][Proc: 0]: global_index_init: 0.015 [ms]
[OGL LOG][Proc: 0]p_local_coeffs: call_update: 0 [ms]
[OGL LOG][Proc: 0]p_non_local_coeffs: call_update: 0 [ms]
[OGL LOG][Proc: 0]p: update_local_matrix_data: 34.17 [ms]
[OGL LOG][Proc: 0]p: update_non_local_matrix_data: 0.787 [ms]
[OGL LOG][Proc: 0]p: regenerate_distributed_matrix: 110.27 [ms]
[OGL LOG][Proc: 0]p_matrix: call_update: 111.327 [ms]
[OGL LOG][Proc: 0]p_rhs: call_update: 1.079 [ms]
[OGL LOG][Preconditioner.H:346] Generate preconditioner Multigrid MaxLevels 9 MinCoarseRows 10 ZeroGuess 1 Cycle v
[OGL LOG][Proc: 0]p: init_precond: 334.942 [ms]
[OGL LOG][StoppingCriterion.H:239] Creating stopping criterion with minIter 108 frequency 3
[OGL LOG][Proc: 0]p: generate_solver: 0.009 [ms]
[OGL LOG][Proc: 0]p: solve: 1606.9 [ms]
[OGL LOG][Proc: 0]p: copy_x_back: 3.008 [ms]
[OGL LOG][lduLduBase.H:330] 
Statistics:
	Time per iteration: 8877 [mu s]
	Time per residual norm calculation: 1268.000000 [mu s]
	Time per iteration and DOF: 1.109625 [ns]
	Retrieve results bandwidth 2.659000 [GByte/s]
[OGL LOG][Proc: 0]p: solve_multi_gpu: 2084.34 [ms]
MultigridcudaGKOCG:  Solving for p, Initial residual = 0.511582, Final residual = 7.53756e-05, No Iterations 181
[INFO] SolveP: 2126.43 [ms]
time step continuity errors : sum local = 4.80614e-09, global = -4.71476e-21, cumulative = -2.47793e-20
[INFO] ContinuityError: 22.45 [ms]
[INFO] CorrectBoundary: 2.585 [ms]
[INFO] PISOStep: 2473.44 [ms]
[INFO] TimeStep: 6634.17 [ms]
ExecutionTime = 112.63 s  ClockTime = 115 s

Time = 0.0025

Courant Number mean: 0.0464716 max: 0.481474
[INFO] MatrixAssemblyU: 172.095 [ms]
DILUPBiCGStab:  Solving for Ux, Initial residual = 0.0107891, Final residual = 0.000242428, No Iterations 5
DILUPBiCGStab:  Solving for Uy, Initial residual = 0.0293329, Final residual = 0.000733512, No Iterations 5
DILUPBiCGStab:  Solving for Uz, Initial residual = 0.126844, Final residual = 0.00417976, No Iterations 5
[INFO] MomentumPredictor: 1472.95 [ms]
[INFO] MatrixAssemblyPI: 195.166 [ms]
[INFO] AdjustPhi: 9.494 [ms]
[INFO] ConstrainPressure: 0.003 [ms]
[INFO] MatrixAssemblyPII: 56.031 [ms]
[OGL LOG][Proc: 0]: global_index_init: 0.02 [ms]
[OGL LOG][Proc: 0]p_local_coeffs: call_update: 0 [ms]
[OGL LOG][Proc: 0]p_non_local_coeffs: call_update: 0 [ms]
[OGL LOG][Proc: 0]p: update_local_matrix_data: 31.677 [ms]
[OGL LOG][Proc: 0]p: update_non_local_matrix_data: 0.779 [ms]
[OGL LOG][Proc: 0]p: regenerate_distributed_matrix: 107.491 [ms]
[OGL LOG][Proc: 0]p_matrix: call_update: 108.849 [ms]
[OGL LOG][Proc: 0]p_rhs: call_update: 1.096 [ms]
[OGL LOG][Preconditioner.H:346] Generate preconditioner Multigrid MaxLevels 9 MinCoarseRows 10 ZeroGuess 1 Cycle v
[OGL LOG][Proc: 0]p: init_precond: 358.44 [ms]
[OGL LOG][StoppingCriterion.H:239] Creating stopping criterion with minIter 108 frequency 3
[OGL LOG][Proc: 0]p: generate_solver: 0.009 [ms]
[OGL LOG][Proc: 0]p: solve: 1526.78 [ms]
[OGL LOG][Proc: 0]p: copy_x_back: 3.139 [ms]
[OGL LOG][lduLduBase.H:330] 
Statistics:
	Time per iteration: 8876 [mu s]
	Time per residual norm calculation: 1264.000000 [mu s]
	Time per iteration and DOF: 1.109500 [ns]
	Retrieve results bandwidth 2.548000 [GByte/s]
[OGL LOG][Proc: 0]p: solve_multi_gpu: 2028.52 [ms]
MultigridcudaGKOCG:  Solving for p, Initial residual = 0.495935, Final residual = 8.00277e-05, No Iterations 172
[INFO] SolveP: 2068.61 [ms]
time step continuity errors : sum local = 4.95409e-09, global = -4.20924e-21, cumulative = -2.89885e-20
[INFO] ContinuityError: 22.939 [ms]
[INFO] CorrectBoundary: 0.783 [ms]
[INFO] PISOStep: 2420.83 [ms]
[INFO] MatrixAssemblyPI: 188.377 [ms]
[INFO] AdjustPhi: 10.426 [ms]
[INFO] ConstrainPressure: 0.003 [ms]
[INFO] MatrixAssemblyPII: 55.266 [ms]
[OGL LOG][Proc: 0]: global_index_init: 0.015 [ms]
[OGL LOG][Proc: 0]p_local_coeffs: call_update: 0 [ms]
[OGL LOG][Proc: 0]p_non_local_coeffs: call_update: 0 [ms]
[OGL LOG][Proc: 0]p: update_local_matrix_data: 34.268 [ms]
[OGL LOG][Proc: 0]p: update_non_local_matrix_data: 0.722 [ms]
[OGL LOG][Proc: 0]p: regenerate_distributed_matrix: 110.419 [ms]
[OGL LOG][Proc: 0]p_matrix: call_update: 111.478 [ms]
[OGL LOG][Proc: 0]p_rhs: call_update: 1.854 [ms]
[OGL LOG][Preconditioner.H:346] Generate preconditioner Multigrid MaxLevels 9 MinCoarseRows 10 ZeroGuess 1 Cycle v
[OGL LOG][Proc: 0]p: init_precond: 337.606 [ms]
[OGL LOG][StoppingCriterion.H:239] Creating stopping criterion with minIter 103 frequency 3
[OGL LOG][Proc: 0]p: generate_solver: 0.01 [ms]
[OGL LOG][Proc: 0]p: solve: 946.868 [ms]
[OGL LOG][Proc: 0]p: copy_x_back: 2.973 [ms]
[OGL LOG][lduLduBase.H:330] 
Statistics:
	Time per iteration: 8932 [mu s]
	Time per residual norm calculation: 1274.000000 [mu s]
	Time per iteration and DOF: 1.116500 [ns]
	Retrieve results bandwidth 2.690000 [GByte/s]
[OGL LOG][Proc: 0]p: solve_multi_gpu: 1427.37 [ms]
MultigridcudaGKOCG:  Solving for p, Initial residual = 0.443021, Final residual = 9.13832e-05, No Iterations 106
[INFO] SolveP: 1469.47 [ms]
time step continuity errors : sum local = 5.8745e-09, global = -2.1332e-21, cumulative = -3.11217e-20
[INFO] ContinuityError: 22.824 [ms]
[INFO] CorrectBoundary: 2.088 [ms]
[INFO] PISOStep: 1817.07 [ms]
[INFO] TimeStep: 5905.9 [ms]
ExecutionTime = 118.52 s  ClockTime = 121 s

Time = 0.00275

Courant Number mean: 0.0483595 max: 0.482249
[INFO] MatrixAssemblyU: 173.792 [ms]
DILUPBiCGStab:  Solving for Ux, Initial residual = 0.00966539, Final residual = 0.000204474, No Iterations 5
DILUPBiCGStab:  Solving for Uy, Initial residual = 0.0248219, Final residual = 0.000528853, No Iterations 5
DILUPBiCGStab:  Solving for Uz, Initial residual = 0.107285, Final residual = 0.00404816, No Iterations 5
[INFO] MomentumPredictor: 1464.13 [ms]
[INFO] MatrixAssemblyPI: 196.367 [ms]
[INFO] AdjustPhi: 9.527 [ms]
[INFO] ConstrainPressure: 0.003 [ms]
[INFO] MatrixAssemblyPII: 56.36 [ms]
[OGL LOG][Proc: 0]: global_index_init: 0.016 [ms]
[OGL LOG][Proc: 0]p_local_coeffs: call_update: 0 [ms]
[OGL LOG][Proc: 0]p_non_local_coeffs: call_update: 0 [ms]
[OGL LOG][Proc: 0]p: update_local_matrix_data: 31.733 [ms]
[OGL LOG][Proc: 0]p: update_non_local_matrix_data: 0.836 [ms]
[OGL LOG][Proc: 0]p: regenerate_distributed_matrix: 109.13 [ms]
[OGL LOG][Proc: 0]p_matrix: call_update: 110.247 [ms]
[OGL LOG][Proc: 0]p_rhs: call_update: 1.104 [ms]
[OGL LOG][Preconditioner.H:346] Generate preconditioner Multigrid MaxLevels 9 MinCoarseRows 10 ZeroGuess 1 Cycle v
[OGL LOG][Proc: 0]p: init_precond: 343.304 [ms]
[OGL LOG][StoppingCriterion.H:239] Creating stopping criterion with minIter 63 frequency 2
[OGL LOG][Proc: 0]p: generate_solver: 0.014 [ms]
[OGL LOG][Proc: 0]p: solve: 1584.71 [ms]
[OGL LOG][Proc: 0]p: copy_x_back: 2.848 [ms]
[OGL LOG][lduLduBase.H:330] 
Statistics:
	Time per iteration: 9160 [mu s]
	Time per residual norm calculation: 1414.000000 [mu s]
	Time per iteration and DOF: 1.145000 [ns]
	Retrieve results bandwidth 2.808000 [GByte/s]
[OGL LOG][Proc: 0]p: solve_multi_gpu: 2071.63 [ms]
MultigridcudaGKOCG:  Solving for p, Initial residual = 0.471399, Final residual = 9.97011e-05, No Iterations 173
[INFO] SolveP: 2111.85 [ms]
time step continuity errors : sum local = 5.58312e-09, global = -4.32913e-22, cumulative = -3.15546e-20
[INFO] ContinuityError: 23.756 [ms]
[INFO] CorrectBoundary: 0.393 [ms]
[INFO] PISOStep: 2466.02 [ms]
[INFO] MatrixAssemblyPI: 187.979 [ms]
[INFO] AdjustPhi: 9.75 [ms]
[INFO] ConstrainPressure: 0.003 [ms]
[INFO] MatrixAssemblyPII: 55.345 [ms]
[OGL LOG][Proc: 0]: global_index_init: 0.015 [ms]
[OGL LOG][Proc: 0]p_local_coeffs: call_update: 0 [ms]
[OGL LOG][Proc: 0]p_non_local_coeffs: call_update: 0 [ms]
[OGL LOG][Proc: 0]p: update_local_matrix_data: 32.362 [ms]
[OGL LOG][Proc: 0]p: update_non_local_matrix_data: 0.774 [ms]
[OGL LOG][Proc: 0]p: regenerate_distributed_matrix: 111.237 [ms]
[OGL LOG][Proc: 0]p_matrix: call_update: 112.342 [ms]
[OGL LOG][Proc: 0]p_rhs: call_update: 2.412 [ms]
[OGL LOG][Preconditioner.H:346] Generate preconditioner Multigrid MaxLevels 9 MinCoarseRows 10 ZeroGuess 1 Cycle v
[OGL LOG][Proc: 0]p: init_precond: 339.096 [ms]
[OGL LOG][StoppingCriterion.H:239] Creating stopping criterion with minIter 103 frequency 3
[OGL LOG][Proc: 0]p: generate_solver: 0.009 [ms]
[OGL LOG][Proc: 0]p: solve: 1561.77 [ms]
[OGL LOG][Proc: 0]p: copy_x_back: 2.959 [ms]
[OGL LOG][lduLduBase.H:330] 
Statistics:
	Time per iteration: 8924 [mu s]
	Time per residual norm calculation: 1119.000000 [mu s]
	Time per iteration and DOF: 1.115500 [ns]
	Retrieve results bandwidth 2.703000 [GByte/s]
[OGL LOG][Proc: 0]p: solve_multi_gpu: 2046.62 [ms]
MultigridcudaGKOCG:  Solving for p, Initial residual = 0.416654, Final residual = 7.3431e-05, No Iterations 175
[INFO] SolveP: 2088.29 [ms]
time step continuity errors : sum local = 4.11979e-09, global = -1.26241e-21, cumulative = -3.2817e-20
[INFO] ContinuityError: 24.235 [ms]
[INFO] CorrectBoundary: 1.968 [ms]
[INFO] PISOStep: 2436.53 [ms]
[INFO] TimeStep: 6563.38 [ms]
ExecutionTime = 125.07 s  ClockTime = 127 s

Time = 0.003

Courant Number mean: 0.0500919 max: 0.483037
[INFO] MatrixAssemblyU: 172.405 [ms]
DILUPBiCGStab:  Solving for Ux, Initial residual = 0.00857525, Final residual = 0.00017086, No Iterations 5
DILUPBiCGStab:  Solving for Uy, Initial residual = 0.0221927, Final residual = 0.000438985, No Iterations 5
DILUPBiCGStab:  Solving for Uz, Initial residual = 0.0891374, Final residual = 0.00333672, No Iterations 5
[INFO] MomentumPredictor: 1463.07 [ms]
[INFO] MatrixAssemblyPI: 194.919 [ms]
[INFO] AdjustPhi: 9.467 [ms]
[INFO] ConstrainPressure: 0.002 [ms]
[INFO] MatrixAssemblyPII: 56.412 [ms]
[OGL LOG][Proc: 0]: global_index_init: 0.028 [ms]
[OGL LOG][Proc: 0]p_local_coeffs: call_update: 0 [ms]
[OGL LOG][Proc: 0]p_non_local_coeffs: call_update: 0 [ms]
[OGL LOG][Proc: 0]p: update_local_matrix_data: 32.582 [ms]
[OGL LOG][Proc: 0]p: update_non_local_matrix_data: 0.763 [ms]
[OGL LOG][Proc: 0]p: regenerate_distributed_matrix: 108.678 [ms]
[OGL LOG][Proc: 0]p_matrix: call_update: 109.931 [ms]
[OGL LOG][Proc: 0]p_rhs: call_update: 1.109 [ms]
[OGL LOG][Preconditioner.H:346] Generate preconditioner Multigrid MaxLevels 9 MinCoarseRows 10 ZeroGuess 1 Cycle v
[OGL LOG][Proc: 0]p: init_precond: 331.785 [ms]
[OGL LOG][StoppingCriterion.H:239] Creating stopping criterion with minIter 105 frequency 3
[OGL LOG][Proc: 0]p: generate_solver: 0.008 [ms]
[OGL LOG][Proc: 0]p: solve: 1532.5 [ms]
[OGL LOG][Proc: 0]p: copy_x_back: 3.041 [ms]
[OGL LOG][lduLduBase.H:330] 
Statistics:
	Time per iteration: 8909 [mu s]
	Time per residual norm calculation: 1263.000000 [mu s]
	Time per iteration and DOF: 1.113625 [ns]
	Retrieve results bandwidth 2.630000 [GByte/s]
[OGL LOG][Proc: 0]p: solve_multi_gpu: 2007.91 [ms]
MultigridcudaGKOCG:  Solving for p, Initial residual = 0.414304, Final residual = 7.49688e-05, No Iterations 172
[INFO] SolveP: 2048.69 [ms]
time step continuity errors : sum local = 4.08097e-09, global = -4.04305e-21, cumulative = -3.68601e-20
[INFO] ContinuityError: 22.786 [ms]
[INFO] CorrectBoundary: 0.421 [ms]
[INFO] PISOStep: 2400.24 [ms]
[INFO] MatrixAssemblyPI: 187.285 [ms]
[INFO] AdjustPhi: 9.451 [ms]
[INFO] ConstrainPressure: 0.003 [ms]
[INFO] MatrixAssemblyPII: 55.326 [ms]
[OGL LOG][Proc: 0]: global_index_init: 0.015 [ms]
[OGL LOG][Proc: 0]p_local_coeffs: call_update: 0 [ms]
[OGL LOG][Proc: 0]p_non_local_coeffs: call_update: 0 [ms]
[OGL LOG][Proc: 0]p: update_local_matrix_data: 34.053 [ms]
[OGL LOG][Proc: 0]p: update_non_local_matrix_data: 0.775 [ms]
[OGL LOG][Proc: 0]p: regenerate_distributed_matrix: 110.767 [ms]
[OGL LOG][Proc: 0]p_matrix: call_update: 111.965 [ms]
[OGL LOG][Proc: 0]p_rhs: call_update: 1.103 [ms]
[OGL LOG][Preconditioner.H:346] Generate preconditioner Multigrid MaxLevels 9 MinCoarseRows 10 ZeroGuess 1 Cycle v
[OGL LOG][Proc: 0]p: init_precond: 325.143 [ms]
[OGL LOG][StoppingCriterion.H:239] Creating stopping criterion with minIter 103 frequency 3
[OGL LOG][Proc: 0]p: generate_solver: 0.009 [ms]
[OGL LOG][Proc: 0]p: solve: 1528.31 [ms]
[OGL LOG][Proc: 0]p: copy_x_back: 2.905 [ms]
[OGL LOG][lduLduBase.H:330] 
Statistics:
	Time per iteration: 8885 [mu s]
	Time per residual norm calculation: 1269.000000 [mu s]
	Time per iteration and DOF: 1.110625 [ns]
	Retrieve results bandwidth 2.753000 [GByte/s]
[OGL LOG][Proc: 0]p: solve_multi_gpu: 1996.14 [ms]
MultigridcudaGKOCG:  Solving for p, Initial residual = 0.367432, Final residual = 7.30117e-05, No Iterations 172
[INFO] SolveP: 2038.24 [ms]
time step continuity errors : sum local = 3.95605e-09, global = -1.77373e-21, cumulative = -3.86338e-20
[INFO] ContinuityError: 23.061 [ms]
[INFO] CorrectBoundary: 0.377 [ms]
[INFO] PISOStep: 2382.21 [ms]
[INFO] TimeStep: 6441.79 [ms]
ExecutionTime = 131.5 s  ClockTime = 134 s

Time = 0.00325

Courant Number mean: 0.051701 max: 0.483603
[INFO] MatrixAssemblyU: 171.838 [ms]
DILUPBiCGStab:  Solving for Ux, Initial residual = 0.00778704, Final residual = 0.000146915, No Iterations 5
DILUPBiCGStab:  Solving for Uy, Initial residual = 0.0194063, Final residual = 0.000338948, No Iterations 5
DILUPBiCGStab:  Solving for Uz, Initial residual = 0.0763623, Final residual = 0.00313334, No Iterations 5
[INFO] MomentumPredictor: 1451.53 [ms]
[INFO] MatrixAssemblyPI: 193.75 [ms]
[INFO] AdjustPhi: 9.461 [ms]
[INFO] ConstrainPressure: 0.002 [ms]
[INFO] MatrixAssemblyPII: 55.657 [ms]
[OGL LOG][Proc: 0]: global_index_init: 0.044 [ms]
[OGL LOG][Proc: 0]p_local_coeffs: call_update: 0 [ms]
[OGL LOG][Proc: 0]p_non_local_coeffs: call_update: 0 [ms]
[OGL LOG][Proc: 0]p: update_local_matrix_data: 32.564 [ms]
[OGL LOG][Proc: 0]p: update_non_local_matrix_data: 0.757 [ms]
[OGL LOG][Proc: 0]p: regenerate_distributed_matrix: 108.559 [ms]
[OGL LOG][Proc: 0]p_matrix: call_update: 109.775 [ms]
[OGL LOG][Proc: 0]p_rhs: call_update: 1.083 [ms]
[OGL LOG][Preconditioner.H:346] Generate preconditioner Multigrid MaxLevels 9 MinCoarseRows 10 ZeroGuess 1 Cycle v
[OGL LOG][Proc: 0]p: init_precond: 331.485 [ms]
[OGL LOG][StoppingCriterion.H:239] Creating stopping criterion with minIter 103 frequency 3
[OGL LOG][Proc: 0]p: generate_solver: 0.009 [ms]
[OGL LOG][Proc: 0]p: solve: 1546.14 [ms]
[OGL LOG][Proc: 0]p: copy_x_back: 2.992 [ms]
[OGL LOG][lduLduBase.H:330] 
Statistics:
	Time per iteration: 8989 [mu s]
	Time per residual norm calculation: 1269.000000 [mu s]
	Time per iteration and DOF: 1.123625 [ns]
	Retrieve results bandwidth 2.673000 [GByte/s]
[OGL LOG][Proc: 0]p: solve_multi_gpu: 2017.35 [ms]
MultigridcudaGKOCG:  Solving for p, Initial residual = 0.383496, Final residual = 7.96678e-05, No Iterations 172
[INFO] SolveP: 2057.93 [ms]
time step continuity errors : sum local = 4.05287e-09, global = -3.06377e-21, cumulative = -4.16976e-20
[INFO] ContinuityError: 22.908 [ms]
[INFO] CorrectBoundary: 0.393 [ms]
[INFO] PISOStep: 2407.04 [ms]
[INFO] MatrixAssemblyPI: 188.267 [ms]
[INFO] AdjustPhi: 9.534 [ms]
[INFO] ConstrainPressure: 0.002 [ms]
[INFO] MatrixAssemblyPII: 55.261 [ms]
[OGL LOG][Proc: 0]: global_index_init: 0.015 [ms]
[OGL LOG][Proc: 0]p_local_coeffs: call_update: 0 [ms]
[OGL LOG][Proc: 0]p_non_local_coeffs: call_update: 0 [ms]
[OGL LOG][Proc: 0]p: update_local_matrix_data: 33.262 [ms]
[OGL LOG][Proc: 0]p: update_non_local_matrix_data: 0.794 [ms]
[OGL LOG][Proc: 0]p: regenerate_distributed_matrix: 110.219 [ms]
[OGL LOG][Proc: 0]p_matrix: call_update: 111.416 [ms]
[OGL LOG][Proc: 0]p_rhs: call_update: 1.607 [ms]
[OGL LOG][Preconditioner.H:346] Generate preconditioner Multigrid MaxLevels 9 MinCoarseRows 10 ZeroGuess 1 Cycle v
[OGL LOG][Proc: 0]p: init_precond: 323.631 [ms]
[OGL LOG][StoppingCriterion.H:239] Creating stopping criterion with minIter 103 frequency 3
[OGL LOG][Proc: 0]p: generate_solver: 0.009 [ms]
[OGL LOG][Proc: 0]p: solve: 1540.42 [ms]
[OGL LOG][Proc: 0]p: copy_x_back: 2.997 [ms]
[OGL LOG][lduLduBase.H:330] 
Statistics:
	Time per iteration: 8955 [mu s]
	Time per residual norm calculation: 1263.000000 [mu s]
	Time per iteration and DOF: 1.119375 [ns]
	Retrieve results bandwidth 2.669000 [GByte/s]
[OGL LOG][Proc: 0]p: solve_multi_gpu: 2007.76 [ms]
MultigridcudaGKOCG:  Solving for p, Initial residual = 0.337112, Final residual = 7.81683e-05, No Iterations 172
[INFO] SolveP: 2049.27 [ms]
time step continuity errors : sum local = 3.98158e-09, global = -2.53165e-21, cumulative = -4.42292e-20
[INFO] ContinuityError: 22.82 [ms]
[INFO] CorrectBoundary: 0.344 [ms]
[INFO] PISOStep: 2394.41 [ms]
[INFO] TimeStep: 6448.95 [ms]
ExecutionTime = 137.94 s  ClockTime = 140 s

Time = 0.0035

Courant Number mean: 0.0531952 max: 0.484197
[INFO] MatrixAssemblyU: 173.331 [ms]
DILUPBiCGStab:  Solving for Ux, Initial residual = 0.00705461, Final residual = 0.000126304, No Iterations 5
DILUPBiCGStab:  Solving for Uy, Initial residual = 0.0176226, Final residual = 0.000281139, No Iterations 5
DILUPBiCGStab:  Solving for Uz, Initial residual = 0.0650443, Final residual = 0.0026546, No Iterations 5
[INFO] MomentumPredictor: 1451.1 [ms]
[INFO] MatrixAssemblyPI: 193.785 [ms]
[INFO] AdjustPhi: 9.374 [ms]
[INFO] ConstrainPressure: 0.002 [ms]
[INFO] MatrixAssemblyPII: 56.038 [ms]
[OGL LOG][Proc: 0]: global_index_init: 0.016 [ms]
[OGL LOG][Proc: 0]p_local_coeffs: call_update: 0 [ms]
[OGL LOG][Proc: 0]p_non_local_coeffs: call_update: 0 [ms]
[OGL LOG][Proc: 0]p: update_local_matrix_data: 32.657 [ms]
[OGL LOG][Proc: 0]p: update_non_local_matrix_data: 0.811 [ms]
[OGL LOG][Proc: 0]p: regenerate_distributed_matrix: 108.897 [ms]
[OGL LOG][Proc: 0]p_matrix: call_update: 110.134 [ms]
[OGL LOG][Proc: 0]p_rhs: call_update: 1.067 [ms]
[OGL LOG][Preconditioner.H:346] Generate preconditioner Multigrid MaxLevels 9 MinCoarseRows 10 ZeroGuess 1 Cycle v
[OGL LOG][Proc: 0]p: init_precond: 334.796 [ms]
[OGL LOG][StoppingCriterion.H:239] Creating stopping criterion with minIter 103 frequency 3
[OGL LOG][Proc: 0]p: generate_solver: 0.01 [ms]
[OGL LOG][Proc: 0]p: solve: 1522.99 [ms]
[OGL LOG][Proc: 0]p: copy_x_back: 2.551 [ms]
[OGL LOG][lduLduBase.H:330] 
Statistics:
	Time per iteration: 9011 [mu s]
	Time per residual norm calculation: 1266.000000 [mu s]
	Time per iteration and DOF: 1.126375 [ns]
	Retrieve results bandwidth 3.136000 [GByte/s]
[OGL LOG][Proc: 0]p: solve_multi_gpu: 2000.49 [ms]
MultigridcudaGKOCG:  Solving for p, Initial residual = 0.34174, Final residual = 9.13206e-05, No Iterations 169
[INFO] SolveP: 2065.85 [ms]
time step continuity errors : sum local = 4.49255e-09, global = -3.87988e-21, cumulative = -4.81091e-20
[INFO] ContinuityError: 24.82 [ms]
[INFO] CorrectBoundary: 0.511 [ms]
[INFO] PISOStep: 2416.85 [ms]
[INFO] MatrixAssemblyPI: 188.104 [ms]
[INFO] AdjustPhi: 9.443 [ms]
[INFO] ConstrainPressure: 0.003 [ms]
[INFO] MatrixAssemblyPII: 55.734 [ms]
[OGL LOG][Proc: 0]: global_index_init: 0.017 [ms]
[OGL LOG][Proc: 0]p_local_coeffs: call_update: 0 [ms]
[OGL LOG][Proc: 0]p_non_local_coeffs: call_update: 0 [ms]
[OGL LOG][Proc: 0]p: update_local_matrix_data: 34.318 [ms]
[OGL LOG][Proc: 0]p: update_non_local_matrix_data: 0.804 [ms]
[OGL LOG][Proc: 0]p: regenerate_distributed_matrix: 111.159 [ms]
[OGL LOG][Proc: 0]p_matrix: call_update: 112.367 [ms]
[OGL LOG][Proc: 0]p_rhs: call_update: 1.094 [ms]
[OGL LOG][Preconditioner.H:346] Generate preconditioner Multigrid MaxLevels 9 MinCoarseRows 10 ZeroGuess 1 Cycle v
[OGL LOG][Proc: 0]p: init_precond: 337.378 [ms]
[OGL LOG][StoppingCriterion.H:239] Creating stopping criterion with minIter 101 frequency 3
[OGL LOG][Proc: 0]p: generate_solver: 0.009 [ms]
[OGL LOG][Proc: 0]p: solve: 1495.74 [ms]
[OGL LOG][Proc: 0]p: copy_x_back: 3.023 [ms]
[OGL LOG][lduLduBase.H:330] 
Statistics:
	Time per iteration: 8850 [mu s]
	Time per residual norm calculation: 1121.000000 [mu s]
	Time per iteration and DOF: 1.106250 [ns]
	Retrieve results bandwidth 2.646000 [GByte/s]
[OGL LOG][Proc: 0]p: solve_multi_gpu: 1975.39 [ms]
MultigridcudaGKOCG:  Solving for p, Initial residual = 0.301947, Final residual = 9.06196e-05, No Iterations 169
[INFO] SolveP: 2019.19 [ms]
time step continuity errors : sum local = 4.44027e-09, global = -3.99056e-21, cumulative = -5.20997e-20
[INFO] ContinuityError: 22.143 [ms]
[INFO] CorrectBoundary: 0.326 [ms]
[INFO] PISOStep: 2363.83 [ms]
[INFO] TimeStep: 6427.85 [ms]
ExecutionTime = 144.34 s  ClockTime = 146 s

Time = 0.00375

Courant Number mean: 0.0545957 max: 0.484639
[INFO] MatrixAssemblyU: 171.92 [ms]
DILUPBiCGStab:  Solving for Ux, Initial residual = 0.00647048, Final residual = 0.000110088, No Iterations 5
DILUPBiCGStab:  Solving for Uy, Initial residual = 0.0157676, Final residual = 0.000234414, No Iterations 5
DILUPBiCGStab:  Solving for Uz, Initial residual = 0.057114, Final residual = 0.00248617, No Iterations 5
[INFO] MomentumPredictor: 1450.58 [ms]
[INFO] MatrixAssemblyPI: 193.149 [ms]
[INFO] AdjustPhi: 9.583 [ms]
[INFO] ConstrainPressure: 0.003 [ms]
[INFO] MatrixAssemblyPII: 56.226 [ms]
[OGL LOG][Proc: 0]: global_index_init: 0.023 [ms]
[OGL LOG][Proc: 0]p_local_coeffs: call_update: 0 [ms]
[OGL LOG][Proc: 0]p_non_local_coeffs: call_update: 0 [ms]
[OGL LOG][Proc: 0]p: update_local_matrix_data: 32.558 [ms]
[OGL LOG][Proc: 0]p: update_non_local_matrix_data: 0.761 [ms]
[OGL LOG][Proc: 0]p: regenerate_distributed_matrix: 107.969 [ms]
[OGL LOG][Proc: 0]p_matrix: call_update: 109.038 [ms]
[OGL LOG][Proc: 0]p_rhs: call_update: 1.069 [ms]
[OGL LOG][Preconditioner.H:346] Generate preconditioner Multigrid MaxLevels 9 MinCoarseRows 10 ZeroGuess 1 Cycle v
[OGL LOG][Proc: 0]p: init_precond: 342.829 [ms]
[OGL LOG][StoppingCriterion.H:239] Creating stopping criterion with minIter 101 frequency 3
[OGL LOG][Proc: 0]p: generate_solver: 0.009 [ms]
[OGL LOG][Proc: 0]p: solve: 1522.35 [ms]
[OGL LOG][Proc: 0]p: copy_x_back: 2.898 [ms]
[OGL LOG][lduLduBase.H:330] 
Statistics:
	Time per iteration: 8850 [mu s]
	Time per residual norm calculation: 1120.000000 [mu s]
	Time per iteration and DOF: 1.106250 [ns]
	Retrieve results bandwidth 2.760000 [GByte/s]
[OGL LOG][Proc: 0]p: solve_multi_gpu: 2003.51 [ms]
MultigridcudaGKOCG:  Solving for p, Initial residual = 0.309447, Final residual = 8.03139e-05, No Iterations 172
[INFO] SolveP: 2045.34 [ms]
time step continuity errors : sum local = 3.7949e-09, global = -3.05759e-21, cumulative = -5.51573e-20
[INFO] ContinuityError: 23.602 [ms]
[INFO] CorrectBoundary: 0.388 [ms]
[INFO] PISOStep: 2394.89 [ms]
[INFO] MatrixAssemblyPI: 187.443 [ms]
[INFO] AdjustPhi: 9.393 [ms]
[INFO] ConstrainPressure: 0.003 [ms]
[INFO] MatrixAssemblyPII: 55.061 [ms]
[OGL LOG][Proc: 0]: global_index_init: 0.017 [ms]
[OGL LOG][Proc: 0]p_local_coeffs: call_update: 0 [ms]
[OGL LOG][Proc: 0]p_non_local_coeffs: call_update: 0 [ms]
[OGL LOG][Proc: 0]p: update_local_matrix_data: 34.424 [ms]
[OGL LOG][Proc: 0]p: update_non_local_matrix_data: 0.807 [ms]
[OGL LOG][Proc: 0]p: regenerate_distributed_matrix: 114.884 [ms]
[OGL LOG][Proc: 0]p_matrix: call_update: 115.599 [ms]
[OGL LOG][Proc: 0]p_rhs: call_update: 1.223 [ms]
[OGL LOG][Preconditioner.H:346] Generate preconditioner Multigrid MaxLevels 9 MinCoarseRows 10 ZeroGuess 1 Cycle v
[OGL LOG][Proc: 0]p: init_precond: 337.822 [ms]
[OGL LOG][StoppingCriterion.H:239] Creating stopping criterion with minIter 103 frequency 3
[OGL LOG][Proc: 0]p: generate_solver: 0.009 [ms]
[OGL LOG][Proc: 0]p: solve: 1526.54 [ms]
[OGL LOG][Proc: 0]p: copy_x_back: 3.33 [ms]
[OGL LOG][lduLduBase.H:330] 
Statistics:
	Time per iteration: 8875 [mu s]
	Time per residual norm calculation: 1269.000000 [mu s]
	Time per iteration and DOF: 1.109375 [ns]
	Retrieve results bandwidth 2.402000 [GByte/s]
[OGL LOG][Proc: 0]p: solve_multi_gpu: 2011.59 [ms]
MultigridcudaGKOCG:  Solving for p, Initial residual = 0.271278, Final residual = 7.74526e-05, No Iterations 172
[INFO] SolveP: 2054.03 [ms]
time step continuity errors : sum local = 3.66363e-09, global = -1.62854e-21, cumulative = -5.67858e-20
[INFO] ContinuityError: 24.291 [ms]
[INFO] CorrectBoundary: 1.153 [ms]
[INFO] PISOStep: 2402.21 [ms]
[INFO] TimeStep: 6442.41 [ms]
ExecutionTime = 150.76 s  ClockTime = 153 s

Time = 0.004

Courant Number mean: 0.0559077 max: 0.4851
[INFO] MatrixAssemblyU: 174.074 [ms]
DILUPBiCGStab:  Solving for Ux, Initial residual = 0.00594416, Final residual = 9.66143e-05, No Iterations 5
DILUPBiCGStab:  Solving for Uy, Initial residual = 0.0144957, Final residual = 0.000196485, No Iterations 5
DILUPBiCGStab:  Solving for Uz, Initial residual = 0.0497199, Final residual = 0.00212677, No Iterations 5
[INFO] MomentumPredictor: 1462.28 [ms]
[INFO] MatrixAssemblyPI: 192.812 [ms]
[INFO] AdjustPhi: 10.103 [ms]
[INFO] ConstrainPressure: 0.003 [ms]
[INFO] MatrixAssemblyPII: 56.207 [ms]
[OGL LOG][Proc: 0]: global_index_init: 0.078 [ms]
[OGL LOG][Proc: 0]p_local_coeffs: call_update: 0 [ms]
[OGL LOG][Proc: 0]p_non_local_coeffs: call_update: 0 [ms]
[OGL LOG][Proc: 0]p: update_local_matrix_data: 32.227 [ms]
[OGL LOG][Proc: 0]p: update_non_local_matrix_data: 0.817 [ms]
[OGL LOG][Proc: 0]p: regenerate_distributed_matrix: 109.469 [ms]
[OGL LOG][Proc: 0]p_matrix: call_update: 110.681 [ms]
[OGL LOG][Proc: 0]p_rhs: call_update: 1.077 [ms]
[OGL LOG][Preconditioner.H:346] Generate preconditioner Multigrid MaxLevels 9 MinCoarseRows 10 ZeroGuess 1 Cycle v
[OGL LOG][Proc: 0]p: init_precond: 345.944 [ms]
[OGL LOG][StoppingCriterion.H:239] Creating stopping criterion with minIter 103 frequency 3
[OGL LOG][Proc: 0]p: generate_solver: 0.009 [ms]
[OGL LOG][Proc: 0]p: solve: 1525.55 [ms]
[OGL LOG][Proc: 0]p: copy_x_back: 2.796 [ms]
[OGL LOG][lduLduBase.H:330] 
Statistics:
	Time per iteration: 8869 [mu s]
	Time per residual norm calculation: 1410.000000 [mu s]
	Time per iteration and DOF: 1.108625 [ns]
	Retrieve results bandwidth 2.861000 [GByte/s]
[OGL LOG][Proc: 0]p: solve_multi_gpu: 2015.14 [ms]
MultigridcudaGKOCG:  Solving for p, Initial residual = 0.279016, Final residual = 8.75408e-05, No Iterations 172
[INFO] SolveP: 2056.26 [ms]
time step continuity errors : sum local = 3.98546e-09, global = -1.5748e-21, cumulative = -5.83606e-20
[INFO] ContinuityError: 23.472 [ms]
[INFO] CorrectBoundary: 0.374 [ms]
[INFO] PISOStep: 2406.5 [ms]
[INFO] MatrixAssemblyPI: 188.259 [ms]
[INFO] AdjustPhi: 9.496 [ms]
[INFO] ConstrainPressure: 0.003 [ms]
[INFO] MatrixAssemblyPII: 55.029 [ms]
[OGL LOG][Proc: 0]: global_index_init: 0.016 [ms]
[OGL LOG][Proc: 0]p_local_coeffs: call_update: 0 [ms]
[OGL LOG][Proc: 0]p_non_local_coeffs: call_update: 0 [ms]
[OGL LOG][Proc: 0]p: update_local_matrix_data: 34.016 [ms]
[OGL LOG][Proc: 0]p: update_non_local_matrix_data: 0.827 [ms]
[OGL LOG][Proc: 0]p: regenerate_distributed_matrix: 110.004 [ms]
[OGL LOG][Proc: 0]p_matrix: call_update: 111.371 [ms]
[OGL LOG][Proc: 0]p_rhs: call_update: 1.104 [ms]
[OGL LOG][Preconditioner.H:346] Generate preconditioner Multigrid MaxLevels 9 MinCoarseRows 10 ZeroGuess 1 Cycle v
[OGL LOG][Proc: 0]p: init_precond: 332.665 [ms]
[OGL LOG][StoppingCriterion.H:239] Creating stopping criterion with minIter 103 frequency 3
[OGL LOG][Proc: 0]p: generate_solver: 0.009 [ms]
[OGL LOG][Proc: 0]p: solve: 1531.06 [ms]
[OGL LOG][Proc: 0]p: copy_x_back: 2.939 [ms]
[OGL LOG][lduLduBase.H:330] 
Statistics:
	Time per iteration: 8901 [mu s]
	Time per residual norm calculation: 1264.000000 [mu s]
	Time per iteration and DOF: 1.112625 [ns]
	Retrieve results bandwidth 2.722000 [GByte/s]
[OGL LOG][Proc: 0]p: solve_multi_gpu: 2006.17 [ms]
MultigridcudaGKOCG:  Solving for p, Initial residual = 0.245707, Final residual = 8.59796e-05, No Iterations 172
[INFO] SolveP: 2048.73 [ms]
time step continuity errors : sum local = 3.90203e-09, global = -3.52219e-21, cumulative = -6.18828e-20
[INFO] ContinuityError: 23.415 [ms]
[INFO] CorrectBoundary: 2.63 [ms]
[INFO] PISOStep: 2395.76 [ms]
[INFO] TimeStep: 6461.53 [ms]
ExecutionTime = 157.22 s  ClockTime = 159 s

Time = 0.00425

Courant Number mean: 0.0571444 max: 0.485458
[INFO] MatrixAssemblyU: 172.148 [ms]
DILUPBiCGStab:  Solving for Ux, Initial residual = 0.00550361, Final residual = 8.5093e-05, No Iterations 5
DILUPBiCGStab:  Solving for Uy, Initial residual = 0.0131892, Final residual = 0.000174414, No Iterations 5
DILUPBiCGStab:  Solving for Uz, Initial residual = 0.0441455, Final residual = 0.00194455, No Iterations 5
[INFO] MomentumPredictor: 1464.92 [ms]
[INFO] MatrixAssemblyPI: 195.369 [ms]
[INFO] AdjustPhi: 9.648 [ms]
[INFO] ConstrainPressure: 0.003 [ms]
[INFO] MatrixAssemblyPII: 56.228 [ms]
[OGL LOG][Proc: 0]: global_index_init: 0.017 [ms]
[OGL LOG][Proc: 0]p_local_coeffs: call_update: 0 [ms]
[OGL LOG][Proc: 0]p_non_local_coeffs: call_update: 0 [ms]
[OGL LOG][Proc: 0]p: update_local_matrix_data: 32.524 [ms]
[OGL LOG][Proc: 0]p: update_non_local_matrix_data: 0.777 [ms]
[OGL LOG][Proc: 0]p: regenerate_distributed_matrix: 111.019 [ms]
[OGL LOG][Proc: 0]p_matrix: call_update: 112.343 [ms]
[OGL LOG][Proc: 0]p_rhs: call_update: 1.335 [ms]
[OGL LOG][Preconditioner.H:346] Generate preconditioner Multigrid MaxLevels 9 MinCoarseRows 10 ZeroGuess 1 Cycle v
[OGL LOG][Proc: 0]p: init_precond: 334.145 [ms]
[OGL LOG][StoppingCriterion.H:239] Creating stopping criterion with minIter 103 frequency 3
[OGL LOG][Proc: 0]p: generate_solver: 0.009 [ms]
[OGL LOG][Proc: 0]p: solve: 1513.3 [ms]
[OGL LOG][Proc: 0]p: copy_x_back: 2.951 [ms]
[OGL LOG][lduLduBase.H:330] 
Statistics:
	Time per iteration: 8954 [mu s]
	Time per residual norm calculation: 1269.000000 [mu s]
	Time per iteration and DOF: 1.119250 [ns]
	Retrieve results bandwidth 2.710000 [GByte/s]
[OGL LOG][Proc: 0]p: solve_multi_gpu: 1992.97 [ms]
MultigridcudaGKOCG:  Solving for p, Initial residual = 0.249212, Final residual = 9.71343e-05, No Iterations 169
[INFO] SolveP: 2033.67 [ms]
time step continuity errors : sum local = 4.32838e-09, global = -4.76416e-21, cumulative = -6.66469e-20
[INFO] ContinuityError: 24.568 [ms]
[INFO] CorrectBoundary: 0.392 [ms]
[INFO] PISOStep: 2387.97 [ms]
[INFO] MatrixAssemblyPI: 188.432 [ms]
[INFO] AdjustPhi: 9.554 [ms]
[INFO] ConstrainPressure: 0.003 [ms]
[INFO] MatrixAssemblyPII: 55.495 [ms]
[OGL LOG][Proc: 0]: global_index_init: 0.016 [ms]
[OGL LOG][Proc: 0]p_local_coeffs: call_update: 0 [ms]
[OGL LOG][Proc: 0]p_non_local_coeffs: call_update: 0 [ms]
[OGL LOG][Proc: 0]p: update_local_matrix_data: 34.071 [ms]
[OGL LOG][Proc: 0]p: update_non_local_matrix_data: 0.753 [ms]
[OGL LOG][Proc: 0]p: regenerate_distributed_matrix: 110.829 [ms]
[OGL LOG][Proc: 0]p_matrix: call_update: 112.04 [ms]
[OGL LOG][Proc: 0]p_rhs: call_update: 1.713 [ms]
[OGL LOG][Preconditioner.H:346] Generate preconditioner Multigrid MaxLevels 9 MinCoarseRows 10 ZeroGuess 1 Cycle v
[OGL LOG][Proc: 0]p: init_precond: 325.329 [ms]
[OGL LOG][StoppingCriterion.H:239] Creating stopping criterion with minIter 101 frequency 3
[OGL LOG][Proc: 0]p: generate_solver: 0.009 [ms]
[OGL LOG][Proc: 0]p: solve: 1513.36 [ms]
[OGL LOG][Proc: 0]p: copy_x_back: 2.99 [ms]
[OGL LOG][lduLduBase.H:330] 
Statistics:
	Time per iteration: 8954 [mu s]
	Time per residual norm calculation: 1259.000000 [mu s]
	Time per iteration and DOF: 1.119250 [ns]
	Retrieve results bandwidth 2.675000 [GByte/s]
[OGL LOG][Proc: 0]p: solve_multi_gpu: 1982.66 [ms]
MultigridcudaGKOCG:  Solving for p, Initial residual = 0.217898, Final residual = 9.39682e-05, No Iterations 169
[INFO] SolveP: 2024.95 [ms]
time step continuity errors : sum local = 4.19042e-09, global = -1.85648e-21, cumulative = -6.85034e-20
[INFO] ContinuityError: 22.916 [ms]
[INFO] CorrectBoundary: 2.574 [ms]
[INFO] PISOStep: 2371.66 [ms]
[INFO] TimeStep: 6419.84 [ms]
ExecutionTime = 163.62 s  ClockTime = 166 s

Time = 0.0045

Courant Number mean: 0.0583117 max: 0.485829
[INFO] MatrixAssemblyU: 172.252 [ms]
DILUPBiCGStab:  Solving for Ux, Initial residual = 0.00511318, Final residual = 7.58497e-05, No Iterations 5
DILUPBiCGStab:  Solving for Uy, Initial residual = 0.0122539, Final residual = 0.000149602, No Iterations 5
DILUPBiCGStab:  Solving for Uz, Initial residual = 0.0389102, Final residual = 0.00165766, No Iterations 5
[INFO] MomentumPredictor: 1450.84 [ms]
[INFO] MatrixAssemblyPI: 193.408 [ms]
[INFO] AdjustPhi: 9.638 [ms]
[INFO] ConstrainPressure: 0.003 [ms]
[INFO] MatrixAssemblyPII: 55.86 [ms]
[OGL LOG][Proc: 0]: global_index_init: 0.015 [ms]
[OGL LOG][Proc: 0]p_local_coeffs: call_update: 0 [ms]
[OGL LOG][Proc: 0]p_non_local_coeffs: call_update: 0 [ms]
[OGL LOG][Proc: 0]p: update_local_matrix_data: 32.289 [ms]
[OGL LOG][Proc: 0]p: update_non_local_matrix_data: 0.757 [ms]
[OGL LOG][Proc: 0]p: regenerate_distributed_matrix: 111.381 [ms]
[OGL LOG][Proc: 0]p_matrix: call_update: 112.462 [ms]
[OGL LOG][Proc: 0]p_rhs: call_update: 1.1 [ms]
[OGL LOG][Preconditioner.H:346] Generate preconditioner Multigrid MaxLevels 9 MinCoarseRows 10 ZeroGuess 1 Cycle v
[OGL LOG][Proc: 0]p: init_precond: 352.907 [ms]
[OGL LOG][StoppingCriterion.H:239] Creating stopping criterion with minIter 101 frequency 3
[OGL LOG][Proc: 0]p: generate_solver: 0.009 [ms]
[OGL LOG][Proc: 0]p: solve: 1500.48 [ms]
[OGL LOG][Proc: 0]p: copy_x_back: 2.818 [ms]
[OGL LOG][lduLduBase.H:330] 
Statistics:
	Time per iteration: 8878 [mu s]
	Time per residual norm calculation: 1266.000000 [mu s]
	Time per iteration and DOF: 1.109750 [ns]
	Retrieve results bandwidth 2.838000 [GByte/s]
[OGL LOG][Proc: 0]p: solve_multi_gpu: 1996.33 [ms]
MultigridcudaGKOCG:  Solving for p, Initial residual = 0.22606, Final residual = 9.05715e-05, No Iterations 169
[INFO] SolveP: 2036.33 [ms]
time step continuity errors : sum local = 3.88813e-09, global = -2.59463e-21, cumulative = -7.10981e-20
[INFO] ContinuityError: 22.193 [ms]
[INFO] CorrectBoundary: 1.976 [ms]
[INFO] PISOStep: 2386.4 [ms]
[INFO] MatrixAssemblyPI: 188.602 [ms]
[INFO] AdjustPhi: 9.505 [ms]
[INFO] ConstrainPressure: 0.002 [ms]
[INFO] MatrixAssemblyPII: 55.339 [ms]
[OGL LOG][Proc: 0]: global_index_init: 0.015 [ms]
[OGL LOG][Proc: 0]p_local_coeffs: call_update: 0 [ms]
[OGL LOG][Proc: 0]p_non_local_coeffs: call_update: 0 [ms]
[OGL LOG][Proc: 0]p: update_local_matrix_data: 34 [ms]
[OGL LOG][Proc: 0]p: update_non_local_matrix_data: 0.841 [ms]
[OGL LOG][Proc: 0]p: regenerate_distributed_matrix: 110.542 [ms]
[OGL LOG][Proc: 0]p_matrix: call_update: 111.706 [ms]
[OGL LOG][Proc: 0]p_rhs: call_update: 1.114 [ms]
[OGL LOG][Preconditioner.H:346] Generate preconditioner Multigrid MaxLevels 9 MinCoarseRows 10 ZeroGuess 1 Cycle v
[OGL LOG][Proc: 0]p: init_precond: 332.879 [ms]
[OGL LOG][StoppingCriterion.H:239] Creating stopping criterion with minIter 101 frequency 3
[OGL LOG][Proc: 0]p: generate_solver: 0.009 [ms]
[OGL LOG][Proc: 0]p: solve: 918.916 [ms]
[OGL LOG][Proc: 0]p: copy_x_back: 3.018 [ms]
[OGL LOG][lduLduBase.H:330] 
Statistics:
	Time per iteration: 8921 [mu s]
	Time per residual norm calculation: 1415.000000 [mu s]
	Time per iteration and DOF: 1.115125 [ns]
	Retrieve results bandwidth 2.650000 [GByte/s]
[OGL LOG][Proc: 0]p: solve_multi_gpu: 1395.3 [ms]
MultigridcudaGKOCG:  Solving for p, Initial residual = 0.198423, Final residual = 8.71842e-05, No Iterations 103
[INFO] SolveP: 1437.28 [ms]
time step continuity errors : sum local = 3.87805e-09, global = -4.46548e-21, cumulative = -7.55635e-20
[INFO] ContinuityError: 22.463 [ms]
[INFO] CorrectBoundary: 0.328 [ms]
[INFO] PISOStep: 1782.41 [ms]
[INFO] TimeStep: 5814.54 [ms]
ExecutionTime = 169.43 s  ClockTime = 172 s

Time = 0.00475

Courant Number mean: 0.0594174 max: 0.486129
[INFO] MatrixAssemblyU: 172.074 [ms]
DILUPBiCGStab:  Solving for Ux, Initial residual = 0.0047672, Final residual = 6.72988e-05, No Iterations 5
DILUPBiCGStab:  Solving for Uy, Initial residual = 0.0112686, Final residual = 0.000137588, No Iterations 5
DILUPBiCGStab:  Solving for Uz, Initial residual = 0.0353882, Final residual = 0.00149596, No Iterations 5
[INFO] MomentumPredictor: 1456.41 [ms]
[INFO] MatrixAssemblyPI: 194.07 [ms]
[INFO] AdjustPhi: 9.882 [ms]
[INFO] ConstrainPressure: 0.003 [ms]
[INFO] MatrixAssemblyPII: 55.228 [ms]
[OGL LOG][Proc: 0]: global_index_init: 0.119 [ms]
[OGL LOG][Proc: 0]p_local_coeffs: call_update: 0 [ms]
[OGL LOG][Proc: 0]p_non_local_coeffs: call_update: 0 [ms]
[OGL LOG][Proc: 0]p: update_local_matrix_data: 32.806 [ms]
[OGL LOG][Proc: 0]p: update_non_local_matrix_data: 0.816 [ms]
[OGL LOG][Proc: 0]p: regenerate_distributed_matrix: 114.916 [ms]
[OGL LOG][Proc: 0]p_matrix: call_update: 118.259 [ms]
[OGL LOG][Proc: 0]p_rhs: call_update: 4.019 [ms]
[OGL LOG][Preconditioner.H:346] Generate preconditioner Multigrid MaxLevels 9 MinCoarseRows 10 ZeroGuess 1 Cycle v
[OGL LOG][Proc: 0]p: init_precond: 441.4 [ms]
[OGL LOG][StoppingCriterion.H:239] Creating stopping criterion with minIter 61 frequency 2
[OGL LOG][Proc: 0]p: generate_solver: 0.011 [ms]
[OGL LOG][Proc: 0]p: solve: 1584.61 [ms]
[OGL LOG][Proc: 0]p: copy_x_back: 2.925 [ms]
[OGL LOG][lduLduBase.H:330] 
Statistics:
	Time per iteration: 9376 [mu s]
	Time per residual norm calculation: 1269.000000 [mu s]
	Time per iteration and DOF: 1.172000 [ns]
	Retrieve results bandwidth 2.735000 [GByte/s]
[OGL LOG][Proc: 0]p: solve_multi_gpu: 2177.03 [ms]
MultigridcudaGKOCG:  Solving for p, Initial residual = 0.20052, Final residual = 9.08439e-05, No Iterations 169
[INFO] SolveP: 2218 [ms]
time step continuity errors : sum local = 3.86639e-09, global = -6.75801e-21, cumulative = -8.23215e-20
[INFO] ContinuityError: 22.573 [ms]
[INFO] CorrectBoundary: 2.118 [ms]
[INFO] PISOStep: 2576.55 [ms]
[INFO] MatrixAssemblyPI: 188.428 [ms]
[INFO] AdjustPhi: 9.622 [ms]
[INFO] ConstrainPressure: 0.002 [ms]
[INFO] MatrixAssemblyPII: 55.537 [ms]
[OGL LOG][Proc: 0]: global_index_init: 0.016 [ms]
[OGL LOG][Proc: 0]p_local_coeffs: call_update: 0 [ms]
[OGL LOG][Proc: 0]p_non_local_coeffs: call_update: 0 [ms]
[OGL LOG][Proc: 0]p: update_local_matrix_data: 34.138 [ms]
[OGL LOG][Proc: 0]p: update_non_local_matrix_data: 0.785 [ms]
[OGL LOG][Proc: 0]p: regenerate_distributed_matrix: 111.216 [ms]
[OGL LOG][Proc: 0]p_matrix: call_update: 112.546 [ms]
[OGL LOG][Proc: 0]p_rhs: call_update: 1.104 [ms]
[OGL LOG][Preconditioner.H:346] Generate preconditioner Multigrid MaxLevels 9 MinCoarseRows 10 ZeroGuess 1 Cycle v
[OGL LOG][Proc: 0]p: init_precond: 323.94 [ms]
[OGL LOG][StoppingCriterion.H:239] Creating stopping criterion with minIter 101 frequency 3
[OGL LOG][Proc: 0]p: generate_solver: 0.009 [ms]
[OGL LOG][Proc: 0]p: solve: 1510.89 [ms]
[OGL LOG][Proc: 0]p: copy_x_back: 2.955 [ms]
[OGL LOG][lduLduBase.H:330] 
Statistics:
	Time per iteration: 8940 [mu s]
	Time per residual norm calculation: 1264.000000 [mu s]
	Time per iteration and DOF: 1.117500 [ns]
	Retrieve results bandwidth 2.707000 [GByte/s]
[OGL LOG][Proc: 0]p: solve_multi_gpu: 1978.12 [ms]
MultigridcudaGKOCG:  Solving for p, Initial residual = 0.174954, Final residual = 8.55682e-05, No Iterations 169
[INFO] SolveP: 2020.29 [ms]
time step continuity errors : sum local = 3.64083e-09, global = -5.05491e-21, cumulative = -8.73765e-20
[INFO] ContinuityError: 22.692 [ms]
[INFO] CorrectBoundary: 0.318 [ms]
[INFO] PISOStep: 2365.03 [ms]
[INFO] TimeStep: 6592.69 [ms]
ExecutionTime = 175.85 s  ClockTime = 178 s

Time = 0.005

Courant Number mean: 0.0604662 max: 0.48643
[INFO] MatrixAssemblyU: 173.317 [ms]
DILUPBiCGStab:  Solving for Ux, Initial residual = 0.00446238, Final residual = 6.06066e-05, No Iterations 5
DILUPBiCGStab:  Solving for Uy, Initial residual = 0.0105663, Final residual = 0.000120795, No Iterations 5
DILUPBiCGStab:  Solving for Uz, Initial residual = 0.031731, Final residual = 0.00127908, No Iterations 5
[INFO] MomentumPredictor: 1446.79 [ms]
[INFO] MatrixAssemblyPI: 194.119 [ms]
[INFO] AdjustPhi: 9.439 [ms]
[INFO] ConstrainPressure: 0.002 [ms]
[INFO] MatrixAssemblyPII: 55.852 [ms]
[OGL LOG][Proc: 0]: global_index_init: 0.106 [ms]
[OGL LOG][Proc: 0]p_local_coeffs: call_update: 0 [ms]
[OGL LOG][Proc: 0]p_non_local_coeffs: call_update: 0 [ms]
[OGL LOG][Proc: 0]p: update_local_matrix_data: 32.659 [ms]
[OGL LOG][Proc: 0]p: update_non_local_matrix_data: 0.787 [ms]
[OGL LOG][Proc: 0]p: regenerate_distributed_matrix: 110.609 [ms]
[OGL LOG][Proc: 0]p_matrix: call_update: 111.978 [ms]
[OGL LOG][Proc: 0]p_rhs: call_update: 1.105 [ms]
[OGL LOG][Preconditioner.H:346] Generate preconditioner Multigrid MaxLevels 9 MinCoarseRows 10 ZeroGuess 1 Cycle v
[OGL LOG][Proc: 0]p: init_precond: 329.964 [ms]
[OGL LOG][StoppingCriterion.H:239] Creating stopping criterion with minIter 101 frequency 3
[OGL LOG][Proc: 0]p: generate_solver: 0.009 [ms]
[OGL LOG][Proc: 0]p: solve: 1525.91 [ms]
[OGL LOG][Proc: 0]p: copy_x_back: 3.003 [ms]
[OGL LOG][lduLduBase.H:330] 
Statistics:
	Time per iteration: 9029 [mu s]
	Time per residual norm calculation: 1268.000000 [mu s]
	Time per iteration and DOF: 1.128625 [ns]
	Retrieve results bandwidth 2.664000 [GByte/s]
[OGL LOG][Proc: 0]p: solve_multi_gpu: 1996.5 [ms]
MultigridcudaGKOCG:  Solving for p, Initial residual = 0.182048, Final residual = 8.61311e-05, No Iterations 169
[INFO] SolveP: 2036.81 [ms]
time step continuity errors : sum local = 3.53849e-09, global = -2.48542e-21, cumulative = -8.98619e-20
[INFO] ContinuityError: 24.365 [ms]
[INFO] CorrectBoundary: 1.919 [ms]
[INFO] PISOStep: 2388.3 [ms]
[INFO] MatrixAssemblyPI: 188.703 [ms]
[INFO] AdjustPhi: 9.403 [ms]
[INFO] ConstrainPressure: 0.002 [ms]
[INFO] MatrixAssemblyPII: 55.994 [ms]
[OGL LOG][Proc: 0]: global_index_init: 0.015 [ms]
[OGL LOG][Proc: 0]p_local_coeffs: call_update: 0 [ms]
[OGL LOG][Proc: 0]p_non_local_coeffs: call_update: 0 [ms]
[OGL LOG][Proc: 0]p: update_local_matrix_data: 34.428 [ms]
[OGL LOG][Proc: 0]p: update_non_local_matrix_data: 0.8 [ms]
[OGL LOG][Proc: 0]p: regenerate_distributed_matrix: 111.392 [ms]
[OGL LOG][Proc: 0]p_matrix: call_update: 112.558 [ms]
[OGL LOG][Proc: 0]p_rhs: call_update: 1.149 [ms]
[OGL LOG][Preconditioner.H:346] Generate preconditioner Multigrid MaxLevels 9 MinCoarseRows 10 ZeroGuess 1 Cycle v
[OGL LOG][Proc: 0]p: init_precond: 328.536 [ms]
[OGL LOG][StoppingCriterion.H:239] Creating stopping criterion with minIter 101 frequency 3
[OGL LOG][Proc: 0]p: generate_solver: 0.01 [ms]
[OGL LOG][Proc: 0]p: solve: 1503.66 [ms]
[OGL LOG][Proc: 0]p: copy_x_back: 3.004 [ms]
[OGL LOG][lduLduBase.H:330] 
Statistics:
	Time per iteration: 8897 [mu s]
	Time per residual norm calculation: 1274.000000 [mu s]
	Time per iteration and DOF: 1.112125 [ns]
	Retrieve results bandwidth 2.663000 [GByte/s]
[OGL LOG][Proc: 0]p: solve_multi_gpu: 1976.53 [ms]
MultigridcudaGKOCG:  Solving for p, Initial residual = 0.159449, Final residual = 8.43507e-05, No Iterations 169
[INFO] SolveP: 2018.79 [ms]
time step continuity errors : sum local = 3.4595e-09, global = -4.84997e-21, cumulative = -9.47118e-20
[INFO] ContinuityError: 22.375 [ms]
[INFO] CorrectBoundary: 0.358 [ms]
[INFO] PISOStep: 2364.24 [ms]
[INFO] TimeStep: 6395.51 [ms]
ExecutionTime = 182.23 s  ClockTime = 185 s

End

Finalising parallel run
