/*---------------------------------------------------------------------------*\
| =========                 |                                                 |
| \\      /  F ield         | OpenFOAM: The Open Source CFD Toolbox           |
|  \\    /   O peration     | Version:  2212                                  |
|   \\  /    A nd           | Website:  www.openfoam.com                      |
|    \\/     M anipulation  |                                                 |
\*---------------------------------------------------------------------------*/
Build  : 5614a571f2-20230228 OPENFOAM=2212 patch=230110 version=v2212
Arch   : "LSB;label=32;scalar=64"
Exec   : icoFoam -parallel -case /home/greole/data/code/exasim-project/micro_benchmarks/LidDrivenCavity3D/workspace/f9f0aadc75a05d50c63e6a024505f039/case
Date   : Jul 03 2023
Time   : 09:05:40
Host   : guyot
PID    : 2728332
I/O    : uncollated
Case   : /home/greole/data/code/exasim-project/micro_benchmarks/LidDrivenCavity3D/workspace/f9f0aadc75a05d50c63e6a024505f039/case
nProcs : 32
Hosts  :
(
    (guyot 32)
)
Pstream initialized with:
    floatTransfer      : 0
    nProcsSimpleSum    : 0
    commsType          : nonBlocking
    polling iterations : 0
trapFpe: Floating point exception trapping enabled (FOAM_SIGFPE).
fileModificationChecking : Monitoring run-time modified files using timeStampMaster (fileModificationSkew 5, maxFileModificationPolls 20)
allowSystemOperations : Allowing user-supplied system call operations

// * * * * * * * * * * * * * * * * * * * * * * * * * * * * * * * * * * * * * //
Create time

--> FOAM Warning : 
    From void* Foam::dlLibraryTable::openLibrary(const Foam::fileName&, bool)
    in file db/dynamicLibrary/dlLibraryTable/dlLibraryTable.C at line 188
    Could not load "libpetscFoam.so"
libpetscFoam.so: cannot open shared object file: No such file or directory
Create mesh for time = 0


PISO: Operating solver in PISO mode

Reading transportProperties

Reading field p

Reading field U

Reading/calculating face flux field phi


Starting time loop

Time = 0.00025

Courant Number mean: 8.24341e-18 max: 2.08167e-14
[INFO] MatrixAssemblyU: 253.03 [ms]
DILUPBiCGStab:  Solving for Ux, Initial residual = 1, Final residual = 0.00994539, No Iterations 5
DILUPBiCGStab:  Solving for Uy:  solution singularity
DILUPBiCGStab:  Solving for Uz:  solution singularity
[INFO] MomentumPredictor: 832.461 [ms]
[INFO] MatrixAssemblyPI: 260.781 [ms]
[INFO] AdjustPhi: 14.841 [ms]
[INFO] ConstrainPressure: 0.008 [ms]
[INFO] MatrixAssemblyPII: 71.5 [ms]
GAMG:  Solving for p, Initial residual = 1, Final residual = 8.79895e-05, No Iterations 26
[INFO] SolveP: 2779.93 [ms]
time step continuity errors : sum local = 6.75499e-09, global = -2.0907e-21, cumulative = -2.0907e-21
[INFO] ContinuityError: 20.316 [ms]
[INFO] CorrectBoundary: 1.007 [ms]
[INFO] PISOStep: 3239.95 [ms]
[INFO] MatrixAssemblyPI: 245.418 [ms]
[INFO] AdjustPhi: 14.429 [ms]
[INFO] ConstrainPressure: 0.003 [ms]
[INFO] MatrixAssemblyPII: 71.806 [ms]
GAMG:  Solving for p, Initial residual = 0.7864, Final residual = 9.71229e-05, No Iterations 25
[INFO] SolveP: 2497.18 [ms]
time step continuity errors : sum local = 9.3527e-09, global = -1.29495e-21, cumulative = -3.38565e-21
[INFO] ContinuityError: 22.852 [ms]
[INFO] CorrectBoundary: 0.609 [ms]
[INFO] PISOStep: 2940.74 [ms]
[INFO] TimeStep: 7290.98 [ms]
ExecutionTime = 7.78 s  ClockTime = 8 s

Time = 0.0005

Courant Number mean: 0.015946 max: 0.41255
[INFO] MatrixAssemblyU: 234.612 [ms]
DILUPBiCGStab:  Solving for Ux, Initial residual = 0.129576, Final residual = 0.00567065, No Iterations 5
DILUPBiCGStab:  Solving for Uy, Initial residual = 0.426969, Final residual = 0.0150071, No Iterations 5
DILUPBiCGStab:  Solving for Uz, Initial residual = 0.985476, Final residual = 0.038436, No Iterations 5
[INFO] MomentumPredictor: 1615.95 [ms]
[INFO] MatrixAssemblyPI: 252.274 [ms]
[INFO] AdjustPhi: 14.696 [ms]
[INFO] ConstrainPressure: 0.003 [ms]
[INFO] MatrixAssemblyPII: 71.741 [ms]
GAMG:  Solving for p, Initial residual = 0.827637, Final residual = 7.33431e-05, No Iterations 26
[INFO] SolveP: 2590.3 [ms]
time step continuity errors : sum local = 1.09979e-08, global = -7.37845e-22, cumulative = -4.1235e-21
[INFO] ContinuityError: 22.741 [ms]
[INFO] CorrectBoundary: 0.864 [ms]
[INFO] PISOStep: 3041.06 [ms]
[INFO] MatrixAssemblyPI: 244.22 [ms]
[INFO] AdjustPhi: 15.716 [ms]
[INFO] ConstrainPressure: 0.003 [ms]
[INFO] MatrixAssemblyPII: 72.041 [ms]
GAMG:  Solving for p, Initial residual = 0.770597, Final residual = 8.80585e-05, No Iterations 30
[INFO] SolveP: 2981.64 [ms]
time step continuity errors : sum local = 1.34022e-08, global = -2.61389e-22, cumulative = -4.38488e-21
[INFO] ContinuityError: 22.815 [ms]
[INFO] CorrectBoundary: 1.112 [ms]
[INFO] PISOStep: 3425.19 [ms]
[INFO] TimeStep: 8342.04 [ms]
ExecutionTime = 16.04 s  ClockTime = 16 s

Time = 0.00075

Courant Number mean: 0.0243229 max: 0.472083
[INFO] MatrixAssemblyU: 236.237 [ms]
DILUPBiCGStab:  Solving for Ux, Initial residual = 0.0547764, Final residual = 0.00194187, No Iterations 5
DILUPBiCGStab:  Solving for Uy, Initial residual = 0.182458, Final residual = 0.0079769, No Iterations 5
DILUPBiCGStab:  Solving for Uz, Initial residual = 0.817378, Final residual = 0.0312216, No Iterations 5
[INFO] MomentumPredictor: 1614.01 [ms]
[INFO] MatrixAssemblyPI: 253.172 [ms]
[INFO] AdjustPhi: 14.519 [ms]
[INFO] ConstrainPressure: 0.003 [ms]
[INFO] MatrixAssemblyPII: 71.664 [ms]
GAMG:  Solving for p, Initial residual = 0.850034, Final residual = 9.5342e-05, No Iterations 24
[INFO] SolveP: 2400.47 [ms]
time step continuity errors : sum local = 1.29508e-08, global = -2.7694e-21, cumulative = -7.15429e-21
[INFO] ContinuityError: 22.705 [ms]
[INFO] CorrectBoundary: 1.401 [ms]
[INFO] PISOStep: 2852.09 [ms]
[INFO] MatrixAssemblyPI: 245.565 [ms]
[INFO] AdjustPhi: 14.271 [ms]
[INFO] ConstrainPressure: 0.003 [ms]
[INFO] MatrixAssemblyPII: 71.186 [ms]
GAMG:  Solving for p, Initial residual = 0.816306, Final residual = 9.71409e-05, No Iterations 23
[INFO] SolveP: 2300.64 [ms]
time step continuity errors : sum local = 1.28968e-08, global = 4.14417e-22, cumulative = -6.73987e-21
[INFO] ContinuityError: 22.865 [ms]
[INFO] CorrectBoundary: 0.849 [ms]
[INFO] PISOStep: 2744.14 [ms]
[INFO] TimeStep: 7471.1 [ms]
ExecutionTime = 23.44 s  ClockTime = 23 s

Time = 0.001

Courant Number mean: 0.0291872 max: 0.467788
[INFO] MatrixAssemblyU: 234.559 [ms]
DILUPBiCGStab:  Solving for Ux, Initial residual = 0.0347152, Final residual = 0.00129455, No Iterations 5
DILUPBiCGStab:  Solving for Uy, Initial residual = 0.129217, Final residual = 0.00499174, No Iterations 5
DILUPBiCGStab:  Solving for Uz, Initial residual = 0.664984, Final residual = 0.0240597, No Iterations 5
[INFO] MomentumPredictor: 1615.59 [ms]
[INFO] MatrixAssemblyPI: 253.073 [ms]
[INFO] AdjustPhi: 14.051 [ms]
[INFO] ConstrainPressure: 0.003 [ms]
[INFO] MatrixAssemblyPII: 71.821 [ms]
GAMG:  Solving for p, Initial residual = 0.773229, Final residual = 4.88695e-05, No Iterations 28
[INFO] SolveP: 2790.59 [ms]
time step continuity errors : sum local = 6.0717e-09, global = -1.97882e-21, cumulative = -8.71869e-21
[INFO] ContinuityError: 22.966 [ms]
[INFO] CorrectBoundary: 0.736 [ms]
[INFO] PISOStep: 3241.17 [ms]
[INFO] MatrixAssemblyPI: 244.968 [ms]
[INFO] AdjustPhi: 15.386 [ms]
[INFO] ConstrainPressure: 0.003 [ms]
[INFO] MatrixAssemblyPII: 71.359 [ms]
GAMG:  Solving for p, Initial residual = 0.710439, Final residual = 9.94476e-05, No Iterations 32
[INFO] SolveP: 3176.7 [ms]
time step continuity errors : sum local = 1.25225e-08, global = -1.02074e-21, cumulative = -9.73943e-21
[INFO] ContinuityError: 22.894 [ms]
[INFO] CorrectBoundary: 0.528 [ms]
[INFO] PISOStep: 3620.96 [ms]
[INFO] TimeStep: 8737.22 [ms]
ExecutionTime = 32.1 s  ClockTime = 32 s

Time = 0.00125

Courant Number mean: 0.0333279 max: 0.472994
[INFO] MatrixAssemblyU: 232.77 [ms]
DILUPBiCGStab:  Solving for Ux, Initial residual = 0.027154, Final residual = 0.000948752, No Iterations 5
DILUPBiCGStab:  Solving for Uy, Initial residual = 0.0815052, Final residual = 0.00369925, No Iterations 5
DILUPBiCGStab:  Solving for Uz, Initial residual = 0.560447, Final residual = 0.0234676, No Iterations 5
[INFO] MomentumPredictor: 1616.08 [ms]
[INFO] MatrixAssemblyPI: 253.665 [ms]
[INFO] AdjustPhi: 13.987 [ms]
[INFO] ConstrainPressure: 0.002 [ms]
[INFO] MatrixAssemblyPII: 71.675 [ms]
GAMG:  Solving for p, Initial residual = 0.777485, Final residual = 7.71445e-05, No Iterations 25
[INFO] SolveP: 2496.08 [ms]
time step continuity errors : sum local = 7.8577e-09, global = -1.99764e-21, cumulative = -1.17371e-20
[INFO] ContinuityError: 22.539 [ms]
[INFO] CorrectBoundary: 1.633 [ms]
[INFO] PISOStep: 2947.09 [ms]
[INFO] MatrixAssemblyPI: 244.108 [ms]
[INFO] AdjustPhi: 16.14 [ms]
[INFO] ConstrainPressure: 0.004 [ms]
[INFO] MatrixAssemblyPII: 71.877 [ms]
GAMG:  Solving for p, Initial residual = 0.726538, Final residual = 8.64289e-05, No Iterations 24
[INFO] SolveP: 2397.68 [ms]
time step continuity errors : sum local = 8.6838e-09, global = -2.46789e-21, cumulative = -1.4205e-20
[INFO] ContinuityError: 22.615 [ms]
[INFO] CorrectBoundary: 1.253 [ms]
[INFO] PISOStep: 2841.29 [ms]
[INFO] TimeStep: 7661.94 [ms]
ExecutionTime = 39.69 s  ClockTime = 40 s

Time = 0.0015

Courant Number mean: 0.0366262 max: 0.475585
[INFO] MatrixAssemblyU: 237.534 [ms]
DILUPBiCGStab:  Solving for Ux, Initial residual = 0.0204475, Final residual = 0.000683898, No Iterations 5
DILUPBiCGStab:  Solving for Uy, Initial residual = 0.0659703, Final residual = 0.00256814, No Iterations 5
DILUPBiCGStab:  Solving for Uz, Initial residual = 0.419329, Final residual = 0.0170269, No Iterations 5
[INFO] MomentumPredictor: 1613.67 [ms]
[INFO] MatrixAssemblyPI: 252.116 [ms]
[INFO] AdjustPhi: 15.124 [ms]
[INFO] ConstrainPressure: 0.003 [ms]
[INFO] MatrixAssemblyPII: 71.776 [ms]
GAMG:  Solving for p, Initial residual = 0.686362, Final residual = 8.93593e-05, No Iterations 32
[INFO] SolveP: 3184.2 [ms]
time step continuity errors : sum local = 8.42768e-09, global = -2.71191e-21, cumulative = -1.69169e-20
[INFO] ContinuityError: 22.749 [ms]
[INFO] CorrectBoundary: 1.023 [ms]
[INFO] PISOStep: 3634.59 [ms]
[INFO] MatrixAssemblyPI: 245.537 [ms]
[INFO] AdjustPhi: 14.919 [ms]
[INFO] ConstrainPressure: 0.003 [ms]
[INFO] MatrixAssemblyPII: 71.942 [ms]
GAMG:  Solving for p, Initial residual = 0.625921, Final residual = 7.35246e-05, No Iterations 29
[INFO] SolveP: 2883.95 [ms]
time step continuity errors : sum local = 6.9421e-09, global = 2.77519e-22, cumulative = -1.66394e-20
[INFO] ContinuityError: 22.649 [ms]
[INFO] CorrectBoundary: 1.196 [ms]
[INFO] PISOStep: 3328.29 [ms]
[INFO] TimeStep: 8839.17 [ms]
ExecutionTime = 48.45 s  ClockTime = 49 s

Time = 0.00175

Courant Number mean: 0.0395412 max: 0.47753
[INFO] MatrixAssemblyU: 232.939 [ms]
DILUPBiCGStab:  Solving for Ux, Initial residual = 0.0174688, Final residual = 0.000549671, No Iterations 5
DILUPBiCGStab:  Solving for Uy, Initial residual = 0.049092, Final residual = 0.00187538, No Iterations 5
DILUPBiCGStab:  Solving for Uz, Initial residual = 0.347213, Final residual = 0.0171182, No Iterations 5
[INFO] MomentumPredictor: 1619.12 [ms]
[INFO] MatrixAssemblyPI: 252.455 [ms]
[INFO] AdjustPhi: 14.915 [ms]
[INFO] ConstrainPressure: 0.003 [ms]
[INFO] MatrixAssemblyPII: 71.65 [ms]
GAMG:  Solving for p, Initial residual = 0.681612, Final residual = 7.92265e-05, No Iterations 24
[INFO] SolveP: 2398.86 [ms]
time step continuity errors : sum local = 6.21277e-09, global = -4.59251e-21, cumulative = -2.12319e-20
[INFO] ContinuityError: 22.732 [ms]
[INFO] CorrectBoundary: 0.601 [ms]
[INFO] PISOStep: 2849.81 [ms]
[INFO] MatrixAssemblyPI: 245.209 [ms]
[INFO] AdjustPhi: 14.872 [ms]
[INFO] ConstrainPressure: 0.003 [ms]
[INFO] MatrixAssemblyPII: 71.166 [ms]
GAMG:  Solving for p, Initial residual = 0.622587, Final residual = 9.14116e-05, No Iterations 25
[INFO] SolveP: 2500.95 [ms]
time step continuity errors : sum local = 7.13847e-09, global = -1.48748e-21, cumulative = -2.27193e-20
[INFO] ContinuityError: 22.304 [ms]
[INFO] CorrectBoundary: 0.506 [ms]
[INFO] PISOStep: 2944.29 [ms]
[INFO] TimeStep: 7670.9 [ms]
ExecutionTime = 56.05 s  ClockTime = 56 s

Time = 0.002

Courant Number mean: 0.0420654 max: 0.479228
[INFO] MatrixAssemblyU: 236.747 [ms]
DILUPBiCGStab:  Solving for Ux, Initial residual = 0.0143133, Final residual = 0.00042543, No Iterations 5
DILUPBiCGStab:  Solving for Uy, Initial residual = 0.0418362, Final residual = 0.00146396, No Iterations 5
DILUPBiCGStab:  Solving for Uz, Initial residual = 0.266688, Final residual = 0.0117066, No Iterations 5
[INFO] MomentumPredictor: 1613.88 [ms]
[INFO] MatrixAssemblyPI: 250.937 [ms]
[INFO] AdjustPhi: 16.112 [ms]
[INFO] ConstrainPressure: 0.003 [ms]
[INFO] MatrixAssemblyPII: 72.052 [ms]
GAMG:  Solving for p, Initial residual = 0.591775, Final residual = 9.41267e-05, No Iterations 37
[INFO] SolveP: 3659.92 [ms]
time step continuity errors : sum local = 7.03569e-09, global = -3.19499e-21, cumulative = -2.59143e-20
[INFO] ContinuityError: 22.952 [ms]
[INFO] CorrectBoundary: 0.833 [ms]
[INFO] PISOStep: 4110.68 [ms]
[INFO] MatrixAssemblyPI: 244.272 [ms]
[INFO] AdjustPhi: 15.615 [ms]
[INFO] ConstrainPressure: 0.003 [ms]
[INFO] MatrixAssemblyPII: 71.97 [ms]
GAMG:  Solving for p, Initial residual = 0.534664, Final residual = 7.08338e-05, No Iterations 29
[INFO] SolveP: 2884.31 [ms]
time step continuity errors : sum local = 5.28825e-09, global = -8.52823e-22, cumulative = -2.67672e-20
[INFO] ContinuityError: 22.404 [ms]
[INFO] CorrectBoundary: 0.412 [ms]
[INFO] PISOStep: 3327.8 [ms]
[INFO] TimeStep: 9313.74 [ms]
ExecutionTime = 65.28 s  ClockTime = 66 s

Time = 0.00225

Courant Number mean: 0.0443509 max: 0.480372
[INFO] MatrixAssemblyU: 234.895 [ms]
DILUPBiCGStab:  Solving for Ux, Initial residual = 0.0125932, Final residual = 0.000352165, No Iterations 5
DILUPBiCGStab:  Solving for Uy, Initial residual = 0.03372, Final residual = 0.0010378, No Iterations 5
DILUPBiCGStab:  Solving for Uz, Initial residual = 0.225026, Final residual = 0.0117185, No Iterations 5
[INFO] MomentumPredictor: 1615.14 [ms]
[INFO] MatrixAssemblyPI: 253.198 [ms]
[INFO] AdjustPhi: 14.273 [ms]
[INFO] ConstrainPressure: 0.003 [ms]
[INFO] MatrixAssemblyPII: 71.65 [ms]
GAMG:  Solving for p, Initial residual = 0.57849, Final residual = 9.23896e-05, No Iterations 31
[INFO] SolveP: 3079.16 [ms]
time step continuity errors : sum local = 5.97099e-09, global = -4.13011e-21, cumulative = -3.08973e-20
[INFO] ContinuityError: 22.971 [ms]
[INFO] CorrectBoundary: 0.631 [ms]
[INFO] PISOStep: 3530.44 [ms]
[INFO] MatrixAssemblyPI: 243.644 [ms]
[INFO] AdjustPhi: 16.49 [ms]
[INFO] ConstrainPressure: 0.002 [ms]
[INFO] MatrixAssemblyPII: 71.588 [ms]
GAMG:  Solving for p, Initial residual = 0.518274, Final residual = 8.37849e-05, No Iterations 20
[INFO] SolveP: 2011.93 [ms]
time step continuity errors : sum local = 5.43877e-09, global = -4.99514e-21, cumulative = -3.58924e-20
[INFO] ContinuityError: 22.864 [ms]
[INFO] CorrectBoundary: 1.433 [ms]
[INFO] PISOStep: 2455.52 [ms]
[INFO] TimeStep: 7860.57 [ms]
ExecutionTime = 73.07 s  ClockTime = 73 s

Time = 0.0025

Courant Number mean: 0.0464052 max: 0.481474
[INFO] MatrixAssemblyU: 235.308 [ms]
DILUPBiCGStab:  Solving for Ux, Initial residual = 0.0108434, Final residual = 0.00028534, No Iterations 5
DILUPBiCGStab:  Solving for Uy, Initial residual = 0.029539, Final residual = 0.000852146, No Iterations 5
DILUPBiCGStab:  Solving for Uz, Initial residual = 0.181809, Final residual = 0.00880574, No Iterations 5
[INFO] MomentumPredictor: 1615.89 [ms]
[INFO] MatrixAssemblyPI: 252.796 [ms]
[INFO] AdjustPhi: 14.711 [ms]
[INFO] ConstrainPressure: 0.003 [ms]
[INFO] MatrixAssemblyPII: 71.863 [ms]
GAMG:  Solving for p, Initial residual = 0.502741, Final residual = 8.58812e-05, No Iterations 21
[INFO] SolveP: 2107.1 [ms]
time step continuity errors : sum local = 5.39025e-09, global = -3.86149e-21, cumulative = -3.97539e-20
[INFO] ContinuityError: 22.804 [ms]
[INFO] CorrectBoundary: 0.699 [ms]
[INFO] PISOStep: 2558.25 [ms]
[INFO] MatrixAssemblyPI: 243.84 [ms]
[INFO] AdjustPhi: 16.263 [ms]
[INFO] ConstrainPressure: 0.003 [ms]
[INFO] MatrixAssemblyPII: 71.31 [ms]
GAMG:  Solving for p, Initial residual = 0.450371, Final residual = 6.97673e-05, No Iterations 26
[INFO] SolveP: 2595.53 [ms]
time step continuity errors : sum local = 4.36038e-09, global = -1.40455e-21, cumulative = -4.11584e-20
[INFO] ContinuityError: 22.643 [ms]
[INFO] CorrectBoundary: 0.635 [ms]
[INFO] PISOStep: 3039.29 [ms]
[INFO] TimeStep: 7473.85 [ms]
ExecutionTime = 80.47 s  ClockTime = 81 s

Time = 0.00275

Courant Number mean: 0.048294 max: 0.482247
[INFO] MatrixAssemblyU: 236.051 [ms]
DILUPBiCGStab:  Solving for Ux, Initial residual = 0.00971265, Final residual = 0.000240578, No Iterations 5
DILUPBiCGStab:  Solving for Uy, Initial residual = 0.0250133, Final residual = 0.000620872, No Iterations 5
DILUPBiCGStab:  Solving for Uz, Initial residual = 0.152811, Final residual = 0.00809941, No Iterations 5
[INFO] MomentumPredictor: 1614.64 [ms]
[INFO] MatrixAssemblyPI: 253.205 [ms]
[INFO] AdjustPhi: 14.476 [ms]
[INFO] ConstrainPressure: 0.003 [ms]
[INFO] MatrixAssemblyPII: 71.965 [ms]
GAMG:  Solving for p, Initial residual = 0.478125, Final residual = 5.69731e-05, No Iterations 20
[INFO] SolveP: 2010.77 [ms]
time step continuity errors : sum local = 3.2422e-09, global = -1.1382e-21, cumulative = -4.22966e-20
[INFO] ContinuityError: 22.911 [ms]
[INFO] CorrectBoundary: 1.825 [ms]
[INFO] PISOStep: 2462.29 [ms]
[INFO] MatrixAssemblyPI: 245.367 [ms]
[INFO] AdjustPhi: 14.698 [ms]
[INFO] ConstrainPressure: 0.003 [ms]
[INFO] MatrixAssemblyPII: 71.893 [ms]
GAMG:  Solving for p, Initial residual = 0.424348, Final residual = 9.6041e-05, No Iterations 20
[INFO] SolveP: 2013.88 [ms]
time step continuity errors : sum local = 5.44266e-09, global = -3.16583e-21, cumulative = -4.54625e-20
[INFO] ContinuityError: 23.001 [ms]
[INFO] CorrectBoundary: 0.931 [ms]
[INFO] PISOStep: 2457.45 [ms]
[INFO] TimeStep: 6795.01 [ms]
ExecutionTime = 87.2 s  ClockTime = 88 s

Time = 0.003

Courant Number mean: 0.0500278 max: 0.48303
[INFO] MatrixAssemblyU: 236.143 [ms]
DILUPBiCGStab:  Solving for Ux, Initial residual = 0.00862499, Final residual = 0.00020158, No Iterations 5
DILUPBiCGStab:  Solving for Uy, Initial residual = 0.0223423, Final residual = 0.000512646, No Iterations 5
DILUPBiCGStab:  Solving for Uz, Initial residual = 0.123655, Final residual = 0.006112, No Iterations 5
[INFO] MomentumPredictor: 1614.3 [ms]
[INFO] MatrixAssemblyPI: 252.01 [ms]
[INFO] AdjustPhi: 15.811 [ms]
[INFO] ConstrainPressure: 0.003 [ms]
[INFO] MatrixAssemblyPII: 71.755 [ms]
GAMG:  Solving for p, Initial residual = 0.421356, Final residual = 8.60294e-05, No Iterations 18
[INFO] SolveP: 1816.05 [ms]
time step continuity errors : sum local = 4.73812e-09, global = -2.22636e-21, cumulative = -4.76888e-20
[INFO] ContinuityError: 22.81 [ms]
[INFO] CorrectBoundary: 0.898 [ms]
[INFO] PISOStep: 2267.34 [ms]
[INFO] MatrixAssemblyPI: 245.348 [ms]
[INFO] AdjustPhi: 15.178 [ms]
[INFO] ConstrainPressure: 0.028 [ms]
[INFO] MatrixAssemblyPII: 71.887 [ms]
GAMG:  Solving for p, Initial residual = 0.375044, Final residual = 7.75838e-05, No Iterations 17
[INFO] SolveP: 1721.42 [ms]
time step continuity errors : sum local = 4.27375e-09, global = -4.80468e-21, cumulative = -5.24935e-20
[INFO] ContinuityError: 22.829 [ms]
[INFO] CorrectBoundary: 0.589 [ms]
[INFO] PISOStep: 2165.89 [ms]
[INFO] TimeStep: 6308.77 [ms]
ExecutionTime = 93.45 s  ClockTime = 94 s

Time = 0.00325

Courant Number mean: 0.0516388 max: 0.483597
[INFO] MatrixAssemblyU: 237.958 [ms]
DILUPBiCGStab:  Solving for Ux, Initial residual = 0.00782694, Final residual = 0.000172201, No Iterations 5
DILUPBiCGStab:  Solving for Uy, Initial residual = 0.0195569, Final residual = 0.000403074, No Iterations 5
DILUPBiCGStab:  Solving for Uz, Initial residual = 0.106839, Final residual = 0.00573509, No Iterations 5
[INFO] MomentumPredictor: 1614.34 [ms]
[INFO] MatrixAssemblyPI: 254.043 [ms]
[INFO] AdjustPhi: 13.654 [ms]
[INFO] ConstrainPressure: 0.003 [ms]
[INFO] MatrixAssemblyPII: 72.057 [ms]
GAMG:  Solving for p, Initial residual = 0.390721, Final residual = 7.63102e-05, No Iterations 20
[INFO] SolveP: 2013.91 [ms]
time step continuity errors : sum local = 3.92065e-09, global = -2.36326e-21, cumulative = -5.48568e-20
[INFO] ContinuityError: 22.587 [ms]
[INFO] CorrectBoundary: 0.518 [ms]
[INFO] PISOStep: 2465.03 [ms]
[INFO] MatrixAssemblyPI: 242.599 [ms]
[INFO] AdjustPhi: 17.591 [ms]
[INFO] ConstrainPressure: 0.003 [ms]
[INFO] MatrixAssemblyPII: 71.638 [ms]
GAMG:  Solving for p, Initial residual = 0.344748, Final residual = 7.46984e-05, No Iterations 20
[INFO] SolveP: 2012.22 [ms]
time step continuity errors : sum local = 3.8572e-09, global = -5.11187e-21, cumulative = -5.99686e-20
[INFO] ContinuityError: 22.442 [ms]
[INFO] CorrectBoundary: 1.201 [ms]
[INFO] PISOStep: 2455.78 [ms]
[INFO] TimeStep: 6798.1 [ms]
ExecutionTime = 100.17 s  ClockTime = 101 s

Time = 0.0035

Courant Number mean: 0.053135 max: 0.484186
[INFO] MatrixAssemblyU: 235.174 [ms]
DILUPBiCGStab:  Solving for Ux, Initial residual = 0.00709524, Final residual = 0.000147658, No Iterations 5
DILUPBiCGStab:  Solving for Uy, Initial residual = 0.0177318, Final residual = 0.000334662, No Iterations 5
DILUPBiCGStab:  Solving for Uz, Initial residual = 0.0917715, Final residual = 0.00471751, No Iterations 5
[INFO] MomentumPredictor: 1618.63 [ms]
[INFO] MatrixAssemblyPI: 254.099 [ms]
[INFO] AdjustPhi: 13.564 [ms]
[INFO] ConstrainPressure: 0.003 [ms]
[INFO] MatrixAssemblyPII: 71.635 [ms]
GAMG:  Solving for p, Initial residual = 0.348891, Final residual = 8.70094e-05, No Iterations 25
[INFO] SolveP: 2502.64 [ms]
time step continuity errors : sum local = 4.33392e-09, global = -5.45794e-21, cumulative = -6.54266e-20
[INFO] ContinuityError: 22.886 [ms]
[INFO] CorrectBoundary: 0.964 [ms]
[INFO] PISOStep: 2953.99 [ms]
[INFO] MatrixAssemblyPI: 245.745 [ms]
[INFO] AdjustPhi: 14.373 [ms]
[INFO] ConstrainPressure: 0.002 [ms]
[INFO] MatrixAssemblyPII: 71.641 [ms]
GAMG:  Solving for p, Initial residual = 0.309476, Final residual = 8.75329e-05, No Iterations 22
[INFO] SolveP: 2208.65 [ms]
time step continuity errors : sum local = 4.34452e-09, global = -3.8346e-21, cumulative = -6.92612e-20
[INFO] ContinuityError: 22.773 [ms]
[INFO] CorrectBoundary: 1.017 [ms]
[INFO] PISOStep: 2652.22 [ms]
[INFO] TimeStep: 7485.11 [ms]
ExecutionTime = 107.57 s  ClockTime = 108 s

Time = 0.00375

Courant Number mean: 0.0545381 max: 0.48463
[INFO] MatrixAssemblyU: 235.167 [ms]
DILUPBiCGStab:  Solving for Ux, Initial residual = 0.00650511, Final residual = 0.000127445, No Iterations 5
DILUPBiCGStab:  Solving for Uy, Initial residual = 0.0158821, Final residual = 0.000287722, No Iterations 5
DILUPBiCGStab:  Solving for Uz, Initial residual = 0.0878013, Final residual = 0.00487519, No Iterations 5
[INFO] MomentumPredictor: 1619.54 [ms]
[INFO] MatrixAssemblyPI: 253.522 [ms]
[INFO] AdjustPhi: 13.78 [ms]
[INFO] ConstrainPressure: 0.002 [ms]
[INFO] MatrixAssemblyPII: 71.557 [ms]
GAMG:  Solving for p, Initial residual = 0.316896, Final residual = 7.78715e-05, No Iterations 23
[INFO] SolveP: 2303.31 [ms]
time step continuity errors : sum local = 3.71438e-09, global = -6.8474e-21, cumulative = -7.61086e-20
[INFO] ContinuityError: 22.933 [ms]
[INFO] CorrectBoundary: 1.091 [ms]
[INFO] PISOStep: 2754.11 [ms]
[INFO] MatrixAssemblyPI: 243.725 [ms]
[INFO] AdjustPhi: 16.446 [ms]
[INFO] ConstrainPressure: 0.003 [ms]
[INFO] MatrixAssemblyPII: 71.854 [ms]
GAMG:  Solving for p, Initial residual = 0.279041, Final residual = 9.26642e-05, No Iterations 28
[INFO] SolveP: 2790.07 [ms]
time step continuity errors : sum local = 4.42557e-09, global = -4.42066e-21, cumulative = -8.05292e-20
[INFO] ContinuityError: 23.029 [ms]
[INFO] CorrectBoundary: 0.874 [ms]
[INFO] PISOStep: 3233.79 [ms]
[INFO] TimeStep: 7867.76 [ms]
ExecutionTime = 115.36 s  ClockTime = 116 s

Time = 0.004

Courant Number mean: 0.0558526 max: 0.485095
[INFO] MatrixAssemblyU: 234.469 [ms]
DILUPBiCGStab:  Solving for Ux, Initial residual = 0.00598365, Final residual = 0.000111216, No Iterations 5
DILUPBiCGStab:  Solving for Uy, Initial residual = 0.0145775, Final residual = 0.000243942, No Iterations 5
DILUPBiCGStab:  Solving for Uz, Initial residual = 0.0771858, Final residual = 0.00395307, No Iterations 5
[INFO] MomentumPredictor: 1616.19 [ms]
[INFO] MatrixAssemblyPI: 251.737 [ms]
[INFO] AdjustPhi: 15.491 [ms]
[INFO] ConstrainPressure: 0.003 [ms]
[INFO] MatrixAssemblyPII: 71.512 [ms]
GAMG:  Solving for p, Initial residual = 0.286186, Final residual = 9.69339e-05, No Iterations 23
[INFO] SolveP: 2301.85 [ms]
time step continuity errors : sum local = 4.47157e-09, global = -4.79227e-21, cumulative = -8.53215e-20
[INFO] ContinuityError: 22.636 [ms]
[INFO] CorrectBoundary: 1.243 [ms]
[INFO] PISOStep: 2752.87 [ms]
[INFO] MatrixAssemblyPI: 244.928 [ms]
[INFO] AdjustPhi: 15.166 [ms]
[INFO] ConstrainPressure: 0.003 [ms]
[INFO] MatrixAssemblyPII: 71.827 [ms]
GAMG:  Solving for p, Initial residual = 0.253234, Final residual = 9.29806e-05, No Iterations 22
[INFO] SolveP: 2210.83 [ms]
time step continuity errors : sum local = 4.28426e-09, global = -8.05839e-21, cumulative = -9.33799e-20
[INFO] ContinuityError: 23.476 [ms]
[INFO] CorrectBoundary: 0.726 [ms]
[INFO] PISOStep: 2654.65 [ms]
[INFO] TimeStep: 7283.18 [ms]
ExecutionTime = 122.58 s  ClockTime = 123 s

Time = 0.00425

Courant Number mean: 0.0570921 max: 0.485453
[INFO] MatrixAssemblyU: 234.699 [ms]
DILUPBiCGStab:  Solving for Ux, Initial residual = 0.00553235, Final residual = 9.68904e-05, No Iterations 5
DILUPBiCGStab:  Solving for Uy, Initial residual = 0.0132725, Final residual = 0.00022277, No Iterations 5
DILUPBiCGStab:  Solving for Uz, Initial residual = 0.0712212, Final residual = 0.00368341, No Iterations 5
[INFO] MomentumPredictor: 1616.94 [ms]
[INFO] MatrixAssemblyPI: 254.15 [ms]
[INFO] AdjustPhi: 13.703 [ms]
[INFO] ConstrainPressure: 0.002 [ms]
[INFO] MatrixAssemblyPII: 71.57 [ms]
GAMG:  Solving for p, Initial residual = 0.256207, Final residual = 9.84668e-05, No Iterations 29
[INFO] SolveP: 2883.38 [ms]
time step continuity errors : sum local = 4.42988e-09, global = -3.45162e-21, cumulative = -9.68315e-20
[INFO] ContinuityError: 22.872 [ms]
[INFO] CorrectBoundary: 0.916 [ms]
[INFO] PISOStep: 3335.01 [ms]
[INFO] MatrixAssemblyPI: 244.518 [ms]
[INFO] AdjustPhi: 15.833 [ms]
[INFO] ConstrainPressure: 0.003 [ms]
[INFO] MatrixAssemblyPII: 71.657 [ms]
GAMG:  Solving for p, Initial residual = 0.225256, Final residual = 9.47733e-05, No Iterations 23
[INFO] SolveP: 2311.47 [ms]
time step continuity errors : sum local = 4.27372e-09, global = -4.52716e-21, cumulative = -1.01359e-19
[INFO] ContinuityError: 23.148 [ms]
[INFO] CorrectBoundary: 0.872 [ms]
[INFO] PISOStep: 2755.36 [ms]
[INFO] TimeStep: 7966.61 [ms]
ExecutionTime = 130.47 s  ClockTime = 131 s

Time = 0.0045

Courant Number mean: 0.0582618 max: 0.485824
[INFO] MatrixAssemblyU: 235.944 [ms]
DILUPBiCGStab:  Solving for Ux, Initial residual = 0.00514301, Final residual = 8.57995e-05, No Iterations 5
DILUPBiCGStab:  Solving for Uy, Initial residual = 0.0123048, Final residual = 0.00019311, No Iterations 5
DILUPBiCGStab:  Solving for Uz, Initial residual = 0.0648115, Final residual = 0.00310323, No Iterations 5
[INFO] MomentumPredictor: 1615.21 [ms]
[INFO] MatrixAssemblyPI: 251.249 [ms]
[INFO] AdjustPhi: 16.002 [ms]
[INFO] ConstrainPressure: 0.003 [ms]
[INFO] MatrixAssemblyPII: 71.942 [ms]
GAMG:  Solving for p, Initial residual = 0.233155, Final residual = 5.08903e-05, No Iterations 26
[INFO] SolveP: 2594.8 [ms]
time step continuity errors : sum local = 2.2153e-09, global = -6.08464e-21, cumulative = -1.07443e-19
[INFO] ContinuityError: 22.664 [ms]
[INFO] CorrectBoundary: 1.104 [ms]
[INFO] PISOStep: 3045.66 [ms]
[INFO] MatrixAssemblyPI: 243.244 [ms]
[INFO] AdjustPhi: 16.606 [ms]
[INFO] ConstrainPressure: 0.003 [ms]
[INFO] MatrixAssemblyPII: 71.887 [ms]
GAMG:  Solving for p, Initial residual = 0.205927, Final residual = 7.77642e-05, No Iterations 21
[INFO] SolveP: 2110.88 [ms]
time step continuity errors : sum local = 3.36167e-09, global = -2.76423e-21, cumulative = -1.10208e-19
[INFO] ContinuityError: 22.686 [ms]
[INFO] CorrectBoundary: 1.304 [ms]
[INFO] PISOStep: 2553.97 [ms]
[INFO] TimeStep: 7475.42 [ms]
ExecutionTime = 137.87 s  ClockTime = 139 s

Time = 0.00475

Courant Number mean: 0.0593702 max: 0.486124
[INFO] MatrixAssemblyU: 234.343 [ms]
DILUPBiCGStab:  Solving for Ux, Initial residual = 0.00478941, Final residual = 7.55942e-05, No Iterations 5
DILUPBiCGStab:  Solving for Uy, Initial residual = 0.0113391, Final residual = 0.000180388, No Iterations 5
DILUPBiCGStab:  Solving for Uz, Initial residual = 0.0524876, Final residual = 0.0024364, No Iterations 5
[INFO] MomentumPredictor: 1616.39 [ms]
[INFO] MatrixAssemblyPI: 254.792 [ms]
[INFO] AdjustPhi: 12.927 [ms]
[INFO] ConstrainPressure: 0.002 [ms]
[INFO] MatrixAssemblyPII: 71.899 [ms]
GAMG:  Solving for p, Initial residual = 0.205967, Final residual = 9.53383e-05, No Iterations 20
[INFO] SolveP: 2014.6 [ms]
time step continuity errors : sum local = 4.07922e-09, global = -5.82604e-21, cumulative = -1.16034e-19
[INFO] ContinuityError: 22.805 [ms]
[INFO] CorrectBoundary: 1.114 [ms]
[INFO] PISOStep: 2466.16 [ms]
[INFO] MatrixAssemblyPI: 246.729 [ms]
[INFO] AdjustPhi: 13.632 [ms]
[INFO] ConstrainPressure: 0.003 [ms]
[INFO] MatrixAssemblyPII: 71.94 [ms]
GAMG:  Solving for p, Initial residual = 0.180733, Final residual = 9.01247e-05, No Iterations 20
[INFO] SolveP: 2017.37 [ms]
time step continuity errors : sum local = 3.86207e-09, global = -9.31902e-21, cumulative = -1.25353e-19
[INFO] ContinuityError: 22.78 [ms]
[INFO] CorrectBoundary: 1.269 [ms]
[INFO] PISOStep: 2460.97 [ms]
[INFO] TimeStep: 6803 [ms]
ExecutionTime = 144.59 s  ClockTime = 146 s

Time = 0.005

Courant Number mean: 0.0604211 max: 0.486421
[INFO] MatrixAssemblyU: 234.868 [ms]
DILUPBiCGStab:  Solving for Ux, Initial residual = 0.00448689, Final residual = 6.78943e-05, No Iterations 5
DILUPBiCGStab:  Solving for Uy, Initial residual = 0.0105978, Final residual = 0.000158999, No Iterations 5
DILUPBiCGStab:  Solving for Uz, Initial residual = 0.0511659, Final residual = 0.0022354, No Iterations 5
[INFO] MomentumPredictor: 1614.3 [ms]
[INFO] MatrixAssemblyPI: 253.156 [ms]
[INFO] AdjustPhi: 14.107 [ms]
[INFO] ConstrainPressure: 0.003 [ms]
[INFO] MatrixAssemblyPII: 71.979 [ms]
GAMG:  Solving for p, Initial residual = 0.188471, Final residual = 9.21763e-05, No Iterations 23
[INFO] SolveP: 2303.8 [ms]
time step continuity errors : sum local = 3.81886e-09, global = -5.38205e-21, cumulative = -1.30735e-19
[INFO] ContinuityError: 22.787 [ms]
[INFO] CorrectBoundary: 0.526 [ms]
[INFO] PISOStep: 2754.97 [ms]
[INFO] MatrixAssemblyPI: 244.668 [ms]
[INFO] AdjustPhi: 15.521 [ms]
[INFO] ConstrainPressure: 0.005 [ms]
[INFO] MatrixAssemblyPII: 71.827 [ms]
GAMG:  Solving for p, Initial residual = 0.166137, Final residual = 9.35462e-05, No Iterations 17
[INFO] SolveP: 1722.6 [ms]
time step continuity errors : sum local = 3.86572e-09, global = -3.94813e-21, cumulative = -1.34683e-19
[INFO] ContinuityError: 22.668 [ms]
[INFO] CorrectBoundary: 1.217 [ms]
[INFO] PISOStep: 2166.38 [ms]
[INFO] TimeStep: 6795.11 [ms]
ExecutionTime = 151.33 s  ClockTime = 152 s

End

Finalising parallel run
