/*---------------------------------------------------------------------------*\
| =========                 |                                                 |
| \\      /  F ield         | OpenFOAM: The Open Source CFD Toolbox           |
|  \\    /   O peration     | Version:  2312                                  |
|   \\  /    A nd           | Website:  www.openfoam.com                      |
|    \\/     M anipulation  |                                                 |
\*---------------------------------------------------------------------------*/
Build  : a46b310f-20240104 OPENFOAM=2312 version=v2312
Arch   : "LSB;label=32;scalar=64"
Exec   : icoFoam -parallel -case /hppfs/scratch/0B/di35yan/lidDriven3D/workspace/43c23409676a86367eabdb0b04c6a478/case
Date   : Feb 17 2024
Time   : 10:32:35
Host   : i20r02c01s06
PID    : 98191
I/O    : uncollated
Case   : /hppfs/scratch/0B/di35yan/lidDriven3D/workspace/43c23409676a86367eabdb0b04c6a478/case
nProcs : 448
Hosts  :
(
    (i20r02c01s06 112)
    (i20r02c01s08 112)
    (i20r02c01s10 112)
    (i20r02c02s02 112)
)
Pstream initialized with:
    floatTransfer      : false
    nProcsSimpleSum    : 0
    nonBlockingExchange: 0 (tuning: 0)
    exchange algorithm : 0
    commsType          : nonBlocking
    polling iterations : 0
trapFpe: Floating point exception trapping enabled (FOAM_SIGFPE).
fileModificationChecking : Monitoring run-time modified files using timeStampMaster (fileModificationSkew 5, maxFileModificationPolls 20)
allowSystemOperations : Allowing user-supplied system call operations

// * * * * * * * * * * * * * * * * * * * * * * * * * * * * * * * * * * * * * //
Create time

--> FOAM Warning : 
    From void* Foam::dlLibraryTable::openLibrary(const Foam::fileName&, bool)
    in file db/dynamicLibrary/dlLibraryTable/dlLibraryTable.C at line 188
    Could not load "libpetscFoam.so"
libpetscFoam.so: cannot open shared object file: No such file or directory
Create mesh for time = 0


PISO: Operating solver in PISO mode

Reading transportProperties

Reading field p

Reading field U

Reading/calculating face flux field phi


Starting time loop

Time = 0.0001

Courant Number mean: 8.40841e-18 max: 5.20417e-14
DILUPBiCGStab:  Solving for Ux, Initial residual = 1, Final residual = 0.0279285, No Iterations 5
DILUPBiCGStab:  Solving for Uy:  solution singularity
DILUPBiCGStab:  Solving for Uz:  solution singularity
nonePCG:  Solving for p, Initial residual = 1, Final residual = 9.89034e-05, No Iterations 4066
time step continuity errors : sum local = 1.93663e-09, global = 1.17977e-21, cumulative = 1.17977e-21
nonePCG:  Solving for p, Initial residual = 0.836624, Final residual = 9.99844e-05, No Iterations 4052
time step continuity errors : sum local = 2.30976e-09, global = 3.31363e-23, cumulative = 1.2129e-21
ExecutionTime = 127.25 s  ClockTime = 138 s

Time = 0.0002

Courant Number mean: 0.00921865 max: 0.443838
DILUPBiCGStab:  Solving for Ux, Initial residual = 0.102032, Final residual = 0.0179297, No Iterations 5
DILUPBiCGStab:  Solving for Uy, Initial residual = 0.50605, Final residual = 0.0834112, No Iterations 5
DILUPBiCGStab:  Solving for Uz, Initial residual = 0.968451, Final residual = 0.17343, No Iterations 5
nonePCG:  Solving for p, Initial residual = 0.929534, Final residual = 9.94847e-05, No Iterations 2224
time step continuity errors : sum local = 6.36099e-09, global = -1.84234e-22, cumulative = 1.02867e-21
nonePCG:  Solving for p, Initial residual = 0.879072, Final residual = 9.84849e-05, No Iterations 2182
time step continuity errors : sum local = 6.15096e-09, global = -1.51953e-22, cumulative = 8.76715e-22
ExecutionTime = 188.25 s  ClockTime = 199 s

Time = 0.0003

Courant Number mean: 0.0145911 max: 0.52686
DILUPBiCGStab:  Solving for Ux, Initial residual = 0.0525436, Final residual = 0.00795347, No Iterations 5
DILUPBiCGStab:  Solving for Uy, Initial residual = 0.289016, Final residual = 0.0419972, No Iterations 5
DILUPBiCGStab:  Solving for Uz, Initial residual = 0.853335, Final residual = 0.124109, No Iterations 5
nonePCG:  Solving for p, Initial residual = 0.957365, Final residual = 9.98592e-05, No Iterations 4003
time step continuity errors : sum local = 8.06762e-09, global = -2.38682e-22, cumulative = 6.38033e-22
nonePCG:  Solving for p, Initial residual = 0.919899, Final residual = 9.93261e-05, No Iterations 3999
time step continuity errors : sum local = 7.99801e-09, global = -3.1897e-22, cumulative = 3.19063e-22
ExecutionTime = 297.42 s  ClockTime = 307 s

Time = 0.0004

Courant Number mean: 0.0178 max: 0.48004
DILUPBiCGStab:  Solving for Ux, Initial residual = 0.0437022, Final residual = 0.00791613, No Iterations 5
DILUPBiCGStab:  Solving for Uy, Initial residual = 0.246316, Final residual = 0.0401885, No Iterations 5
DILUPBiCGStab:  Solving for Uz, Initial residual = 0.776965, Final residual = 0.0892908, No Iterations 5
nonePCG:  Solving for p, Initial residual = 0.960494, Final residual = 9.84767e-05, No Iterations 3972
time step continuity errors : sum local = 1.06082e-08, global = -1.13889e-22, cumulative = 2.05174e-22
nonePCG:  Solving for p, Initial residual = 0.902333, Final residual = 9.98913e-05, No Iterations 1890
time step continuity errors : sum local = 1.19252e-08, global = 1.2416e-22, cumulative = 3.29334e-22
ExecutionTime = 378.12 s  ClockTime = 388 s

Time = 0.0005

Courant Number mean: 0.0204499 max: 0.614591
DILUPBiCGStab:  Solving for Ux, Initial residual = 0.0416605, Final residual = 0.00730174, No Iterations 5
DILUPBiCGStab:  Solving for Uy, Initial residual = 0.233906, Final residual = 0.0339307, No Iterations 5
DILUPBiCGStab:  Solving for Uz, Initial residual = 0.756889, Final residual = 0.0791658, No Iterations 5
nonePCG:  Solving for p, Initial residual = 0.971409, Final residual = 9.92617e-05, No Iterations 3871
time step continuity errors : sum local = 1.35502e-08, global = -3.66696e-22, cumulative = -3.73614e-23
nonePCG:  Solving for p, Initial residual = 0.927068, Final residual = 9.96893e-05, No Iterations 3869
time step continuity errors : sum local = 1.36073e-08, global = 1.07206e-22, cumulative = 6.98451e-23
ExecutionTime = 484.7 s  ClockTime = 494 s

Time = 0.0006

Courant Number mean: 0.0224571 max: 0.487558
DILUPBiCGStab:  Solving for Ux, Initial residual = 0.0430754, Final residual = 0.00701297, No Iterations 5
DILUPBiCGStab:  Solving for Uy, Initial residual = 0.230478, Final residual = 0.0294016, No Iterations 5
DILUPBiCGStab:  Solving for Uz, Initial residual = 0.721522, Final residual = 0.0614297, No Iterations 5
nonePCG:  Solving for p, Initial residual = 0.973594, Final residual = 9.9249e-05, No Iterations 3846
time step continuity errors : sum local = 1.71401e-08, global = 1.17523e-21, cumulative = 1.24508e-21
nonePCG:  Solving for p, Initial residual = 0.914248, Final residual = 9.85063e-05, No Iterations 3843
time step continuity errors : sum local = 1.72645e-08, global = 7.81195e-23, cumulative = 1.3232e-21
ExecutionTime = 589.93 s  ClockTime = 598 s

Time = 0.0007

Courant Number mean: 0.0244293 max: 0.766084
DILUPBiCGStab:  Solving for Ux, Initial residual = 0.0461314, Final residual = 0.00670638, No Iterations 5
DILUPBiCGStab:  Solving for Uy, Initial residual = 0.255561, Final residual = 0.0290111, No Iterations 5
DILUPBiCGStab:  Solving for Uz, Initial residual = 0.721369, Final residual = 0.0538991, No Iterations 5
nonePCG:  Solving for p, Initial residual = 0.97886, Final residual = 9.98632e-05, No Iterations 3839
time step continuity errors : sum local = 2.15674e-08, global = -1.32953e-21, cumulative = -6.33569e-24
nonePCG:  Solving for p, Initial residual = 0.929281, Final residual = 9.99051e-05, No Iterations 3837
time step continuity errors : sum local = 2.16335e-08, global = -6.21445e-22, cumulative = -6.27781e-22
ExecutionTime = 695.35 s  ClockTime = 703 s

Time = 0.0008

Courant Number mean: 0.0259426 max: 0.548903
DILUPBiCGStab:  Solving for Ux, Initial residual = 0.052891, Final residual = 0.00685449, No Iterations 5
DILUPBiCGStab:  Solving for Uy, Initial residual = 0.265025, Final residual = 0.0261536, No Iterations 5
DILUPBiCGStab:  Solving for Uz, Initial residual = 0.715872, Final residual = 0.0497473, No Iterations 5
nonePCG:  Solving for p, Initial residual = 0.980802, Final residual = 9.98365e-05, No Iterations 3808
time step continuity errors : sum local = 2.71715e-08, global = 5.98129e-23, cumulative = -5.67968e-22
nonePCG:  Solving for p, Initial residual = 0.920507, Final residual = 9.99929e-05, No Iterations 3834
time step continuity errors : sum local = 2.75863e-08, global = -1.12427e-22, cumulative = -6.80395e-22
ExecutionTime = 800.12 s  ClockTime = 808 s

Time = 0.0009

Courant Number mean: 0.0276884 max: 1.1955
DILUPBiCGStab:  Solving for Ux, Initial residual = 0.0601437, Final residual = 0.00677894, No Iterations 5
DILUPBiCGStab:  Solving for Uy, Initial residual = 0.306519, Final residual = 0.028126, No Iterations 5
DILUPBiCGStab:  Solving for Uz, Initial residual = 0.722319, Final residual = 0.0471811, No Iterations 5
nonePCG:  Solving for p, Initial residual = 0.982982, Final residual = 9.84815e-05, No Iterations 3838
time step continuity errors : sum local = 3.3945e-08, global = 1.33527e-21, cumulative = 6.54879e-22
nonePCG:  Solving for p, Initial residual = 0.929532, Final residual = 9.90375e-05, No Iterations 3835
time step continuity errors : sum local = 3.43138e-08, global = 6.27623e-23, cumulative = 7.17641e-22
ExecutionTime = 905.33 s  ClockTime = 912 s

Time = 0.001

Courant Number mean: 0.0289384 max: 1.21677
DILUPBiCGStab:  Solving for Ux, Initial residual = 0.0733019, Final residual = 0.00747421, No Iterations 5
DILUPBiCGStab:  Solving for Uy, Initial residual = 0.328382, Final residual = 0.0267403, No Iterations 5
DILUPBiCGStab:  Solving for Uz, Initial residual = 0.722581, Final residual = 0.0457818, No Iterations 5
nonePCG:  Solving for p, Initial residual = 0.985131, Final residual = 9.90118e-05, No Iterations 3837
time step continuity errors : sum local = 4.36385e-08, global = 1.91659e-21, cumulative = 2.63423e-21
nonePCG:  Solving for p, Initial residual = 0.924048, Final residual = 9.93359e-05, No Iterations 3833
time step continuity errors : sum local = 4.43342e-08, global = -1.00898e-22, cumulative = 2.53334e-21
ExecutionTime = 1010.45 s  ClockTime = 1017 s

Time = 0.0011

Courant Number mean: 0.0306657 max: 2.15157
DILUPBiCGStab:  Solving for Ux, Initial residual = 0.0860905, Final residual = 0.00777475, No Iterations 5
DILUPBiCGStab:  Solving for Uy, Initial residual = 0.378253, Final residual = 0.0294156, No Iterations 5
DILUPBiCGStab:  Solving for Uz, Initial residual = 0.729068, Final residual = 0.0450693, No Iterations 5
nonePCG:  Solving for p, Initial residual = 0.985879, Final residual = 9.89079e-05, No Iterations 3837
time step continuity errors : sum local = 5.61056e-08, global = -1.03471e-21, cumulative = 1.49863e-21
nonePCG:  Solving for p, Initial residual = 0.929412, Final residual = 9.93465e-05, No Iterations 3833
time step continuity errors : sum local = 5.67473e-08, global = 2.97656e-22, cumulative = 1.79628e-21
ExecutionTime = 1115.56 s  ClockTime = 1122 s

Time = 0.0012

Courant Number mean: 0.0318158 max: 2.60901
DILUPBiCGStab:  Solving for Ux, Initial residual = 0.108443, Final residual = 0.00898722, No Iterations 5
DILUPBiCGStab:  Solving for Uy, Initial residual = 0.411121, Final residual = 0.0293366, No Iterations 5
DILUPBiCGStab:  Solving for Uz, Initial residual = 0.73079, Final residual = 0.0444456, No Iterations 5
nonePCG:  Solving for p, Initial residual = 0.987798, Final residual = 9.92587e-05, No Iterations 3838
time step continuity errors : sum local = 7.27863e-08, global = 1.69229e-21, cumulative = 3.48857e-21
nonePCG:  Solving for p, Initial residual = 0.92637, Final residual = 9.86927e-05, No Iterations 3834
time step continuity errors : sum local = 7.32322e-08, global = -4.61903e-22, cumulative = 3.02667e-21
ExecutionTime = 1220.74 s  ClockTime = 1226 s

End

Finalising parallel run
