/*---------------------------------------------------------------------------*\
| =========                 |                                                 |
| \\      /  F ield         | OpenFOAM: The Open Source CFD Toolbox           |
|  \\    /   O peration     | Version:  2212                                  |
|   \\  /    A nd           | Website:  www.openfoam.com                      |
|    \\/     M anipulation  |                                                 |
\*---------------------------------------------------------------------------*/
Build  : 5614a57-20230228 OPENFOAM=2212 patch=230110 version=v2212
Arch   : "LSB;label=32;scalar=64"
Exec   : icoFoam -parallel -case /home/greole/data/code/exasim-project/micro_benchmarks/LidDrivenCavity3D/workspace/cf23f0230bbd3415759760b88315d587/case
Date   : Jul 01 2023
Time   : 09:30:44
Host   : guyot
PID    : 2134368
I/O    : uncollated
Case   : /home/greole/data/code/exasim-project/micro_benchmarks/LidDrivenCavity3D/workspace/cf23f0230bbd3415759760b88315d587/case
nProcs : 128
Hosts  :
(
    (guyot 128)
)
Pstream initialized with:
    floatTransfer      : 0
    nProcsSimpleSum    : 0
    commsType          : nonBlocking
    polling iterations : 0
trapFpe: Floating point exception trapping enabled (FOAM_SIGFPE).
fileModificationChecking : Monitoring run-time modified files using timeStampMaster (fileModificationSkew 5, maxFileModificationPolls 20)
allowSystemOperations : Allowing user-supplied system call operations

// * * * * * * * * * * * * * * * * * * * * * * * * * * * * * * * * * * * * * //
Create time

--> FOAM Warning : 
    From void* Foam::dlLibraryTable::openLibrary(const Foam::fileName&, bool)
    in file db/dynamicLibrary/dlLibraryTable/dlLibraryTable.C at line 188
    Could not load "libpetscFoam.so"
libpetscFoam.so: cannot open shared object file: No such file or directory
Create mesh for time = 0


PISO: Operating solver in PISO mode

Reading transportProperties

Reading field p

Reading field U

Reading/calculating face flux field phi


Starting time loop

Time = 0.000166

Courant Number mean: 8.14055e-18 max: 3.11001e-14
[INFO] MatrixAssemblyU: 217.813 [ms]
DILUPBiCGStab:  Solving for Ux, Initial residual = 1, Final residual = 0.0176977, No Iterations 5
DILUPBiCGStab:  Solving for Uy:  solution singularity
DILUPBiCGStab:  Solving for Uz:  solution singularity
[INFO] MomentumPredictor: 690.951 [ms]
[INFO] MatrixAssemblyPI: 219.851 [ms]
[INFO] AdjustPhi: 12.004 [ms]
[INFO] ConstrainPressure: 0.009 [ms]
[INFO] MatrixAssemblyPII: 60.094 [ms]
[OGL LOG][lduLduBase.H:122] Initialising OGL
	OGL commit:  6548490+
	Branch: gko-1.5.0 
	Build type: Release
	Ginkgo version: 1.5.0 ( develop)
	Ginkgo commit: 4292ffdee
	MPI is GPU aware: 1
	Forces host buffer based communication: 1
	CPU ranks per GPU: 1
	Matrix format: Coo
	End OGL_INFO
[OGL LOG][Proc: 0]: global_index_init: 1413.9 [ms]
[OGL LOG][Proc: 0]p_local_cols: call_init: 3.456 [ms]
[OGL LOG][Proc: 0]p_local_rows: call_init: 0.02 [ms]
[OGL LOG][Proc: 0]p_local_ldu_map: call_init: 0.005 [ms]
[OGL LOG][Proc: 0]p_local_coeffs: call_init: 0.031 [ms]
[OGL LOG][Proc: 0]p_non_local_cols: call_init: 0.004 [ms]
[OGL LOG][Proc: 0]p_non_local_rows: call_init: 0.002 [ms]
[OGL LOG][Proc: 0]p_non_local_ldu_map: call_init: 0.002 [ms]
[OGL LOG][Proc: 0]p_non_local_coeffs: call_init: 0.002 [ms]
[OGL LOG][Proc: 0]p: init_local_sparsity_pattern: 64.748 [ms]
[OGL LOG][Proc: 0]p: init_non_local_sparsity_pattern: 15.133 [ms]
[OGL LOG][Proc: 0]p: update_local_matrix_data: 36.634 [ms]
[OGL LOG][Proc: 0]p: update_non_local_matrix_data: 0.074 [ms]
[OGL LOG][Proc: 0]device_partition: call_init: 0.948 [ms]
[OGL LOG][Proc: 0]p_matrix: call_init: 1350.86 [ms]
[OGL LOG][Proc: 0]p_rhs: call_init: 35.835 [ms]
[OGL LOG][Proc: 0]p_solution: call_init: 1.527 [ms]
[OGL LOG][Proc: 0]p: init_precond: 0.202 [ms]
[OGL LOG][StoppingCriterion.H:372] Creating stopping criterion with minIter 0 frequency 1
[OGL LOG][Proc: 0]p: generate_solver: 0.065 [ms]
[OGL LOG][Proc: 0]p: solve: 72555.2 [ms]
[OGL LOG][Proc: 0]p: copy_x_back: 0.586 [ms]
[OGL LOG][lduLduBase.H:339] 
Statistics:
	Time per iteration: 29907 [mu s]
	Time per residual norm calculation: 7967.000000 [mu s]
	Time per iteration and DOF: 1.107667 [ns]
	Retrieve results bandwidth 2.918000 [GByte/s]
[OGL LOG][Proc: 0]p: solve_multi_gpu: 74019.1 [ms]
nonecudaGKOCG:  Solving for p, Initial residual = 1, Final residual = 9.899e-05, No Iterations 2426
[INFO] SolveP: 127363 [ms]
time step continuity errors : sum local = 4.4252e-09, global = 1.65197e-21, cumulative = 1.65197e-21
[INFO] ContinuityError: 43.053 [ms]
[INFO] CorrectBoundary: 0.456 [ms]
[INFO] PISOStep: 127754 [ms]
[INFO] MatrixAssemblyPI: 205.859 [ms]
[INFO] AdjustPhi: 12.531 [ms]
[INFO] ConstrainPressure: 0.015 [ms]
[INFO] MatrixAssemblyPII: 60.159 [ms]
[OGL LOG][Proc: 0]: global_index_init: 0.469 [ms]
[OGL LOG][Proc: 0]p_local_coeffs: call_update: 0.007 [ms]
[OGL LOG][Proc: 0]p_non_local_coeffs: call_update: 0 [ms]
[OGL LOG][Proc: 0]p: update_local_matrix_data: 35.557 [ms]
[OGL LOG][Proc: 0]p: update_non_local_matrix_data: 0.136 [ms]
[OGL LOG][Proc: 0]p_matrix: call_update: 48.281 [ms]
[OGL LOG][Proc: 0]p_rhs: call_update: 23.23 [ms]
[OGL LOG][Proc: 0]p: init_precond: 0.279 [ms]
[OGL LOG][StoppingCriterion.H:372] Creating stopping criterion with minIter 1455 frequency 17
[OGL LOG][Proc: 0]p: generate_solver: 0.003 [ms]
[OGL LOG][Proc: 0]p: solve: 48716.7 [ms]
[OGL LOG][Proc: 0]p: copy_x_back: 0.561 [ms]
[OGL LOG][lduLduBase.H:339] 
Statistics:
	Time per iteration: 20172 [mu s]
	Time per residual norm calculation: 7862.000000 [mu s]
	Time per iteration and DOF: 0.747111 [ns]
	Retrieve results bandwidth 3.048000 [GByte/s]
[OGL LOG][Proc: 0]p: solve_multi_gpu: 48863 [ms]
nonecudaGKOCG:  Solving for p, Initial residual = 0.817307, Final residual = 9.52977e-05, No Iterations 2415
[INFO] SolveP: 48914.3 [ms]
time step continuity errors : sum local = 5.13019e-09, global = 9.26581e-22, cumulative = 2.57855e-21
[INFO] ContinuityError: 40.719 [ms]
[INFO] CorrectBoundary: 0.689 [ms]
[INFO] PISOStep: 49293.2 [ms]
[INFO] TimeStep: 177976 [ms]
ExecutionTime = 134.37 s  ClockTime = 179 s

Time = 0.000332

Courant Number mean: 0.0127259 max: 0.426508
[INFO] MatrixAssemblyU: 201.629 [ms]
DILUPBiCGStab:  Solving for Ux, Initial residual = 0.11705, Final residual = 0.0107512, No Iterations 5
DILUPBiCGStab:  Solving for Uy, Initial residual = 0.461007, Final residual = 0.035624, No Iterations 5
DILUPBiCGStab:  Solving for Uz, Initial residual = 0.982796, Final residual = 0.0845761, No Iterations 5
[INFO] MomentumPredictor: 1345.65 [ms]
[INFO] MatrixAssemblyPI: 212.437 [ms]
[INFO] AdjustPhi: 12.358 [ms]
[INFO] ConstrainPressure: 0.007 [ms]
[INFO] MatrixAssemblyPII: 60.211 [ms]
[OGL LOG][Proc: 0]: global_index_init: 1.016 [ms]
[OGL LOG][Proc: 0]p_local_coeffs: call_update: 0 [ms]
[OGL LOG][Proc: 0]p_non_local_coeffs: call_update: 0 [ms]
[OGL LOG][Proc: 0]p: update_local_matrix_data: 34.665 [ms]
[OGL LOG][Proc: 0]p: update_non_local_matrix_data: 0.306 [ms]
[OGL LOG][Proc: 0]p_matrix: call_update: 55.043 [ms]
[OGL LOG][Proc: 0]p_rhs: call_update: 14.945 [ms]
[OGL LOG][Proc: 0]p: init_precond: 0.17 [ms]
[OGL LOG][StoppingCriterion.H:372] Creating stopping criterion with minIter 1449 frequency 21
[OGL LOG][Proc: 0]p: generate_solver: 0.002 [ms]
[OGL LOG][Proc: 0]p: solve: 48201.8 [ms]
[OGL LOG][Proc: 0]p: copy_x_back: 0.512 [ms]
[OGL LOG][lduLduBase.H:339] 
Statistics:
	Time per iteration: 20126 [mu s]
	Time per residual norm calculation: 7861.000000 [mu s]
	Time per iteration and DOF: 0.745407 [ns]
	Retrieve results bandwidth 3.339000 [GByte/s]
[OGL LOG][Proc: 0]p: solve_multi_gpu: 48346.1 [ms]
nonecudaGKOCG:  Solving for p, Initial residual = 0.890607, Final residual = 6.4656e-05, No Iterations 2395
[INFO] SolveP: 48397.3 [ms]
time step continuity errors : sum local = 6.84555e-09, global = -6.45544e-22, cumulative = 1.93301e-21
[INFO] ContinuityError: 34.283 [ms]
[INFO] CorrectBoundary: 1.07 [ms]
[INFO] PISOStep: 48783.6 [ms]
[INFO] MatrixAssemblyPI: 205.5 [ms]
[INFO] AdjustPhi: 13.537 [ms]
[INFO] ConstrainPressure: 0.009 [ms]
[INFO] MatrixAssemblyPII: 60.151 [ms]
[OGL LOG][Proc: 0]: global_index_init: 0.305 [ms]
[OGL LOG][Proc: 0]p_local_coeffs: call_update: 0 [ms]
[OGL LOG][Proc: 0]p_non_local_coeffs: call_update: 0 [ms]
[OGL LOG][Proc: 0]p: update_local_matrix_data: 35.571 [ms]
[OGL LOG][Proc: 0]p: update_non_local_matrix_data: 0.091 [ms]
[OGL LOG][Proc: 0]p_matrix: call_update: 63.154 [ms]
[OGL LOG][Proc: 0]p_rhs: call_update: 8.344 [ms]
[OGL LOG][Proc: 0]p: init_precond: 0.155 [ms]
[OGL LOG][StoppingCriterion.H:372] Creating stopping criterion with minIter 1437 frequency 21
[OGL LOG][Proc: 0]p: generate_solver: 0.003 [ms]
[OGL LOG][Proc: 0]p: solve: 48216.9 [ms]
[OGL LOG][Proc: 0]p: copy_x_back: 0.571 [ms]
[OGL LOG][lduLduBase.H:339] 
Statistics:
	Time per iteration: 20132 [mu s]
	Time per residual norm calculation: 7855.000000 [mu s]
	Time per iteration and DOF: 0.745630 [ns]
	Retrieve results bandwidth 2.994000 [GByte/s]
[OGL LOG][Proc: 0]p: solve_multi_gpu: 48361.1 [ms]
nonecudaGKOCG:  Solving for p, Initial residual = 0.835777, Final residual = 6.05489e-05, No Iterations 2395
[INFO] SolveP: 48416.8 [ms]
time step continuity errors : sum local = 6.53371e-09, global = 7.93056e-22, cumulative = 2.72606e-21
[INFO] ContinuityError: 39.145 [ms]
[INFO] CorrectBoundary: 0.772 [ms]
[INFO] PISOStep: 48796.6 [ms]
[INFO] TimeStep: 99147 [ms]
ExecutionTime = 232.85 s  ClockTime = 278 s

Time = 0.000498

Courant Number mean: 0.0196636 max: 0.492172
[INFO] MatrixAssemblyU: 202.299 [ms]
DILUPBiCGStab:  Solving for Ux, Initial residual = 0.0545277, Final residual = 0.00407353, No Iterations 5
DILUPBiCGStab:  Solving for Uy, Initial residual = 0.227399, Final residual = 0.0182675, No Iterations 5
DILUPBiCGStab:  Solving for Uz, Initial residual = 0.84161, Final residual = 0.0598274, No Iterations 5
[INFO] MomentumPredictor: 1343.03 [ms]
[INFO] MatrixAssemblyPI: 211.908 [ms]
[INFO] AdjustPhi: 12.94 [ms]
[INFO] ConstrainPressure: 0.005 [ms]
[INFO] MatrixAssemblyPII: 60.223 [ms]
[OGL LOG][Proc: 0]: global_index_init: 0.688 [ms]
[OGL LOG][Proc: 0]p_local_coeffs: call_update: 0 [ms]
[OGL LOG][Proc: 0]p_non_local_coeffs: call_update: 0 [ms]
[OGL LOG][Proc: 0]p: update_local_matrix_data: 34.925 [ms]
[OGL LOG][Proc: 0]p: update_non_local_matrix_data: 0.254 [ms]
[OGL LOG][Proc: 0]p_matrix: call_update: 50.895 [ms]
[OGL LOG][Proc: 0]p_rhs: call_update: 21.047 [ms]
[OGL LOG][Proc: 0]p: init_precond: 0.116 [ms]
[OGL LOG][StoppingCriterion.H:372] Creating stopping criterion with minIter 1437 frequency 21
[OGL LOG][Proc: 0]p: generate_solver: 0.002 [ms]
[OGL LOG][Proc: 0]p: solve: 29147.9 [ms]
[OGL LOG][Proc: 0]p: copy_x_back: 0.522 [ms]
[OGL LOG][lduLduBase.H:339] 
Statistics:
	Time per iteration: 20101 [mu s]
	Time per residual norm calculation: 7820.000000 [mu s]
	Time per iteration and DOF: 0.744481 [ns]
	Retrieve results bandwidth 3.275000 [GByte/s]
[OGL LOG][Proc: 0]p: solve_multi_gpu: 29293.9 [ms]
nonecudaGKOCG:  Solving for p, Initial residual = 0.919214, Final residual = 8.39261e-05, No Iterations 1450
[INFO] SolveP: 29343.8 [ms]
time step continuity errors : sum local = 9.89594e-09, global = 1.73974e-22, cumulative = 2.90004e-21
[INFO] ContinuityError: 47.405 [ms]
[INFO] CorrectBoundary: 0.888 [ms]
[INFO] PISOStep: 29730.9 [ms]
[INFO] MatrixAssemblyPI: 204.293 [ms]
[INFO] AdjustPhi: 14.158 [ms]
[INFO] ConstrainPressure: 0.011 [ms]
[INFO] MatrixAssemblyPII: 59.667 [ms]
[OGL LOG][Proc: 0]: global_index_init: 0.309 [ms]
[OGL LOG][Proc: 0]p_local_coeffs: call_update: 0 [ms]
[OGL LOG][Proc: 0]p_non_local_coeffs: call_update: 0 [ms]
[OGL LOG][Proc: 0]p: update_local_matrix_data: 35.342 [ms]
[OGL LOG][Proc: 0]p: update_non_local_matrix_data: 0.132 [ms]
[OGL LOG][Proc: 0]p_matrix: call_update: 62.766 [ms]
[OGL LOG][Proc: 0]p_rhs: call_update: 6.584 [ms]
[OGL LOG][Proc: 0]p: init_precond: 0.16 [ms]
[OGL LOG][StoppingCriterion.H:372] Creating stopping criterion with minIter 870 frequency 17
[OGL LOG][Proc: 0]p: generate_solver: 0.002 [ms]
[OGL LOG][Proc: 0]p: solve: 23476.9 [ms]
[OGL LOG][Proc: 0]p: copy_x_back: 0.494 [ms]
[OGL LOG][lduLduBase.H:339] 
Statistics:
	Time per iteration: 20291 [mu s]
	Time per residual norm calculation: 7851.000000 [mu s]
	Time per iteration and DOF: 0.751519 [ns]
	Retrieve results bandwidth 3.461000 [GByte/s]
[OGL LOG][Proc: 0]p: solve_multi_gpu: 23615.1 [ms]
nonecudaGKOCG:  Solving for p, Initial residual = 0.884093, Final residual = 8.14072e-05, No Iterations 1157
[INFO] SolveP: 23669 [ms]
time step continuity errors : sum local = 9.1515e-09, global = 2.49256e-22, cumulative = 3.14929e-21
[INFO] ContinuityError: 45.203 [ms]
[INFO] CorrectBoundary: 0.988 [ms]
[INFO] PISOStep: 24047.6 [ms]
[INFO] TimeStep: 55343.7 [ms]
ExecutionTime = 287.82 s  ClockTime = 333 s

Time = 0.000664

Courant Number mean: 0.0237405 max: 0.471931
[INFO] MatrixAssemblyU: 201.259 [ms]
DILUPBiCGStab:  Solving for Ux, Initial residual = 0.0387044, Final residual = 0.00322673, No Iterations 5
DILUPBiCGStab:  Solving for Uy, Initial residual = 0.174748, Final residual = 0.0150668, No Iterations 5
DILUPBiCGStab:  Solving for Uz, Initial residual = 0.730086, Final residual = 0.0429408, No Iterations 5
[INFO] MomentumPredictor: 1343.64 [ms]
[INFO] MatrixAssemblyPI: 211.503 [ms]
[INFO] AdjustPhi: 13.119 [ms]
[INFO] ConstrainPressure: 0.003 [ms]
[INFO] MatrixAssemblyPII: 60.239 [ms]
[OGL LOG][Proc: 0]: global_index_init: 0.06 [ms]
[OGL LOG][Proc: 0]p_local_coeffs: call_update: 0.001 [ms]
[OGL LOG][Proc: 0]p_non_local_coeffs: call_update: 0 [ms]
[OGL LOG][Proc: 0]p: update_local_matrix_data: 34.433 [ms]
[OGL LOG][Proc: 0]p: update_non_local_matrix_data: 0.307 [ms]
[OGL LOG][Proc: 0]p_matrix: call_update: 66.347 [ms]
[OGL LOG][Proc: 0]p_rhs: call_update: 2.187 [ms]
[OGL LOG][Proc: 0]p: init_precond: 0.163 [ms]
[OGL LOG][StoppingCriterion.H:372] Creating stopping criterion with minIter 694 frequency 15
[OGL LOG][Proc: 0]p: generate_solver: 0.002 [ms]
[OGL LOG][Proc: 0]p: solve: 23668.5 [ms]
[OGL LOG][Proc: 0]p: copy_x_back: 0.493 [ms]
[OGL LOG][lduLduBase.H:339] 
Statistics:
	Time per iteration: 20474 [mu s]
	Time per residual norm calculation: 7863.000000 [mu s]
	Time per iteration and DOF: 0.758296 [ns]
	Retrieve results bandwidth 3.468000 [GByte/s]
[OGL LOG][Proc: 0]p: solve_multi_gpu: 23810.8 [ms]
nonecudaGKOCG:  Solving for p, Initial residual = 0.89824, Final residual = 8.88023e-05, No Iterations 1156
[INFO] SolveP: 23861.5 [ms]
time step continuity errors : sum local = 1.14544e-08, global = 7.72929e-22, cumulative = 3.92222e-21
[INFO] ContinuityError: 42.366 [ms]
[INFO] CorrectBoundary: 0.828 [ms]
[INFO] PISOStep: 24247.7 [ms]
[INFO] MatrixAssemblyPI: 204.669 [ms]
[INFO] AdjustPhi: 13.908 [ms]
[INFO] ConstrainPressure: 0.017 [ms]
[INFO] MatrixAssemblyPII: 59.923 [ms]
[OGL LOG][Proc: 0]: global_index_init: 0.196 [ms]
[OGL LOG][Proc: 0]p_local_coeffs: call_update: 0 [ms]
[OGL LOG][Proc: 0]p_non_local_coeffs: call_update: 0 [ms]
[OGL LOG][Proc: 0]p: update_local_matrix_data: 35.382 [ms]
[OGL LOG][Proc: 0]p: update_non_local_matrix_data: 0.122 [ms]
[OGL LOG][Proc: 0]p_matrix: call_update: 71.274 [ms]
[OGL LOG][Proc: 0]p_rhs: call_update: 2.217 [ms]
[OGL LOG][Proc: 0]p: init_precond: 0.151 [ms]
[OGL LOG][StoppingCriterion.H:372] Creating stopping criterion with minIter 693 frequency 15
[OGL LOG][Proc: 0]p: generate_solver: 0.002 [ms]
[OGL LOG][Proc: 0]p: solve: 23315.7 [ms]
[OGL LOG][Proc: 0]p: copy_x_back: 0.581 [ms]
[OGL LOG][lduLduBase.H:339] 
Statistics:
	Time per iteration: 20434 [mu s]
	Time per residual norm calculation: 7840.000000 [mu s]
	Time per iteration and DOF: 0.756815 [ns]
	Retrieve results bandwidth 2.943000 [GByte/s]
[OGL LOG][Proc: 0]p: solve_multi_gpu: 23462.8 [ms]
nonecudaGKOCG:  Solving for p, Initial residual = 0.836025, Final residual = 9.94788e-05, No Iterations 1141
[INFO] SolveP: 23516.1 [ms]
time step continuity errors : sum local = 1.2396e-08, global = 4.46358e-22, cumulative = 4.36858e-21
[INFO] ContinuityError: 26.811 [ms]
[INFO] CorrectBoundary: 0.559 [ms]
[INFO] PISOStep: 23893 [ms]
[INFO] TimeStep: 49705.3 [ms]
ExecutionTime = 337.19 s  ClockTime = 383 s

Time = 0.00083

Courant Number mean: 0.0272354 max: 0.505748
[INFO] MatrixAssemblyU: 200.768 [ms]
DILUPBiCGStab:  Solving for Ux, Initial residual = 0.0326108, Final residual = 0.00278896, No Iterations 5
DILUPBiCGStab:  Solving for Uy, Initial residual = 0.131213, Final residual = 0.0126689, No Iterations 5
DILUPBiCGStab:  Solving for Uz, Initial residual = 0.674102, Final residual = 0.0355598, No Iterations 5
[INFO] MomentumPredictor: 1350.7 [ms]
[INFO] MatrixAssemblyPI: 212.038 [ms]
[INFO] AdjustPhi: 12.877 [ms]
[INFO] ConstrainPressure: 0.004 [ms]
[INFO] MatrixAssemblyPII: 60.291 [ms]
[OGL LOG][Proc: 0]: global_index_init: 0.455 [ms]
[OGL LOG][Proc: 0]p_local_coeffs: call_update: 0 [ms]
[OGL LOG][Proc: 0]p_non_local_coeffs: call_update: 0 [ms]
[OGL LOG][Proc: 0]p: update_local_matrix_data: 35.47 [ms]
[OGL LOG][Proc: 0]p: update_non_local_matrix_data: 0.099 [ms]
[OGL LOG][Proc: 0]p_matrix: call_update: 54.309 [ms]
[OGL LOG][Proc: 0]p_rhs: call_update: 18.631 [ms]
[OGL LOG][Proc: 0]p: init_precond: 0.175 [ms]
[OGL LOG][StoppingCriterion.H:372] Creating stopping criterion with minIter 684 frequency 15
[OGL LOG][Proc: 0]p: generate_solver: 0.002 [ms]
[OGL LOG][Proc: 0]p: solve: 48721.4 [ms]
[OGL LOG][Proc: 0]p: copy_x_back: 0.528 [ms]
[OGL LOG][lduLduBase.H:339] 
Statistics:
	Time per iteration: 20419 [mu s]
	Time per residual norm calculation: 7843.000000 [mu s]
	Time per iteration and DOF: 0.756259 [ns]
	Retrieve results bandwidth 3.238000 [GByte/s]
[OGL LOG][Proc: 0]p: solve_multi_gpu: 48867.8 [ms]
nonecudaGKOCG:  Solving for p, Initial residual = 0.916518, Final residual = 7.47547e-05, No Iterations 2386
[INFO] SolveP: 48920.4 [ms]
time step continuity errors : sum local = 8.86145e-09, global = 7.91008e-22, cumulative = 5.15959e-21
[INFO] ContinuityError: 44.094 [ms]
[INFO] CorrectBoundary: 0.746 [ms]
[INFO] PISOStep: 49305.7 [ms]
[INFO] MatrixAssemblyPI: 204.388 [ms]
[INFO] AdjustPhi: 14.27 [ms]
[INFO] ConstrainPressure: 0.013 [ms]
[INFO] MatrixAssemblyPII: 59.639 [ms]
[OGL LOG][Proc: 0]: global_index_init: 0.187 [ms]
[OGL LOG][Proc: 0]p_local_coeffs: call_update: 0 [ms]
[OGL LOG][Proc: 0]p_non_local_coeffs: call_update: 0 [ms]
[OGL LOG][Proc: 0]p: update_local_matrix_data: 35.257 [ms]
[OGL LOG][Proc: 0]p: update_non_local_matrix_data: 0.404 [ms]
[OGL LOG][Proc: 0]p_matrix: call_update: 68.345 [ms]
[OGL LOG][Proc: 0]p_rhs: call_update: 3.332 [ms]
[OGL LOG][Proc: 0]p: init_precond: 0.164 [ms]
[OGL LOG][StoppingCriterion.H:372] Creating stopping criterion with minIter 1431 frequency 21
[OGL LOG][Proc: 0]p: generate_solver: 0.002 [ms]
[OGL LOG][Proc: 0]p: solve: 48205.3 [ms]
[OGL LOG][Proc: 0]p: copy_x_back: 0.557 [ms]
[OGL LOG][lduLduBase.H:339] 
Statistics:
	Time per iteration: 20127 [mu s]
	Time per residual norm calculation: 7858.000000 [mu s]
	Time per iteration and DOF: 0.745444 [ns]
	Retrieve results bandwidth 3.070000 [GByte/s]
[OGL LOG][Proc: 0]p: solve_multi_gpu: 48353.4 [ms]
nonecudaGKOCG:  Solving for p, Initial residual = 0.875367, Final residual = 6.48382e-05, No Iterations 2395
[INFO] SolveP: 48401.6 [ms]
time step continuity errors : sum local = 7.59029e-09, global = 1.02811e-21, cumulative = 6.1877e-21
[INFO] ContinuityError: 45.119 [ms]
[INFO] CorrectBoundary: 2.593 [ms]
[INFO] PISOStep: 48780 [ms]
[INFO] TimeStep: 99656.7 [ms]
ExecutionTime = 436.17 s  ClockTime = 483 s

Time = 0.000996

Courant Number mean: 0.0299519 max: 0.478323
[INFO] MatrixAssemblyU: 202.194 [ms]
DILUPBiCGStab:  Solving for Ux, Initial residual = 0.0273898, Final residual = 0.00251151, No Iterations 5
DILUPBiCGStab:  Solving for Uy, Initial residual = 0.113275, Final residual = 0.0101067, No Iterations 5
DILUPBiCGStab:  Solving for Uz, Initial residual = 0.593316, Final residual = 0.0280832, No Iterations 5
[INFO] MomentumPredictor: 1343.97 [ms]
[INFO] MatrixAssemblyPI: 211.433 [ms]
[INFO] AdjustPhi: 13.498 [ms]
[INFO] ConstrainPressure: 0.004 [ms]
[INFO] MatrixAssemblyPII: 60.203 [ms]
[OGL LOG][Proc: 0]: global_index_init: 0.377 [ms]
[OGL LOG][Proc: 0]p_local_coeffs: call_update: 0 [ms]
[OGL LOG][Proc: 0]p_non_local_coeffs: call_update: 0 [ms]
[OGL LOG][Proc: 0]p: update_local_matrix_data: 35.456 [ms]
[OGL LOG][Proc: 0]p: update_non_local_matrix_data: 0.075 [ms]
[OGL LOG][Proc: 0]p_matrix: call_update: 69.04 [ms]
[OGL LOG][Proc: 0]p_rhs: call_update: 3.709 [ms]
[OGL LOG][Proc: 0]p: init_precond: 0.16 [ms]
[OGL LOG][StoppingCriterion.H:372] Creating stopping criterion with minIter 1437 frequency 21
[OGL LOG][Proc: 0]p: generate_solver: 0.002 [ms]
[OGL LOG][Proc: 0]p: solve: 47814.6 [ms]
[OGL LOG][Proc: 0]p: copy_x_back: 0.533 [ms]
[OGL LOG][lduLduBase.H:339] 
Statistics:
	Time per iteration: 20140 [mu s]
	Time per residual norm calculation: 7845.000000 [mu s]
	Time per iteration and DOF: 0.745926 [ns]
	Retrieve results bandwidth 3.208000 [GByte/s]
[OGL LOG][Proc: 0]p: solve_multi_gpu: 47959.6 [ms]
nonecudaGKOCG:  Solving for p, Initial residual = 0.895989, Final residual = 8.85341e-05, No Iterations 2374
[INFO] SolveP: 48017.6 [ms]
time step continuity errors : sum local = 1.07548e-08, global = 9.9717e-22, cumulative = 7.18487e-21
[INFO] ContinuityError: 27.317 [ms]
[INFO] CorrectBoundary: 0.687 [ms]
[INFO] PISOStep: 48399.6 [ms]
[INFO] MatrixAssemblyPI: 204.73 [ms]
[INFO] AdjustPhi: 14.324 [ms]
[INFO] ConstrainPressure: 0.01 [ms]
[INFO] MatrixAssemblyPII: 59.884 [ms]
[OGL LOG][Proc: 0]: global_index_init: 0.393 [ms]
[OGL LOG][Proc: 0]p_local_coeffs: call_update: 0 [ms]
[OGL LOG][Proc: 0]p_non_local_coeffs: call_update: 0 [ms]
[OGL LOG][Proc: 0]p: update_local_matrix_data: 35.405 [ms]
[OGL LOG][Proc: 0]p: update_non_local_matrix_data: 0.111 [ms]
[OGL LOG][Proc: 0]p_matrix: call_update: 63.435 [ms]
[OGL LOG][Proc: 0]p_rhs: call_update: 4.931 [ms]
[OGL LOG][Proc: 0]p: init_precond: 0.165 [ms]
[OGL LOG][StoppingCriterion.H:372] Creating stopping criterion with minIter 1424 frequency 21
[OGL LOG][Proc: 0]p: generate_solver: 0.001 [ms]
[OGL LOG][Proc: 0]p: solve: 47312 [ms]
[OGL LOG][Proc: 0]p: copy_x_back: 0.583 [ms]
[OGL LOG][lduLduBase.H:339] 
Statistics:
	Time per iteration: 20107 [mu s]
	Time per residual norm calculation: 7844.000000 [mu s]
	Time per iteration and DOF: 0.744704 [ns]
	Retrieve results bandwidth 2.933000 [GByte/s]
[OGL LOG][Proc: 0]p: solve_multi_gpu: 47453.6 [ms]
nonecudaGKOCG:  Solving for p, Initial residual = 0.831335, Final residual = 9.81801e-05, No Iterations 2353
[INFO] SolveP: 47507.8 [ms]
time step continuity errors : sum local = 1.20989e-08, global = -2.57404e-22, cumulative = 6.92746e-21
[INFO] ContinuityError: 32.791 [ms]
[INFO] CorrectBoundary: 1.059 [ms]
[INFO] PISOStep: 47884.9 [ms]
[INFO] TimeStep: 97850.3 [ms]
ExecutionTime = 533.35 s  ClockTime = 580 s

Time = 0.001162

Courant Number mean: 0.0324004 max: 0.513039
[INFO] MatrixAssemblyU: 200.045 [ms]
DILUPBiCGStab:  Solving for Ux, Initial residual = 0.024861, Final residual = 0.00232626, No Iterations 5
DILUPBiCGStab:  Solving for Uy, Initial residual = 0.100079, Final residual = 0.00927564, No Iterations 5
DILUPBiCGStab:  Solving for Uz, Initial residual = 0.572541, Final residual = 0.0252253, No Iterations 5
[INFO] MomentumPredictor: 1345.33 [ms]
[INFO] MatrixAssemblyPI: 211.417 [ms]
[INFO] AdjustPhi: 13.388 [ms]
[INFO] ConstrainPressure: 0.003 [ms]
[INFO] MatrixAssemblyPII: 60.187 [ms]
[OGL LOG][Proc: 0]: global_index_init: 0.032 [ms]
[OGL LOG][Proc: 0]p_local_coeffs: call_update: 0 [ms]
[OGL LOG][Proc: 0]p_non_local_coeffs: call_update: 0 [ms]
[OGL LOG][Proc: 0]p: update_local_matrix_data: 35.147 [ms]
[OGL LOG][Proc: 0]p: update_non_local_matrix_data: 0.196 [ms]
[OGL LOG][Proc: 0]p_matrix: call_update: 71.41 [ms]
[OGL LOG][Proc: 0]p_rhs: call_update: 1.292 [ms]
[OGL LOG][Proc: 0]p: init_precond: 0.144 [ms]
[OGL LOG][StoppingCriterion.H:372] Creating stopping criterion with minIter 1411 frequency 21
[OGL LOG][Proc: 0]p: generate_solver: 0.002 [ms]
[OGL LOG][Proc: 0]p: solve: 42735.6 [ms]
[OGL LOG][Proc: 0]p: copy_x_back: 0.868 [ms]
[OGL LOG][lduLduBase.H:339] 
Statistics:
	Time per iteration: 20139 [mu s]
	Time per residual norm calculation: 7859.000000 [mu s]
	Time per iteration and DOF: 0.745889 [ns]
	Retrieve results bandwidth 1.970000 [GByte/s]
[OGL LOG][Proc: 0]p: solve_multi_gpu: 42881.7 [ms]
nonecudaGKOCG:  Solving for p, Initial residual = 0.912664, Final residual = 8.98617e-05, No Iterations 2122
[INFO] SolveP: 42935.5 [ms]
time step continuity errors : sum local = 1.06411e-08, global = 5.40494e-22, cumulative = 7.46796e-21
[INFO] ContinuityError: 25.364 [ms]
[INFO] CorrectBoundary: 0.444 [ms]
[INFO] PISOStep: 43317.7 [ms]
[INFO] MatrixAssemblyPI: 204.466 [ms]
[INFO] AdjustPhi: 14.198 [ms]
[INFO] ConstrainPressure: 0.013 [ms]
[INFO] MatrixAssemblyPII: 59.746 [ms]
[OGL LOG][Proc: 0]: global_index_init: 0.299 [ms]
[OGL LOG][Proc: 0]p_local_coeffs: call_update: 0 [ms]
[OGL LOG][Proc: 0]p_non_local_coeffs: call_update: 0 [ms]
[OGL LOG][Proc: 0]p: update_local_matrix_data: 35.347 [ms]
[OGL LOG][Proc: 0]p: update_non_local_matrix_data: 0.113 [ms]
[OGL LOG][Proc: 0]p_matrix: call_update: 69.918 [ms]
[OGL LOG][Proc: 0]p_rhs: call_update: 2.796 [ms]
[OGL LOG][Proc: 0]p: init_precond: 0.161 [ms]
[OGL LOG][StoppingCriterion.H:372] Creating stopping criterion with minIter 1273 frequency 20
[OGL LOG][Proc: 0]p: generate_solver: 0.002 [ms]
[OGL LOG][Proc: 0]p: solve: 42347.8 [ms]
[OGL LOG][Proc: 0]p: copy_x_back: 0.544 [ms]
[OGL LOG][lduLduBase.H:339] 
Statistics:
	Time per iteration: 20156 [mu s]
	Time per residual norm calculation: 7864.000000 [mu s]
	Time per iteration and DOF: 0.746519 [ns]
	Retrieve results bandwidth 3.143000 [GByte/s]
[OGL LOG][Proc: 0]p: solve_multi_gpu: 42495.4 [ms]
nonecudaGKOCG:  Solving for p, Initial residual = 0.865372, Final residual = 9.12084e-05, No Iterations 2101
[INFO] SolveP: 42547 [ms]
time step continuity errors : sum local = 1.06853e-08, global = 1.01082e-21, cumulative = 8.47878e-21
[INFO] ContinuityError: 37.81 [ms]
[INFO] CorrectBoundary: 0.52 [ms]
[INFO] PISOStep: 42923.7 [ms]
[INFO] TimeStep: 87806.5 [ms]
ExecutionTime = 620.56 s  ClockTime = 668 s

Time = 0.001328

Courant Number mean: 0.0344602 max: 0.481272
[INFO] MatrixAssemblyU: 200.936 [ms]
DILUPBiCGStab:  Solving for Ux, Initial residual = 0.0224758, Final residual = 0.00217844, No Iterations 5
DILUPBiCGStab:  Solving for Uy, Initial residual = 0.0886553, Final residual = 0.00778199, No Iterations 5
DILUPBiCGStab:  Solving for Uz, Initial residual = 0.53403, Final residual = 0.0234495, No Iterations 5
[INFO] MomentumPredictor: 1345.89 [ms]
[INFO] MatrixAssemblyPI: 212.052 [ms]
[INFO] AdjustPhi: 12.782 [ms]
[INFO] ConstrainPressure: 0.003 [ms]
[INFO] MatrixAssemblyPII: 60.307 [ms]
[OGL LOG][Proc: 0]: global_index_init: 0.1 [ms]
[OGL LOG][Proc: 0]p_local_coeffs: call_update: 0 [ms]
[OGL LOG][Proc: 0]p_non_local_coeffs: call_update: 0 [ms]
[OGL LOG][Proc: 0]p: update_local_matrix_data: 34.902 [ms]
[OGL LOG][Proc: 0]p: update_non_local_matrix_data: 0.19 [ms]
[OGL LOG][Proc: 0]p_matrix: call_update: 69.192 [ms]
[OGL LOG][Proc: 0]p_rhs: call_update: 4.76 [ms]
[OGL LOG][Proc: 0]p: init_precond: 0.155 [ms]
[OGL LOG][StoppingCriterion.H:372] Creating stopping criterion with minIter 1260 frequency 20
[OGL LOG][Proc: 0]p: generate_solver: 0.002 [ms]
[OGL LOG][Proc: 0]p: solve: 46878.2 [ms]
[OGL LOG][Proc: 0]p: copy_x_back: 0.505 [ms]
[OGL LOG][lduLduBase.H:339] 
Statistics:
	Time per iteration: 20197 [mu s]
	Time per residual norm calculation: 7869.000000 [mu s]
	Time per iteration and DOF: 0.748037 [ns]
	Retrieve results bandwidth 3.386000 [GByte/s]
[OGL LOG][Proc: 0]p: solve_multi_gpu: 47027.6 [ms]
nonecudaGKOCG:  Solving for p, Initial residual = 0.892412, Final residual = 7.6951e-05, No Iterations 2321
[INFO] SolveP: 47077.8 [ms]
time step continuity errors : sum local = 9.2608e-09, global = -5.20412e-23, cumulative = 8.42674e-21
[INFO] ContinuityError: 29.432 [ms]
[INFO] CorrectBoundary: 0.678 [ms]
[INFO] PISOStep: 47461.1 [ms]
[INFO] MatrixAssemblyPI: 205.609 [ms]
[INFO] AdjustPhi: 13.174 [ms]
[INFO] ConstrainPressure: 0.008 [ms]
[INFO] MatrixAssemblyPII: 59.851 [ms]
[OGL LOG][Proc: 0]: global_index_init: 0.398 [ms]
[OGL LOG][Proc: 0]p_local_coeffs: call_update: 0 [ms]
[OGL LOG][Proc: 0]p_non_local_coeffs: call_update: 0 [ms]
[OGL LOG][Proc: 0]p: update_local_matrix_data: 35.338 [ms]
[OGL LOG][Proc: 0]p: update_non_local_matrix_data: 0.154 [ms]
[OGL LOG][Proc: 0]p_matrix: call_update: 70.547 [ms]
[OGL LOG][Proc: 0]p_rhs: call_update: 2.495 [ms]
[OGL LOG][Proc: 0]p: init_precond: 0.169 [ms]
[OGL LOG][StoppingCriterion.H:372] Creating stopping criterion with minIter 1392 frequency 21
[OGL LOG][Proc: 0]p: generate_solver: 0.002 [ms]
[OGL LOG][Proc: 0]p: solve: 46559.2 [ms]
[OGL LOG][Proc: 0]p: copy_x_back: 0.643 [ms]
[OGL LOG][lduLduBase.H:339] 
Statistics:
	Time per iteration: 20146 [mu s]
	Time per residual norm calculation: 7850.000000 [mu s]
	Time per iteration and DOF: 0.746148 [ns]
	Retrieve results bandwidth 2.659000 [GByte/s]
[OGL LOG][Proc: 0]p: solve_multi_gpu: 46706.6 [ms]
nonecudaGKOCG:  Solving for p, Initial residual = 0.825153, Final residual = 8.72156e-05, No Iterations 2311
[INFO] SolveP: 46756.5 [ms]
time step continuity errors : sum local = 1.06342e-08, global = 6.56467e-22, cumulative = 9.0832e-21
[INFO] ContinuityError: 42.934 [ms]
[INFO] CorrectBoundary: 0.936 [ms]
[INFO] PISOStep: 47135.7 [ms]
[INFO] TimeStep: 96163.4 [ms]
ExecutionTime = 716.07 s  ClockTime = 764 s

Time = 0.001494

Courant Number mean: 0.0363811 max: 0.519456
[INFO] MatrixAssemblyU: 203.842 [ms]
DILUPBiCGStab:  Solving for Ux, Initial residual = 0.0208982, Final residual = 0.00203033, No Iterations 5
DILUPBiCGStab:  Solving for Uy, Initial residual = 0.0837118, Final residual = 0.00733816, No Iterations 5
DILUPBiCGStab:  Solving for Uz, Initial residual = 0.527419, Final residual = 0.0215261, No Iterations 5
[INFO] MomentumPredictor: 1341.76 [ms]
[INFO] MatrixAssemblyPI: 212.383 [ms]
[INFO] AdjustPhi: 12.684 [ms]
[INFO] ConstrainPressure: 0.003 [ms]
[INFO] MatrixAssemblyPII: 60.185 [ms]
[OGL LOG][Proc: 0]: global_index_init: 0.057 [ms]
[OGL LOG][Proc: 0]p_local_coeffs: call_update: 0 [ms]
[OGL LOG][Proc: 0]p_non_local_coeffs: call_update: 0 [ms]
[OGL LOG][Proc: 0]p: update_local_matrix_data: 34.762 [ms]
[OGL LOG][Proc: 0]p: update_non_local_matrix_data: 0.242 [ms]
[OGL LOG][Proc: 0]p_matrix: call_update: 62.317 [ms]
[OGL LOG][Proc: 0]p_rhs: call_update: 10.637 [ms]
[OGL LOG][Proc: 0]p: init_precond: 0.159 [ms]
[OGL LOG][StoppingCriterion.H:372] Creating stopping criterion with minIter 1386 frequency 21
[OGL LOG][Proc: 0]p: generate_solver: 0.002 [ms]
[OGL LOG][Proc: 0]p: solve: 44917.3 [ms]
[OGL LOG][Proc: 0]p: copy_x_back: 0.543 [ms]
[OGL LOG][lduLduBase.H:339] 
Statistics:
	Time per iteration: 20169 [mu s]
	Time per residual norm calculation: 7857.000000 [mu s]
	Time per iteration and DOF: 0.747000 [ns]
	Retrieve results bandwidth 3.149000 [GByte/s]
[OGL LOG][Proc: 0]p: solve_multi_gpu: 45064 [ms]
nonecudaGKOCG:  Solving for p, Initial residual = 0.908603, Final residual = 7.65185e-05, No Iterations 2227
[INFO] SolveP: 45117.4 [ms]
time step continuity errors : sum local = 9.01157e-09, global = 1.3631e-21, cumulative = 1.04463e-20
[INFO] ContinuityError: 27.656 [ms]
[INFO] CorrectBoundary: 0.57 [ms]
[INFO] PISOStep: 45498.2 [ms]
[INFO] MatrixAssemblyPI: 205.856 [ms]
[INFO] AdjustPhi: 12.391 [ms]
[INFO] ConstrainPressure: 0.014 [ms]
[INFO] MatrixAssemblyPII: 60.324 [ms]
[OGL LOG][Proc: 0]: global_index_init: 0.191 [ms]
[OGL LOG][Proc: 0]p_local_coeffs: call_update: 0.001 [ms]
[OGL LOG][Proc: 0]p_non_local_coeffs: call_update: 0 [ms]
[OGL LOG][Proc: 0]p: update_local_matrix_data: 35.562 [ms]
[OGL LOG][Proc: 0]p: update_non_local_matrix_data: 0.064 [ms]
[OGL LOG][Proc: 0]p_matrix: call_update: 67.611 [ms]
[OGL LOG][Proc: 0]p_rhs: call_update: 4.58 [ms]
[OGL LOG][Proc: 0]p: init_precond: 0.15 [ms]
[OGL LOG][StoppingCriterion.H:372] Creating stopping criterion with minIter 1336 frequency 21
[OGL LOG][Proc: 0]p: generate_solver: 0.002 [ms]
[OGL LOG][Proc: 0]p: solve: 46519.6 [ms]
[OGL LOG][Proc: 0]p: copy_x_back: 0.939 [ms]
[OGL LOG][lduLduBase.H:339] 
Statistics:
	Time per iteration: 20129 [mu s]
	Time per residual norm calculation: 10123.000000 [mu s]
	Time per iteration and DOF: 0.745519 [ns]
	Retrieve results bandwidth 1.821000 [GByte/s]
[OGL LOG][Proc: 0]p: solve_multi_gpu: 46662.6 [ms]
nonecudaGKOCG:  Solving for p, Initial residual = 0.857068, Final residual = 7.52325e-05, No Iterations 2311
[INFO] SolveP: 46707.2 [ms]
time step continuity errors : sum local = 8.77699e-09, global = 7.98619e-22, cumulative = 1.12449e-20
[INFO] ContinuityError: 24.5 [ms]
[INFO] CorrectBoundary: 0.667 [ms]
[INFO] PISOStep: 47082.8 [ms]
[INFO] TimeStep: 94146.3 [ms]
ExecutionTime = 809.59 s  ClockTime = 859 s

Time = 0.00166

Courant Number mean: 0.0380534 max: 0.483987
[INFO] MatrixAssemblyU: 204.643 [ms]
DILUPBiCGStab:  Solving for Ux, Initial residual = 0.0196914, Final residual = 0.0019289, No Iterations 5
DILUPBiCGStab:  Solving for Uy, Initial residual = 0.0752848, Final residual = 0.00634919, No Iterations 5
DILUPBiCGStab:  Solving for Uz, Initial residual = 0.501416, Final residual = 0.0202453, No Iterations 5
[INFO] MomentumPredictor: 1350.31 [ms]
[INFO] MatrixAssemblyPI: 212.287 [ms]
[INFO] AdjustPhi: 13.641 [ms]
[INFO] ConstrainPressure: 0.011 [ms]
[INFO] MatrixAssemblyPII: 59.822 [ms]
[OGL LOG][Proc: 0]: global_index_init: 0.107 [ms]
[OGL LOG][Proc: 0]p_local_coeffs: call_update: 0 [ms]
[OGL LOG][Proc: 0]p_non_local_coeffs: call_update: 0 [ms]
[OGL LOG][Proc: 0]p: update_local_matrix_data: 35.273 [ms]
[OGL LOG][Proc: 0]p: update_non_local_matrix_data: 0.114 [ms]
[OGL LOG][Proc: 0]p_matrix: call_update: 64.389 [ms]
[OGL LOG][Proc: 0]p_rhs: call_update: 10.12 [ms]
[OGL LOG][Proc: 0]p: init_precond: 0.166 [ms]
[OGL LOG][StoppingCriterion.H:372] Creating stopping criterion with minIter 1386 frequency 30
[OGL LOG][Proc: 0]p: generate_solver: 0.002 [ms]
[OGL LOG][Proc: 0]p: solve: 46403.5 [ms]
[OGL LOG][Proc: 0]p: copy_x_back: 0.495 [ms]
[OGL LOG][lduLduBase.H:339] 
Statistics:
	Time per iteration: 20079 [mu s]
	Time per residual norm calculation: 7846.000000 [mu s]
	Time per iteration and DOF: 0.743667 [ns]
	Retrieve results bandwidth 3.454000 [GByte/s]
[OGL LOG][Proc: 0]p: solve_multi_gpu: 46553.5 [ms]
nonecudaGKOCG:  Solving for p, Initial residual = 0.891009, Final residual = 7.83089e-05, No Iterations 2311
[INFO] SolveP: 46603.3 [ms]
time step continuity errors : sum local = 9.50215e-09, global = 3.57449e-22, cumulative = 1.16024e-20
[INFO] ContinuityError: 44.73 [ms]
[INFO] CorrectBoundary: 1.341 [ms]
[INFO] PISOStep: 46990.4 [ms]
[INFO] MatrixAssemblyPI: 204.104 [ms]
[INFO] AdjustPhi: 14.355 [ms]
[INFO] ConstrainPressure: 0.014 [ms]
[INFO] MatrixAssemblyPII: 59.901 [ms]
[OGL LOG][Proc: 0]: global_index_init: 0.345 [ms]
[OGL LOG][Proc: 0]p_local_coeffs: call_update: 0 [ms]
[OGL LOG][Proc: 0]p_non_local_coeffs: call_update: 0 [ms]
[OGL LOG][Proc: 0]p: update_local_matrix_data: 35.45 [ms]
[OGL LOG][Proc: 0]p: update_non_local_matrix_data: 0.144 [ms]
[OGL LOG][Proc: 0]p_matrix: call_update: 63.498 [ms]
[OGL LOG][Proc: 0]p_rhs: call_update: 6.287 [ms]
[OGL LOG][Proc: 0]p: init_precond: 0.266 [ms]
[OGL LOG][StoppingCriterion.H:372] Creating stopping criterion with minIter 1386 frequency 21
[OGL LOG][Proc: 0]p: generate_solver: 0.002 [ms]
[OGL LOG][Proc: 0]p: solve: 46514.3 [ms]
[OGL LOG][Proc: 0]p: copy_x_back: 0.545 [ms]
[OGL LOG][lduLduBase.H:339] 
Statistics:
	Time per iteration: 20127 [mu s]
	Time per residual norm calculation: 7849.000000 [mu s]
	Time per iteration and DOF: 0.745444 [ns]
	Retrieve results bandwidth 3.137000 [GByte/s]
[OGL LOG][Proc: 0]p: solve_multi_gpu: 46660.3 [ms]
nonecudaGKOCG:  Solving for p, Initial residual = 0.820767, Final residual = 7.31857e-05, No Iterations 2311
[INFO] SolveP: 46712.3 [ms]
time step continuity errors : sum local = 8.9864e-09, global = -1.77051e-22, cumulative = 1.14253e-20
[INFO] ContinuityError: 38.402 [ms]
[INFO] CorrectBoundary: 0.858 [ms]
[INFO] PISOStep: 47087.1 [ms]
[INFO] TimeStep: 95652.3 [ms]
ExecutionTime = 904.61 s  ClockTime = 954 s

Time = 0.001826

Courant Number mean: 0.0396521 max: 0.526293
[INFO] MatrixAssemblyU: 200.625 [ms]
DILUPBiCGStab:  Solving for Ux, Initial residual = 0.0185239, Final residual = 0.00179413, No Iterations 5
DILUPBiCGStab:  Solving for Uy, Initial residual = 0.0737417, Final residual = 0.00611583, No Iterations 5
DILUPBiCGStab:  Solving for Uz, Initial residual = 0.503743, Final residual = 0.0194539, No Iterations 5
[INFO] MomentumPredictor: 1344.22 [ms]
[INFO] MatrixAssemblyPI: 212.321 [ms]
[INFO] AdjustPhi: 12.389 [ms]
[INFO] ConstrainPressure: 0.004 [ms]
[INFO] MatrixAssemblyPII: 60.186 [ms]
[OGL LOG][Proc: 0]: global_index_init: 0.205 [ms]
[OGL LOG][Proc: 0]p_local_coeffs: call_update: 0 [ms]
[OGL LOG][Proc: 0]p_non_local_coeffs: call_update: 0 [ms]
[OGL LOG][Proc: 0]p: update_local_matrix_data: 35.49 [ms]
[OGL LOG][Proc: 0]p: update_non_local_matrix_data: 0.096 [ms]
[OGL LOG][Proc: 0]p_matrix: call_update: 68.599 [ms]
[OGL LOG][Proc: 0]p_rhs: call_update: 4.859 [ms]
[OGL LOG][Proc: 0]p: init_precond: 0.174 [ms]
[OGL LOG][StoppingCriterion.H:372] Creating stopping criterion with minIter 1386 frequency 21
[OGL LOG][Proc: 0]p: generate_solver: 0.002 [ms]
[OGL LOG][Proc: 0]p: solve: 46515.4 [ms]
[OGL LOG][Proc: 0]p: copy_x_back: 0.492 [ms]
[OGL LOG][lduLduBase.H:339] 
Statistics:
	Time per iteration: 20127 [mu s]
	Time per residual norm calculation: 7860.000000 [mu s]
	Time per iteration and DOF: 0.745444 [ns]
	Retrieve results bandwidth 3.475000 [GByte/s]
[OGL LOG][Proc: 0]p: solve_multi_gpu: 46662.8 [ms]
nonecudaGKOCG:  Solving for p, Initial residual = 0.908659, Final residual = 8.20888e-05, No Iterations 2311
[INFO] SolveP: 46715 [ms]
time step continuity errors : sum local = 9.89357e-09, global = 4.57506e-22, cumulative = 1.18828e-20
[INFO] ContinuityError: 44.841 [ms]
[INFO] CorrectBoundary: 1.044 [ms]
[INFO] PISOStep: 47099.2 [ms]
[INFO] MatrixAssemblyPI: 205.548 [ms]
[INFO] AdjustPhi: 13.076 [ms]
[INFO] ConstrainPressure: 0.015 [ms]
[INFO] MatrixAssemblyPII: 60.247 [ms]
[OGL LOG][Proc: 0]: global_index_init: 0.552 [ms]
[OGL LOG][Proc: 0]p_local_coeffs: call_update: 0 [ms]
[OGL LOG][Proc: 0]p_non_local_coeffs: call_update: 0 [ms]
[OGL LOG][Proc: 0]p: update_local_matrix_data: 35.399 [ms]
[OGL LOG][Proc: 0]p: update_non_local_matrix_data: 0.127 [ms]
[OGL LOG][Proc: 0]p_matrix: call_update: 67.688 [ms]
[OGL LOG][Proc: 0]p_rhs: call_update: 5.005 [ms]
[OGL LOG][Proc: 0]p: init_precond: 0.162 [ms]
[OGL LOG][StoppingCriterion.H:372] Creating stopping criterion with minIter 1386 frequency 21
[OGL LOG][Proc: 0]p: generate_solver: 0.002 [ms]
[OGL LOG][Proc: 0]p: solve: 46471.7 [ms]
[OGL LOG][Proc: 0]p: copy_x_back: 0.579 [ms]
[OGL LOG][lduLduBase.H:339] 
Statistics:
	Time per iteration: 20108 [mu s]
	Time per residual norm calculation: 7853.000000 [mu s]
	Time per iteration and DOF: 0.744741 [ns]
	Retrieve results bandwidth 2.953000 [GByte/s]
[OGL LOG][Proc: 0]p: solve_multi_gpu: 46616.9 [ms]
nonecudaGKOCG:  Solving for p, Initial residual = 0.852017, Final residual = 7.83891e-05, No Iterations 2311
[INFO] SolveP: 46670.6 [ms]
time step continuity errors : sum local = 9.37202e-09, global = 1.6453e-22, cumulative = 1.20474e-20
[INFO] ContinuityError: 47.317 [ms]
[INFO] CorrectBoundary: 1.218 [ms]
[INFO] PISOStep: 47050.9 [ms]
[INFO] TimeStep: 95714.7 [ms]
ExecutionTime = 999.68 s  ClockTime = 1050 s

Time = 0.001992

Courant Number mean: 0.0410662 max: 0.487252
[INFO] MatrixAssemblyU: 202.121 [ms]
DILUPBiCGStab:  Solving for Ux, Initial residual = 0.0179207, Final residual = 0.00173867, No Iterations 5
DILUPBiCGStab:  Solving for Uy, Initial residual = 0.0671451, Final residual = 0.00537511, No Iterations 5
DILUPBiCGStab:  Solving for Uz, Initial residual = 0.487962, Final residual = 0.019021, No Iterations 5
[INFO] MomentumPredictor: 1346.64 [ms]
[INFO] MatrixAssemblyPI: 211.341 [ms]
[INFO] AdjustPhi: 13.261 [ms]
[INFO] ConstrainPressure: 0.002 [ms]
[INFO] MatrixAssemblyPII: 60.313 [ms]
[OGL LOG][Proc: 0]: global_index_init: 0.047 [ms]
[OGL LOG][Proc: 0]p_local_coeffs: call_update: 0 [ms]
[OGL LOG][Proc: 0]p_non_local_coeffs: call_update: 0 [ms]
[OGL LOG][Proc: 0]p: update_local_matrix_data: 35.374 [ms]
[OGL LOG][Proc: 0]p: update_non_local_matrix_data: 0.188 [ms]
[OGL LOG][Proc: 0]p_matrix: call_update: 66.074 [ms]
[OGL LOG][Proc: 0]p_rhs: call_update: 2.012 [ms]
[OGL LOG][Proc: 0]p: init_precond: 0.162 [ms]
[OGL LOG][StoppingCriterion.H:372] Creating stopping criterion with minIter 1386 frequency 21
[OGL LOG][Proc: 0]p: generate_solver: 0.008 [ms]
[OGL LOG][Proc: 0]p: solve: 46608.2 [ms]
[OGL LOG][Proc: 0]p: copy_x_back: 0.512 [ms]
[OGL LOG][lduLduBase.H:339] 
Statistics:
	Time per iteration: 20167 [mu s]
	Time per residual norm calculation: 7869.000000 [mu s]
	Time per iteration and DOF: 0.746926 [ns]
	Retrieve results bandwidth 3.339000 [GByte/s]
[OGL LOG][Proc: 0]p: solve_multi_gpu: 46750.1 [ms]
nonecudaGKOCG:  Solving for p, Initial residual = 0.892403, Final residual = 7.47605e-05, No Iterations 2311
[INFO] SolveP: 46805.7 [ms]
time step continuity errors : sum local = 9.36072e-09, global = 5.68703e-22, cumulative = 1.26161e-20
[INFO] ContinuityError: 20.53 [ms]
[INFO] CorrectBoundary: 0.662 [ms]
[INFO] PISOStep: 47185.2 [ms]
[INFO] MatrixAssemblyPI: 203.979 [ms]
[INFO] AdjustPhi: 14.741 [ms]
[INFO] ConstrainPressure: 0.007 [ms]
[INFO] MatrixAssemblyPII: 60.332 [ms]
[OGL LOG][Proc: 0]: global_index_init: 0.135 [ms]
[OGL LOG][Proc: 0]p_local_coeffs: call_update: 0.001 [ms]
[OGL LOG][Proc: 0]p_non_local_coeffs: call_update: 0 [ms]
[OGL LOG][Proc: 0]p: update_local_matrix_data: 35.211 [ms]
[OGL LOG][Proc: 0]p: update_non_local_matrix_data: 0.151 [ms]
[OGL LOG][Proc: 0]p_matrix: call_update: 68.714 [ms]
[OGL LOG][Proc: 0]p_rhs: call_update: 3.08 [ms]
[OGL LOG][Proc: 0]p: init_precond: 0.169 [ms]
[OGL LOG][StoppingCriterion.H:372] Creating stopping criterion with minIter 1386 frequency 21
[OGL LOG][Proc: 0]p: generate_solver: 0.002 [ms]
[OGL LOG][Proc: 0]p: solve: 46579.6 [ms]
[OGL LOG][Proc: 0]p: copy_x_back: 0.532 [ms]
[OGL LOG][lduLduBase.H:339] 
Statistics:
	Time per iteration: 20155 [mu s]
	Time per residual norm calculation: 7849.000000 [mu s]
	Time per iteration and DOF: 0.746481 [ns]
	Retrieve results bandwidth 3.214000 [GByte/s]
[OGL LOG][Proc: 0]p: solve_multi_gpu: 46725.2 [ms]
nonecudaGKOCG:  Solving for p, Initial residual = 0.820501, Final residual = 7.05324e-05, No Iterations 2311
[INFO] SolveP: 46776.3 [ms]
time step continuity errors : sum local = 8.92501e-09, global = 3.76981e-22, cumulative = 1.2993e-20
[INFO] ContinuityError: 47.388 [ms]
[INFO] CorrectBoundary: 0.637 [ms]
[INFO] PISOStep: 47156.9 [ms]
[INFO] TimeStep: 95910.4 [ms]
ExecutionTime = 1094.95 s  ClockTime = 1146 s

Time = 0.002158

Courant Number mean: 0.0424453 max: 0.534064
[INFO] MatrixAssemblyU: 201.582 [ms]
DILUPBiCGStab:  Solving for Ux, Initial residual = 0.0169876, Final residual = 0.00160838, No Iterations 5
DILUPBiCGStab:  Solving for Uy, Initial residual = 0.067197, Final residual = 0.00527589, No Iterations 5
DILUPBiCGStab:  Solving for Uz, Initial residual = 0.493542, Final residual = 0.0182705, No Iterations 5
[INFO] MomentumPredictor: 1344.82 [ms]
[INFO] MatrixAssemblyPI: 210.446 [ms]
[INFO] AdjustPhi: 14.494 [ms]
[INFO] ConstrainPressure: 0.003 [ms]
[INFO] MatrixAssemblyPII: 60.335 [ms]
[OGL LOG][Proc: 0]: global_index_init: 0.137 [ms]
[OGL LOG][Proc: 0]p_local_coeffs: call_update: 0 [ms]
[OGL LOG][Proc: 0]p_non_local_coeffs: call_update: 0 [ms]
[OGL LOG][Proc: 0]p: update_local_matrix_data: 35.524 [ms]
[OGL LOG][Proc: 0]p: update_non_local_matrix_data: 0.09 [ms]
[OGL LOG][Proc: 0]p_matrix: call_update: 66.483 [ms]
[OGL LOG][Proc: 0]p_rhs: call_update: 4.652 [ms]
[OGL LOG][Proc: 0]p: init_precond: 0.16 [ms]
[OGL LOG][StoppingCriterion.H:372] Creating stopping criterion with minIter 1386 frequency 21
[OGL LOG][Proc: 0]p: generate_solver: 0.002 [ms]
[OGL LOG][Proc: 0]p: solve: 46566.7 [ms]
[OGL LOG][Proc: 0]p: copy_x_back: 0.51 [ms]
[OGL LOG][lduLduBase.H:339] 
Statistics:
	Time per iteration: 20150 [mu s]
	Time per residual norm calculation: 7855.000000 [mu s]
	Time per iteration and DOF: 0.746296 [ns]
	Retrieve results bandwidth 3.352000 [GByte/s]
[OGL LOG][Proc: 0]p: solve_multi_gpu: 46712.4 [ms]
nonecudaGKOCG:  Solving for p, Initial residual = 0.909182, Final residual = 7.69516e-05, No Iterations 2311
[INFO] SolveP: 46761.8 [ms]
time step continuity errors : sum local = 9.62262e-09, global = 1.23885e-21, cumulative = 1.42319e-20
[INFO] ContinuityError: 45.659 [ms]
[INFO] CorrectBoundary: 0.847 [ms]
[INFO] PISOStep: 47148.1 [ms]
[INFO] MatrixAssemblyPI: 204.861 [ms]
[INFO] AdjustPhi: 13.476 [ms]
[INFO] ConstrainPressure: 0.005 [ms]
[INFO] MatrixAssemblyPII: 60.297 [ms]
[OGL LOG][Proc: 0]: global_index_init: 0.06 [ms]
[OGL LOG][Proc: 0]p_local_coeffs: call_update: 0 [ms]
[OGL LOG][Proc: 0]p_non_local_coeffs: call_update: 0 [ms]
[OGL LOG][Proc: 0]p: update_local_matrix_data: 35.19 [ms]
[OGL LOG][Proc: 0]p: update_non_local_matrix_data: 0.148 [ms]
[OGL LOG][Proc: 0]p_matrix: call_update: 68.889 [ms]
[OGL LOG][Proc: 0]p_rhs: call_update: 3.924 [ms]
[OGL LOG][Proc: 0]p: init_precond: 0.166 [ms]
[OGL LOG][StoppingCriterion.H:372] Creating stopping criterion with minIter 1386 frequency 21
[OGL LOG][Proc: 0]p: generate_solver: 0.002 [ms]
[OGL LOG][Proc: 0]p: solve: 46545.9 [ms]
[OGL LOG][Proc: 0]p: copy_x_back: 0.611 [ms]
[OGL LOG][lduLduBase.H:339] 
Statistics:
	Time per iteration: 20141 [mu s]
	Time per residual norm calculation: 7873.000000 [mu s]
	Time per iteration and DOF: 0.745963 [ns]
	Retrieve results bandwidth 2.798000 [GByte/s]
[OGL LOG][Proc: 0]p: solve_multi_gpu: 46692.8 [ms]
nonecudaGKOCG:  Solving for p, Initial residual = 0.849082, Final residual = 7.3144e-05, No Iterations 2311
[INFO] SolveP: 46743.1 [ms]
time step continuity errors : sum local = 9.08579e-09, global = 2.5578e-22, cumulative = 1.44877e-20
[INFO] ContinuityError: 44.866 [ms]
[INFO] CorrectBoundary: 0.45 [ms]
[INFO] PISOStep: 47121.5 [ms]
[INFO] TimeStep: 95835.5 [ms]
ExecutionTime = 1190.14 s  ClockTime = 1242 s

Time = 0.002324

Courant Number mean: 0.0436736 max: 0.490293
[INFO] MatrixAssemblyU: 200.473 [ms]
DILUPBiCGStab:  Solving for Ux, Initial residual = 0.0167308, Final residual = 0.0015871, No Iterations 5
DILUPBiCGStab:  Solving for Uy, Initial residual = 0.0619378, Final residual = 0.00468765, No Iterations 5
DILUPBiCGStab:  Solving for Uz, Initial residual = 0.48346, Final residual = 0.0179676, No Iterations 5
[INFO] MomentumPredictor: 1345.94 [ms]
[INFO] MatrixAssemblyPI: 211.278 [ms]
[INFO] AdjustPhi: 13.515 [ms]
[INFO] ConstrainPressure: 0.003 [ms]
[INFO] MatrixAssemblyPII: 60.218 [ms]
[OGL LOG][Proc: 0]: global_index_init: 0.263 [ms]
[OGL LOG][Proc: 0]p_local_coeffs: call_update: 0 [ms]
[OGL LOG][Proc: 0]p_non_local_coeffs: call_update: 0 [ms]
[OGL LOG][Proc: 0]p: update_local_matrix_data: 35.514 [ms]
[OGL LOG][Proc: 0]p: update_non_local_matrix_data: 0.106 [ms]
[OGL LOG][Proc: 0]p_matrix: call_update: 69.801 [ms]
[OGL LOG][Proc: 0]p_rhs: call_update: 3.254 [ms]
[OGL LOG][Proc: 0]p: init_precond: 0.17 [ms]
[OGL LOG][StoppingCriterion.H:372] Creating stopping criterion with minIter 1386 frequency 21
[OGL LOG][Proc: 0]p: generate_solver: 0.002 [ms]
[OGL LOG][Proc: 0]p: solve: 44917.2 [ms]
[OGL LOG][Proc: 0]p: copy_x_back: 0.52 [ms]
[OGL LOG][lduLduBase.H:339] 
Statistics:
	Time per iteration: 20169 [mu s]
	Time per residual norm calculation: 7856.000000 [mu s]
	Time per iteration and DOF: 0.747000 [ns]
	Retrieve results bandwidth 3.288000 [GByte/s]
[OGL LOG][Proc: 0]p: solve_multi_gpu: 45065.2 [ms]
nonecudaGKOCG:  Solving for p, Initial residual = 0.894456, Final residual = 9.47233e-05, No Iterations 2227
[INFO] SolveP: 45114.3 [ms]
time step continuity errors : sum local = 1.23161e-08, global = 5.45931e-22, cumulative = 1.50336e-20
[INFO] ContinuityError: 43.588 [ms]
[INFO] CorrectBoundary: 0.968 [ms]
[INFO] PISOStep: 45501.4 [ms]
[INFO] MatrixAssemblyPI: 204.694 [ms]
[INFO] AdjustPhi: 14.427 [ms]
[INFO] ConstrainPressure: 0.008 [ms]
[INFO] MatrixAssemblyPII: 60.102 [ms]
[OGL LOG][Proc: 0]: global_index_init: 0.311 [ms]
[OGL LOG][Proc: 0]p_local_coeffs: call_update: 0 [ms]
[OGL LOG][Proc: 0]p_non_local_coeffs: call_update: 0 [ms]
[OGL LOG][Proc: 0]p: update_local_matrix_data: 35.154 [ms]
[OGL LOG][Proc: 0]p: update_non_local_matrix_data: 0.113 [ms]
[OGL LOG][Proc: 0]p_matrix: call_update: 52.819 [ms]
[OGL LOG][Proc: 0]p_rhs: call_update: 19.257 [ms]
[OGL LOG][Proc: 0]p: init_precond: 0.173 [ms]
[OGL LOG][StoppingCriterion.H:372] Creating stopping criterion with minIter 1336 frequency 21
[OGL LOG][Proc: 0]p: generate_solver: 0.002 [ms]
[OGL LOG][Proc: 0]p: solve: 46101.7 [ms]
[OGL LOG][Proc: 0]p: copy_x_back: 0.573 [ms]
[OGL LOG][lduLduBase.H:339] 
Statistics:
	Time per iteration: 20131 [mu s]
	Time per residual norm calculation: 7852.000000 [mu s]
	Time per iteration and DOF: 0.745593 [ns]
	Retrieve results bandwidth 2.984000 [GByte/s]
[OGL LOG][Proc: 0]p: solve_multi_gpu: 46246.9 [ms]
nonecudaGKOCG:  Solving for p, Initial residual = 0.821407, Final residual = 9.46407e-05, No Iterations 2290
[INFO] SolveP: 46299.2 [ms]
time step continuity errors : sum local = 1.24191e-08, global = 1.0506e-21, cumulative = 1.60842e-20
[INFO] ContinuityError: 37.394 [ms]
[INFO] CorrectBoundary: 0.601 [ms]
[INFO] PISOStep: 46675.4 [ms]
[INFO] TimeStep: 93743 [ms]
ExecutionTime = 1283.26 s  ClockTime = 1335 s

Time = 0.00249

Courant Number mean: 0.0448926 max: 0.542895
[INFO] MatrixAssemblyU: 200.063 [ms]
DILUPBiCGStab:  Solving for Ux, Initial residual = 0.0159853, Final residual = 0.00146205, No Iterations 5
DILUPBiCGStab:  Solving for Uy, Initial residual = 0.0627667, Final residual = 0.00466787, No Iterations 5
DILUPBiCGStab:  Solving for Uz, Initial residual = 0.492823, Final residual = 0.0177034, No Iterations 5
[INFO] MomentumPredictor: 1345.18 [ms]
[INFO] MatrixAssemblyPI: 212.414 [ms]
[INFO] AdjustPhi: 12.351 [ms]
[INFO] ConstrainPressure: 0.002 [ms]
[INFO] MatrixAssemblyPII: 60.172 [ms]
[OGL LOG][Proc: 0]: global_index_init: 0.202 [ms]
[OGL LOG][Proc: 0]p_local_coeffs: call_update: 0 [ms]
[OGL LOG][Proc: 0]p_non_local_coeffs: call_update: 0 [ms]
[OGL LOG][Proc: 0]p: update_local_matrix_data: 34.428 [ms]
[OGL LOG][Proc: 0]p: update_non_local_matrix_data: 0.347 [ms]
[OGL LOG][Proc: 0]p_matrix: call_update: 48.419 [ms]
[OGL LOG][Proc: 0]p_rhs: call_update: 23.975 [ms]
[OGL LOG][Proc: 0]p: init_precond: 0.107 [ms]
[OGL LOG][StoppingCriterion.H:372] Creating stopping criterion with minIter 1374 frequency 21
[OGL LOG][Proc: 0]p: generate_solver: 0.003 [ms]
[OGL LOG][Proc: 0]p: solve: 46532.3 [ms]
[OGL LOG][Proc: 0]p: copy_x_back: 0.492 [ms]
[OGL LOG][lduLduBase.H:339] 
Statistics:
	Time per iteration: 20135 [mu s]
	Time per residual norm calculation: 7854.000000 [mu s]
	Time per iteration and DOF: 0.745741 [ns]
	Retrieve results bandwidth 3.475000 [GByte/s]
[OGL LOG][Proc: 0]p: solve_multi_gpu: 46678.7 [ms]
nonecudaGKOCG:  Solving for p, Initial residual = 0.909824, Final residual = 6.72274e-05, No Iterations 2311
[INFO] SolveP: 46732.4 [ms]
time step continuity errors : sum local = 8.75794e-09, global = 9.73379e-22, cumulative = 1.70576e-20
[INFO] ContinuityError: 28.334 [ms]
[INFO] CorrectBoundary: 0.842 [ms]
[INFO] PISOStep: 47113.8 [ms]
[INFO] MatrixAssemblyPI: 204.417 [ms]
[INFO] AdjustPhi: 13.98 [ms]
[INFO] ConstrainPressure: 0.011 [ms]
[INFO] MatrixAssemblyPII: 60.181 [ms]
[OGL LOG][Proc: 0]: global_index_init: 0.167 [ms]
[OGL LOG][Proc: 0]p_local_coeffs: call_update: 0.001 [ms]
[OGL LOG][Proc: 0]p_non_local_coeffs: call_update: 0 [ms]
[OGL LOG][Proc: 0]p: update_local_matrix_data: 34.957 [ms]
[OGL LOG][Proc: 0]p: update_non_local_matrix_data: 0.196 [ms]
[OGL LOG][Proc: 0]p_matrix: call_update: 52.162 [ms]
[OGL LOG][Proc: 0]p_rhs: call_update: 20.505 [ms]
[OGL LOG][Proc: 0]p: init_precond: 0.154 [ms]
[OGL LOG][StoppingCriterion.H:372] Creating stopping criterion with minIter 1386 frequency 21
[OGL LOG][Proc: 0]p: generate_solver: 0.002 [ms]
[OGL LOG][Proc: 0]p: solve: 46113.7 [ms]
[OGL LOG][Proc: 0]p: copy_x_back: 0.539 [ms]
[OGL LOG][lduLduBase.H:339] 
Statistics:
	Time per iteration: 20136 [mu s]
	Time per residual norm calculation: 7855.000000 [mu s]
	Time per iteration and DOF: 0.745778 [ns]
	Retrieve results bandwidth 3.172000 [GByte/s]
[OGL LOG][Proc: 0]p: solve_multi_gpu: 46262.9 [ms]
nonecudaGKOCG:  Solving for p, Initial residual = 0.846768, Final residual = 9.95101e-05, No Iterations 2290
[INFO] SolveP: 46311.1 [ms]
time step continuity errors : sum local = 1.28941e-08, global = -6.21302e-22, cumulative = 1.64363e-20
[INFO] ContinuityError: 48.254 [ms]
[INFO] CorrectBoundary: 0.469 [ms]
[INFO] PISOStep: 46692.7 [ms]
[INFO] TimeStep: 95371.5 [ms]
ExecutionTime = 1377.99 s  ClockTime = 1431 s

Time = 0.002656

Courant Number mean: 0.0459787 max: 0.493259
[INFO] MatrixAssemblyU: 202.072 [ms]
DILUPBiCGStab:  Solving for Ux, Initial residual = 0.0159338, Final residual = 0.00146308, No Iterations 5
DILUPBiCGStab:  Solving for Uy, Initial residual = 0.0586214, Final residual = 0.00418496, No Iterations 5
DILUPBiCGStab:  Solving for Uz, Initial residual = 0.485912, Final residual = 0.0173751, No Iterations 5
[INFO] MomentumPredictor: 1343.03 [ms]
[INFO] MatrixAssemblyPI: 211.649 [ms]
[INFO] AdjustPhi: 12.902 [ms]
[INFO] ConstrainPressure: 0.003 [ms]
[INFO] MatrixAssemblyPII: 60.268 [ms]
[OGL LOG][Proc: 0]: global_index_init: 0.234 [ms]
[OGL LOG][Proc: 0]p_local_coeffs: call_update: 0.001 [ms]
[OGL LOG][Proc: 0]p_non_local_coeffs: call_update: 0 [ms]
[OGL LOG][Proc: 0]p: update_local_matrix_data: 35.098 [ms]
[OGL LOG][Proc: 0]p: update_non_local_matrix_data: 0.125 [ms]
[OGL LOG][Proc: 0]p_matrix: call_update: 68.372 [ms]
[OGL LOG][Proc: 0]p_rhs: call_update: 5.321 [ms]
[OGL LOG][Proc: 0]p: init_precond: 0.156 [ms]
[OGL LOG][StoppingCriterion.H:372] Creating stopping criterion with minIter 1374 frequency 21
[OGL LOG][Proc: 0]p: generate_solver: 0.003 [ms]
[OGL LOG][Proc: 0]p: solve: 46533.7 [ms]
[OGL LOG][Proc: 0]p: copy_x_back: 0.588 [ms]
[OGL LOG][lduLduBase.H:339] 
Statistics:
	Time per iteration: 20135 [mu s]
	Time per residual norm calculation: 7872.000000 [mu s]
	Time per iteration and DOF: 0.745741 [ns]
	Retrieve results bandwidth 2.908000 [GByte/s]
[OGL LOG][Proc: 0]p: solve_multi_gpu: 46682 [ms]
nonecudaGKOCG:  Solving for p, Initial residual = 0.896894, Final residual = 6.87404e-05, No Iterations 2311
[INFO] SolveP: 46732.3 [ms]
time step continuity errors : sum local = 9.30134e-09, global = 1.66209e-21, cumulative = 1.80984e-20
[INFO] ContinuityError: 44.074 [ms]
[INFO] CorrectBoundary: 0.485 [ms]
[INFO] PISOStep: 47116.5 [ms]
[INFO] MatrixAssemblyPI: 204.93 [ms]
[INFO] AdjustPhi: 13.992 [ms]
[INFO] ConstrainPressure: 0.016 [ms]
[INFO] MatrixAssemblyPII: 60.085 [ms]
[OGL LOG][Proc: 0]: global_index_init: 0.197 [ms]
[OGL LOG][Proc: 0]p_local_coeffs: call_update: 0 [ms]
[OGL LOG][Proc: 0]p_non_local_coeffs: call_update: 0 [ms]
[OGL LOG][Proc: 0]p: update_local_matrix_data: 35.451 [ms]
[OGL LOG][Proc: 0]p: update_non_local_matrix_data: 0.09 [ms]
[OGL LOG][Proc: 0]p_matrix: call_update: 65.995 [ms]
[OGL LOG][Proc: 0]p_rhs: call_update: 4.954 [ms]
[OGL LOG][Proc: 0]p: init_precond: 0.162 [ms]
[OGL LOG][StoppingCriterion.H:372] Creating stopping criterion with minIter 1386 frequency 21
[OGL LOG][Proc: 0]p: generate_solver: 0.002 [ms]
[OGL LOG][Proc: 0]p: solve: 46509.3 [ms]
[OGL LOG][Proc: 0]p: copy_x_back: 0.538 [ms]
[OGL LOG][lduLduBase.H:339] 
Statistics:
	Time per iteration: 20125 [mu s]
	Time per residual norm calculation: 7855.000000 [mu s]
	Time per iteration and DOF: 0.745370 [ns]
	Retrieve results bandwidth 3.178000 [GByte/s]
[OGL LOG][Proc: 0]p: solve_multi_gpu: 46653.8 [ms]
nonecudaGKOCG:  Solving for p, Initial residual = 0.822894, Final residual = 6.39844e-05, No Iterations 2311
[INFO] SolveP: 46708.4 [ms]
time step continuity errors : sum local = 8.72729e-09, global = 4.29885e-22, cumulative = 1.85283e-20
[INFO] ContinuityError: 27.815 [ms]
[INFO] CorrectBoundary: 1.255 [ms]
[INFO] PISOStep: 47085.2 [ms]
[INFO] TimeStep: 95766.4 [ms]
ExecutionTime = 1473.13 s  ClockTime = 1527 s

Time = 0.002822

Courant Number mean: 0.0470752 max: 0.553112
[INFO] MatrixAssemblyU: 200.34 [ms]
DILUPBiCGStab:  Solving for Ux, Initial residual = 0.0153536, Final residual = 0.00134695, No Iterations 5
DILUPBiCGStab:  Solving for Uy, Initial residual = 0.0598702, Final residual = 0.0042146, No Iterations 5
DILUPBiCGStab:  Solving for Uz, Initial residual = 0.496283, Final residual = 0.0172646, No Iterations 5
[INFO] MomentumPredictor: 1345.81 [ms]
[INFO] MatrixAssemblyPI: 211.173 [ms]
[INFO] AdjustPhi: 13.139 [ms]
[INFO] ConstrainPressure: 0.003 [ms]
[INFO] MatrixAssemblyPII: 60.195 [ms]
[OGL LOG][Proc: 0]: global_index_init: 0.186 [ms]
[OGL LOG][Proc: 0]p_local_coeffs: call_update: 0 [ms]
[OGL LOG][Proc: 0]p_non_local_coeffs: call_update: 0 [ms]
[OGL LOG][Proc: 0]p: update_local_matrix_data: 35.252 [ms]
[OGL LOG][Proc: 0]p: update_non_local_matrix_data: 0.111 [ms]
[OGL LOG][Proc: 0]p_matrix: call_update: 71.444 [ms]
[OGL LOG][Proc: 0]p_rhs: call_update: 0.803 [ms]
[OGL LOG][Proc: 0]p: init_precond: 0.156 [ms]
[OGL LOG][StoppingCriterion.H:372] Creating stopping criterion with minIter 1386 frequency 21
[OGL LOG][Proc: 0]p: generate_solver: 0.002 [ms]
[OGL LOG][Proc: 0]p: solve: 46565.5 [ms]
[OGL LOG][Proc: 0]p: copy_x_back: 0.55 [ms]
[OGL LOG][lduLduBase.H:339] 
Statistics:
	Time per iteration: 20149 [mu s]
	Time per residual norm calculation: 7874.000000 [mu s]
	Time per iteration and DOF: 0.746259 [ns]
	Retrieve results bandwidth 3.109000 [GByte/s]
[OGL LOG][Proc: 0]p: solve_multi_gpu: 46715.2 [ms]
nonecudaGKOCG:  Solving for p, Initial residual = 0.910771, Final residual = 7.11426e-05, No Iterations 2311
[INFO] SolveP: 46765.7 [ms]
time step continuity errors : sum local = 9.68455e-09, global = 6.95253e-22, cumulative = 1.92235e-20
[INFO] ContinuityError: 43.008 [ms]
[INFO] CorrectBoundary: 0.682 [ms]
[INFO] PISOStep: 47150.6 [ms]
[INFO] MatrixAssemblyPI: 205.444 [ms]
[INFO] AdjustPhi: 12.628 [ms]
[INFO] ConstrainPressure: 0.007 [ms]
[INFO] MatrixAssemblyPII: 60.152 [ms]
[OGL LOG][Proc: 0]: global_index_init: 0.104 [ms]
[OGL LOG][Proc: 0]p_local_coeffs: call_update: 0.001 [ms]
[OGL LOG][Proc: 0]p_non_local_coeffs: call_update: 0 [ms]
[OGL LOG][Proc: 0]p: update_local_matrix_data: 35.333 [ms]
[OGL LOG][Proc: 0]p: update_non_local_matrix_data: 0.09 [ms]
[OGL LOG][Proc: 0]p_matrix: call_update: 68.935 [ms]
[OGL LOG][Proc: 0]p_rhs: call_update: 4.274 [ms]
[OGL LOG][Proc: 0]p: init_precond: 0.163 [ms]
[OGL LOG][StoppingCriterion.H:372] Creating stopping criterion with minIter 1386 frequency 21
[OGL LOG][Proc: 0]p: generate_solver: 0.002 [ms]
[OGL LOG][Proc: 0]p: solve: 46077.7 [ms]
[OGL LOG][Proc: 0]p: copy_x_back: 0.558 [ms]
[OGL LOG][lduLduBase.H:339] 
Statistics:
	Time per iteration: 20121 [mu s]
	Time per residual norm calculation: 7852.000000 [mu s]
	Time per iteration and DOF: 0.745222 [ns]
	Retrieve results bandwidth 3.064000 [GByte/s]
[OGL LOG][Proc: 0]p: solve_multi_gpu: 46221.7 [ms]
nonecudaGKOCG:  Solving for p, Initial residual = 0.844819, Final residual = 9.96602e-05, No Iterations 2290
[INFO] SolveP: 46273.6 [ms]
time step continuity errors : sum local = 1.35095e-08, global = -4.06478e-22, cumulative = 1.8817e-20
[INFO] ContinuityError: 49.136 [ms]
[INFO] CorrectBoundary: 0.633 [ms]
[INFO] PISOStep: 46657.1 [ms]
[INFO] TimeStep: 95373.4 [ms]
ExecutionTime = 1567.84 s  ClockTime = 1622 s

Time = 0.002988

Courant Number mean: 0.0480495 max: 0.496337
[INFO] MatrixAssemblyU: 202.08 [ms]
DILUPBiCGStab:  Solving for Ux, Initial residual = 0.0154414, Final residual = 0.00136093, No Iterations 5
DILUPBiCGStab:  Solving for Uy, Initial residual = 0.0566939, Final residual = 0.00381124, No Iterations 5
DILUPBiCGStab:  Solving for Uz, Initial residual = 0.491797, Final residual = 0.0170175, No Iterations 5
[INFO] MomentumPredictor: 1343.33 [ms]
[INFO] MatrixAssemblyPI: 211.96 [ms]
[INFO] AdjustPhi: 12.772 [ms]
[INFO] ConstrainPressure: 0.003 [ms]
[INFO] MatrixAssemblyPII: 60.225 [ms]
[OGL LOG][Proc: 0]: global_index_init: 0.281 [ms]
[OGL LOG][Proc: 0]p_local_coeffs: call_update: 0 [ms]
[OGL LOG][Proc: 0]p_non_local_coeffs: call_update: 0 [ms]
[OGL LOG][Proc: 0]p: update_local_matrix_data: 35.073 [ms]
[OGL LOG][Proc: 0]p: update_non_local_matrix_data: 0.224 [ms]
[OGL LOG][Proc: 0]p_matrix: call_update: 68.062 [ms]
[OGL LOG][Proc: 0]p_rhs: call_update: 4.057 [ms]
[OGL LOG][Proc: 0]p: init_precond: 0.152 [ms]
[OGL LOG][StoppingCriterion.H:372] Creating stopping criterion with minIter 1374 frequency 21
[OGL LOG][Proc: 0]p: generate_solver: 0.002 [ms]
[OGL LOG][Proc: 0]p: solve: 46539.4 [ms]
[OGL LOG][Proc: 0]p: copy_x_back: 0.505 [ms]
[OGL LOG][lduLduBase.H:339] 
Statistics:
	Time per iteration: 20138 [mu s]
	Time per residual norm calculation: 7852.000000 [mu s]
	Time per iteration and DOF: 0.745852 [ns]
	Retrieve results bandwidth 3.386000 [GByte/s]
[OGL LOG][Proc: 0]p: solve_multi_gpu: 46686.1 [ms]
nonecudaGKOCG:  Solving for p, Initial residual = 0.900769, Final residual = 7.09323e-05, No Iterations 2311
[INFO] SolveP: 46736.2 [ms]
time step continuity errors : sum local = 1.00228e-08, global = 6.97777e-22, cumulative = 1.95148e-20
[INFO] ContinuityError: 43.129 [ms]
[INFO] CorrectBoundary: 0.718 [ms]
[INFO] PISOStep: 47119.8 [ms]
[INFO] MatrixAssemblyPI: 204.486 [ms]
[INFO] AdjustPhi: 14.673 [ms]
[INFO] ConstrainPressure: 0.012 [ms]
[INFO] MatrixAssemblyPII: 60.352 [ms]
[OGL LOG][Proc: 0]: global_index_init: 0.429 [ms]
[OGL LOG][Proc: 0]p_local_coeffs: call_update: 0.001 [ms]
[OGL LOG][Proc: 0]p_non_local_coeffs: call_update: 0 [ms]
[OGL LOG][Proc: 0]p: update_local_matrix_data: 34.946 [ms]
[OGL LOG][Proc: 0]p: update_non_local_matrix_data: 0.285 [ms]
[OGL LOG][Proc: 0]p_matrix: call_update: 55.412 [ms]
[OGL LOG][Proc: 0]p_rhs: call_update: 18.927 [ms]
[OGL LOG][Proc: 0]p: init_precond: 0.164 [ms]
[OGL LOG][StoppingCriterion.H:372] Creating stopping criterion with minIter 1386 frequency 21
[OGL LOG][Proc: 0]p: generate_solver: 0.002 [ms]
[OGL LOG][Proc: 0]p: solve: 46503.7 [ms]
[OGL LOG][Proc: 0]p: copy_x_back: 0.468 [ms]
[OGL LOG][lduLduBase.H:339] 
Statistics:
	Time per iteration: 20122 [mu s]
	Time per residual norm calculation: 6625.000000 [mu s]
	Time per iteration and DOF: 0.745259 [ns]
	Retrieve results bandwidth 3.653000 [GByte/s]
[OGL LOG][Proc: 0]p: solve_multi_gpu: 46665.5 [ms]
nonecudaGKOCG:  Solving for p, Initial residual = 0.825459, Final residual = 6.60299e-05, No Iterations 2311
[INFO] SolveP: 46749.9 [ms]
time step continuity errors : sum local = 9.39532e-09, global = 1.47168e-22, cumulative = 1.9662e-20
[INFO] ContinuityError: 37.696 [ms]
[INFO] CorrectBoundary: 1.033 [ms]
[INFO] PISOStep: 47127.9 [ms]
[INFO] TimeStep: 95812.9 [ms]
ExecutionTime = 1663.01 s  ClockTime = 1718 s

Time = 0.003154

Courant Number mean: 0.0490492 max: 0.564733
[INFO] MatrixAssemblyU: 197.701 [ms]
DILUPBiCGStab:  Solving for Ux, Initial residual = 0.0150241, Final residual = 0.00125624, No Iterations 5
DILUPBiCGStab:  Solving for Uy, Initial residual = 0.0582001, Final residual = 0.0038709, No Iterations 5
DILUPBiCGStab:  Solving for Uz, Initial residual = 0.502639, Final residual = 0.0170328, No Iterations 5
[INFO] MomentumPredictor: 1347.86 [ms]
[INFO] MatrixAssemblyPI: 212.115 [ms]
[INFO] AdjustPhi: 12.555 [ms]
[INFO] ConstrainPressure: 0.003 [ms]
[INFO] MatrixAssemblyPII: 60.105 [ms]
[OGL LOG][Proc: 0]: global_index_init: 0.197 [ms]
[OGL LOG][Proc: 0]p_local_coeffs: call_update: 0.001 [ms]
[OGL LOG][Proc: 0]p_non_local_coeffs: call_update: 0 [ms]
[OGL LOG][Proc: 0]p: update_local_matrix_data: 34.873 [ms]
[OGL LOG][Proc: 0]p: update_non_local_matrix_data: 0.218 [ms]
[OGL LOG][Proc: 0]p_matrix: call_update: 48.963 [ms]
[OGL LOG][Proc: 0]p_rhs: call_update: 22.192 [ms]
[OGL LOG][Proc: 0]p: init_precond: 0.147 [ms]
[OGL LOG][StoppingCriterion.H:372] Creating stopping criterion with minIter 1386 frequency 17
[OGL LOG][Proc: 0]p: generate_solver: 0.002 [ms]
[OGL LOG][Proc: 0]p: solve: 46338.7 [ms]
[OGL LOG][Proc: 0]p: copy_x_back: 0.896 [ms]
[OGL LOG][lduLduBase.H:339] 
Statistics:
	Time per iteration: 20182 [mu s]
	Time per residual norm calculation: 7862.000000 [mu s]
	Time per iteration and DOF: 0.747481 [ns]
	Retrieve results bandwidth 1.908000 [GByte/s]
[OGL LOG][Proc: 0]p: solve_multi_gpu: 46487.8 [ms]
nonecudaGKOCG:  Solving for p, Initial residual = 0.912858, Final residual = 9.51591e-05, No Iterations 2296
[INFO] SolveP: 46537.3 [ms]
time step continuity errors : sum local = 1.35974e-08, global = -1.49928e-21, cumulative = 1.81627e-20
[INFO] ContinuityError: 40.036 [ms]
[INFO] CorrectBoundary: 1.42 [ms]
[INFO] PISOStep: 46922.7 [ms]
[INFO] MatrixAssemblyPI: 205.837 [ms]
[INFO] AdjustPhi: 13.113 [ms]
[INFO] ConstrainPressure: 0.011 [ms]
[INFO] MatrixAssemblyPII: 60.242 [ms]
[OGL LOG][Proc: 0]: global_index_init: 0.142 [ms]
[OGL LOG][Proc: 0]p_local_coeffs: call_update: 0 [ms]
[OGL LOG][Proc: 0]p_non_local_coeffs: call_update: 0 [ms]
[OGL LOG][Proc: 0]p: update_local_matrix_data: 35.38 [ms]
[OGL LOG][Proc: 0]p: update_non_local_matrix_data: 0.124 [ms]
[OGL LOG][Proc: 0]p_matrix: call_update: 70.664 [ms]
[OGL LOG][Proc: 0]p_rhs: call_update: 1.759 [ms]
[OGL LOG][Proc: 0]p: init_precond: 0.173 [ms]
[OGL LOG][StoppingCriterion.H:372] Creating stopping criterion with minIter 1377 frequency 21
[OGL LOG][Proc: 0]p: generate_solver: 0.002 [ms]
[OGL LOG][Proc: 0]p: solve: 46584.2 [ms]
[OGL LOG][Proc: 0]p: copy_x_back: 0.529 [ms]
[OGL LOG][lduLduBase.H:339] 
Statistics:
	Time per iteration: 20157 [mu s]
	Time per residual norm calculation: 7869.000000 [mu s]
	Time per iteration and DOF: 0.746556 [ns]
	Retrieve results bandwidth 3.232000 [GByte/s]
[OGL LOG][Proc: 0]p: solve_multi_gpu: 46729.9 [ms]
nonecudaGKOCG:  Solving for p, Initial residual = 0.844134, Final residual = 6.95182e-05, No Iterations 2311
[INFO] SolveP: 46785.8 [ms]
time step continuity errors : sum local = 9.90192e-09, global = 5.55779e-22, cumulative = 1.87185e-20
[INFO] ContinuityError: 30.081 [ms]
[INFO] CorrectBoundary: 1.226 [ms]
[INFO] PISOStep: 47163 [ms]
[INFO] TimeStep: 95650.7 [ms]
ExecutionTime = 1757.99 s  ClockTime = 1813 s

Time = 0.00332

Courant Number mean: 0.0499318 max: 0.499642
[INFO] MatrixAssemblyU: 201.523 [ms]
DILUPBiCGStab:  Solving for Ux, Initial residual = 0.0152148, Final residual = 0.00127643, No Iterations 5
DILUPBiCGStab:  Solving for Uy, Initial residual = 0.0557957, Final residual = 0.00353184, No Iterations 5
DILUPBiCGStab:  Solving for Uz, Initial residual = 0.499947, Final residual = 0.0168288, No Iterations 5
[INFO] MomentumPredictor: 1344.74 [ms]
[INFO] MatrixAssemblyPI: 211.134 [ms]
[INFO] AdjustPhi: 13.392 [ms]
[INFO] ConstrainPressure: 0.002 [ms]
[INFO] MatrixAssemblyPII: 60.231 [ms]
[OGL LOG][Proc: 0]: global_index_init: 0.368 [ms]
[OGL LOG][Proc: 0]p_local_coeffs: call_update: 0 [ms]
[OGL LOG][Proc: 0]p_non_local_coeffs: call_update: 0 [ms]
[OGL LOG][Proc: 0]p: update_local_matrix_data: 35.549 [ms]
[OGL LOG][Proc: 0]p: update_non_local_matrix_data: 0.095 [ms]
[OGL LOG][Proc: 0]p_matrix: call_update: 70.595 [ms]
[OGL LOG][Proc: 0]p_rhs: call_update: 2.321 [ms]
[OGL LOG][Proc: 0]p: init_precond: 0.146 [ms]
[OGL LOG][StoppingCriterion.H:372] Creating stopping criterion with minIter 1386 frequency 21
[OGL LOG][Proc: 0]p: generate_solver: 0.001 [ms]
[OGL LOG][Proc: 0]p: solve: 46624.5 [ms]
[OGL LOG][Proc: 0]p: copy_x_back: 0.637 [ms]
[OGL LOG][lduLduBase.H:339] 
Statistics:
	Time per iteration: 20175 [mu s]
	Time per residual norm calculation: 7857.000000 [mu s]
	Time per iteration and DOF: 0.747222 [ns]
	Retrieve results bandwidth 2.684000 [GByte/s]
[OGL LOG][Proc: 0]p: solve_multi_gpu: 46777.7 [ms]
nonecudaGKOCG:  Solving for p, Initial residual = 0.905698, Final residual = 7.33835e-05, No Iterations 2311
[INFO] SolveP: 46822.5 [ms]
time step continuity errors : sum local = 1.08758e-08, global = 6.12845e-22, cumulative = 1.93313e-20
[INFO] ContinuityError: 44.736 [ms]
[INFO] CorrectBoundary: 0.714 [ms]
[INFO] PISOStep: 47206.8 [ms]
[INFO] MatrixAssemblyPI: 204.058 [ms]
[INFO] AdjustPhi: 14.945 [ms]
[INFO] ConstrainPressure: 0.01 [ms]
[INFO] MatrixAssemblyPII: 60.101 [ms]
[OGL LOG][Proc: 0]: global_index_init: 0.366 [ms]
[OGL LOG][Proc: 0]p_local_coeffs: call_update: 0 [ms]
[OGL LOG][Proc: 0]p_non_local_coeffs: call_update: 0 [ms]
[OGL LOG][Proc: 0]p: update_local_matrix_data: 35.443 [ms]
[OGL LOG][Proc: 0]p: update_non_local_matrix_data: 0.088 [ms]
[OGL LOG][Proc: 0]p_matrix: call_update: 68.228 [ms]
[OGL LOG][Proc: 0]p_rhs: call_update: 4.254 [ms]
[OGL LOG][Proc: 0]p: init_precond: 0.17 [ms]
[OGL LOG][StoppingCriterion.H:372] Creating stopping criterion with minIter 1386 frequency 21
[OGL LOG][Proc: 0]p: generate_solver: 0.001 [ms]
[OGL LOG][Proc: 0]p: solve: 46573.2 [ms]
[OGL LOG][Proc: 0]p: copy_x_back: 0.574 [ms]
[OGL LOG][lduLduBase.H:339] 
Statistics:
	Time per iteration: 20152 [mu s]
	Time per residual norm calculation: 7850.000000 [mu s]
	Time per iteration and DOF: 0.746370 [ns]
	Retrieve results bandwidth 2.979000 [GByte/s]
[OGL LOG][Proc: 0]p: solve_multi_gpu: 46718.2 [ms]
nonecudaGKOCG:  Solving for p, Initial residual = 0.829206, Final residual = 6.82839e-05, No Iterations 2311
[INFO] SolveP: 46769.5 [ms]
time step continuity errors : sum local = 1.01819e-08, global = 7.60966e-22, cumulative = 2.00923e-20
[INFO] ContinuityError: 47.238 [ms]
[INFO] CorrectBoundary: 0.592 [ms]
[INFO] PISOStep: 47150.8 [ms]
[INFO] TimeStep: 95923.6 [ms]
ExecutionTime = 1853.26 s  ClockTime = 1909 s

End

Finalising parallel run
