/*---------------------------------------------------------------------------*\
| =========                 |                                                 |
| \\      /  F ield         | OpenFOAM: The Open Source CFD Toolbox           |
|  \\    /   O peration     | Version:  2306                                  |
|   \\  /    A nd           | Website:  www.openfoam.com                      |
|    \\/     M anipulation  |                                                 |
\*---------------------------------------------------------------------------*/
Build  : c423ebec-20231012 OPENFOAM=2306 version=v2306
Arch   : "LSB;label=32;scalar=64"
Exec   : decomposePar -force
Date   : Feb 16 2024
Time   : 09:04:22
Host   : hkn0338.localdomain
PID    : 2817310
--> FOAM Warning : 
    From Foam::fileName Foam::cwd_L()
    in file POSIX.C at line 552
    PWD is not the cwd() - reverting to physical description
I/O    : uncollated
--> FOAM Warning : 
    From Foam::fileName Foam::cwd_L()
    in file POSIX.C at line 552
    PWD is not the cwd() - reverting to physical description
Case   : /hkfs/work/workspace/scratch/eq4036-windsorbody_setup/workspace/a01b6b5c8aaae6913396cc900badf1a1/case
nProcs : 1
trapFpe: Floating point exception trapping enabled (FOAM_SIGFPE).
fileModificationChecking : Monitoring run-time modified files using timeStampMaster (fileModificationSkew 5, maxFileModificationPolls 20)
allowSystemOperations : Allowing user-supplied system call operations

// * * * * * * * * * * * * * * * * * * * * * * * * * * * * * * * * * * * * * //
Create time

--> FOAM Warning : 
    From void* Foam::dlLibraryTable::openLibrary(const Foam::fileName&, bool)
    in file db/dynamicLibrary/dlLibraryTable/dlLibraryTable.C at line 188
    Could not load "libpetscFoam.so"
libpetscFoam.so: cannot open shared object file: No such file or directory


Decomposing mesh

Create mesh

Calculating distribution of cells
Decomposition method simple [608] (region region0)

Finished decomposition in 35.34 s

Calculating original mesh data

Distributing cells to processors

Distributing faces to processors

Distributing points to processors

Constructing processor meshes

Processor 0
    Number of cells = 102341
    Number of points = 116844
    Number of faces shared with processor 1 = 7397
    Number of faces shared with processor 304 = 7344
    Number of faces shared with processor 305 = 3
    Number of faces shared with processor 76 = 560
    Number of processor patches = 4
    Number of processor faces = 15304
    Number of boundary faces = 8947

Processor 1
    Number of cells = 136084
    Number of points = 149289
    Number of faces shared with processor 0 = 7397
    Number of faces shared with processor 2 = 7653
    Number of faces shared with processor 3 = 40
    Number of faces shared with processor 304 = 1
    Number of faces shared with processor 305 = 2422
    Number of faces shared with processor 306 = 1
    Number of faces shared with processor 77 = 20
    Number of processor patches = 7
    Number of processor faces = 17534
    Number of boundary faces = 8165

Processor 2
    Number of cells = 105814
    Number of points = 119806
    Number of faces shared with processor 1 = 7653
    Number of faces shared with processor 3 = 9083
    Number of faces shared with processor 306 = 3140
    Number of faces shared with processor 307 = 2
    Number of processor patches = 4
    Number of processor faces = 19878
    Number of boundary faces = 7102

Processor 3
    Number of cells = 101004
    Number of points = 113103
    Number of faces shared with processor 1 = 40
    Number of faces shared with processor 2 = 9083
    Number of faces shared with processor 4 = 8707
    Number of faces shared with processor 306 = 2
    Number of faces shared with processor 307 = 1493
    Number of faces shared with processor 308 = 1
    Number of faces shared with processor 79 = 10
    Number of processor patches = 7
    Number of processor faces = 19336
    Number of boundary faces = 7962

Processor 4
    Number of cells = 98792
    Number of points = 112199
    Number of faces shared with processor 3 = 8707
    Number of faces shared with processor 5 = 8654
    Number of faces shared with processor 307 = 4
    Number of faces shared with processor 308 = 1444
    Number of faces shared with processor 309 = 2
    Number of faces shared with processor 80 = 10
    Number of processor patches = 6
    Number of processor faces = 18821
    Number of boundary faces = 7768

Processor 5
    Number of cells = 95288
    Number of points = 108992
    Number of faces shared with processor 4 = 8654
    Number of faces shared with processor 6 = 8557
    Number of faces shared with processor 308 = 1
    Number of faces shared with processor 309 = 1432
    Number of faces shared with processor 81 = 10
    Number of processor patches = 5
    Number of processor faces = 18654
    Number of boundary faces = 7466

Processor 6
    Number of cells = 96058
    Number of points = 109425
    Number of faces shared with processor 5 = 8557
    Number of faces shared with processor 7 = 8846
    Number of faces shared with processor 8 = 30
    Number of faces shared with processor 309 = 3
    Number of faces shared with processor 310 = 1377
    Number of faces shared with processor 311 = 2
    Number of faces shared with processor 82 = 10
    Number of processor patches = 7
    Number of processor faces = 18825
    Number of boundary faces = 7473

Processor 7
    Number of cells = 94341
    Number of points = 108349
    Number of faces shared with processor 6 = 8846
    Number of faces shared with processor 8 = 8722
    Number of faces shared with processor 9 = 10
    Number of faces shared with processor 310 = 5
    Number of faces shared with processor 311 = 1389
    Number of faces shared with processor 312 = 1
    Number of processor patches = 6
    Number of processor faces = 18973
    Number of boundary faces = 7306

Processor 8
    Number of cells = 91332
    Number of points = 105259
    Number of faces shared with processor 6 = 30
    Number of faces shared with processor 7 = 8722
    Number of faces shared with processor 9 = 9259
    Number of faces shared with processor 312 = 1323
    Number of faces shared with processor 313 = 4
    Number of faces shared with processor 84 = 10
    Number of processor patches = 6
    Number of processor faces = 19348
    Number of boundary faces = 7026

Processor 9
    Number of cells = 110356
    Number of points = 125723
    Number of faces shared with processor 7 = 10
    Number of faces shared with processor 8 = 9259
    Number of faces shared with processor 10 = 9200
    Number of faces shared with processor 313 = 1021
    Number of faces shared with processor 314 = 8
    Number of faces shared with processor 85 = 10
    Number of processor patches = 6
    Number of processor faces = 19508
    Number of boundary faces = 9917

Processor 10
    Number of cells = 86072
    Number of points = 99921
    Number of faces shared with processor 9 = 9200
    Number of faces shared with processor 11 = 8839
    Number of faces shared with processor 12 = 40
    Number of faces shared with processor 314 = 1206
    Number of faces shared with processor 315 = 2
    Number of faces shared with processor 86 = 10
    Number of processor patches = 6
    Number of processor faces = 19297
    Number of boundary faces = 6611

Processor 11
    Number of cells = 85019
    Number of points = 98615
    Number of faces shared with processor 10 = 8839
    Number of faces shared with processor 12 = 8738
    Number of faces shared with processor 314 = 1
    Number of faces shared with processor 315 = 1244
    Number of faces shared with processor 316 = 5
    Number of processor patches = 5
    Number of processor faces = 18827
    Number of boundary faces = 6559

Processor 12
    Number of cells = 92186
    Number of points = 106203
    Number of faces shared with processor 10 = 40
    Number of faces shared with processor 11 = 8738
    Number of faces shared with processor 13 = 8756
    Number of faces shared with processor 315 = 1
    Number of faces shared with processor 316 = 1331
    Number of faces shared with processor 317 = 1
    Number of faces shared with processor 88 = 10
    Number of processor patches = 7
    Number of processor faces = 18877
    Number of boundary faces = 7093

Processor 13
    Number of cells = 91690
    Number of points = 105934
    Number of faces shared with processor 12 = 8756
    Number of faces shared with processor 14 = 9115
    Number of faces shared with processor 15 = 40
    Number of faces shared with processor 316 = 2
    Number of faces shared with processor 317 = 1392
    Number of faces shared with processor 318 = 8
    Number of faces shared with processor 89 = 10
    Number of processor patches = 7
    Number of processor faces = 19323
    Number of boundary faces = 7054

Processor 14
    Number of cells = 112656
    Number of points = 127980
    Number of faces shared with processor 13 = 9115
    Number of faces shared with processor 15 = 9682
    Number of faces shared with processor 318 = 1087
    Number of faces shared with processor 319 = 1
    Number of processor patches = 4
    Number of processor faces = 19885
    Number of boundary faces = 9954

Processor 15
    Number of cells = 91008
    Number of points = 105304
    Number of faces shared with processor 13 = 40
    Number of faces shared with processor 14 = 9682
    Number of faces shared with processor 16 = 8759
    Number of faces shared with processor 319 = 1289
    Number of faces shared with processor 91 = 10
    Number of processor patches = 5
    Number of processor faces = 19780
    Number of boundary faces = 6977

Processor 16
    Number of cells = 92164
    Number of points = 106099
    Number of faces shared with processor 15 = 8759
    Number of faces shared with processor 17 = 8473
    Number of faces shared with processor 319 = 4
    Number of faces shared with processor 320 = 1347
    Number of faces shared with processor 92 = 10
    Number of processor patches = 5
    Number of processor faces = 18593
    Number of boundary faces = 7114

Processor 17
    Number of cells = 95355
    Number of points = 109050
    Number of faces shared with processor 16 = 8473
    Number of faces shared with processor 18 = 8820
    Number of faces shared with processor 321 = 1386
    Number of faces shared with processor 322 = 5
    Number of faces shared with processor 93 = 10
    Number of processor patches = 5
    Number of processor faces = 18694
    Number of boundary faces = 7429

Processor 18
    Number of cells = 91118
    Number of points = 105008
    Number of faces shared with processor 17 = 8820
    Number of faces shared with processor 19 = 8583
    Number of faces shared with processor 20 = 40
    Number of faces shared with processor 321 = 1
    Number of faces shared with processor 322 = 1376
    Number of faces shared with processor 323 = 4
    Number of faces shared with processor 94 = 10
    Number of processor patches = 7
    Number of processor faces = 18834
    Number of boundary faces = 7116

Processor 19
    Number of cells = 91864
    Number of points = 105026
    Number of faces shared with processor 18 = 8583
    Number of faces shared with processor 20 = 8749
    Number of faces shared with processor 323 = 1372
    Number of faces shared with processor 324 = 7
    Number of processor patches = 4
    Number of processor faces = 18711
    Number of boundary faces = 7172

Processor 20
    Number of cells = 75004
    Number of points = 89187
    Number of faces shared with processor 18 = 40
    Number of faces shared with processor 19 = 8749
    Number of faces shared with processor 21 = 10115
    Number of faces shared with processor 22 = 396
    Number of faces shared with processor 324 = 2290
    Number of faces shared with processor 325 = 5
    Number of faces shared with processor 96 = 10
    Number of processor patches = 7
    Number of processor faces = 21605
    Number of boundary faces = 6435

Processor 21
    Number of cells = 53610
    Number of points = 65964
    Number of faces shared with processor 20 = 10115
    Number of faces shared with processor 22 = 9483
    Number of faces shared with processor 324 = 1
    Number of faces shared with processor 325 = 1846
    Number of faces shared with processor 326 = 2
    Number of processor patches = 5
    Number of processor faces = 21447
    Number of boundary faces = 2009

Processor 22
    Number of cells = 61234
    Number of points = 74256
    Number of faces shared with processor 20 = 396
    Number of faces shared with processor 21 = 9483
    Number of faces shared with processor 23 = 9770
    Number of faces shared with processor 24 = 40
    Number of faces shared with processor 325 = 8
    Number of faces shared with processor 326 = 2006
    Number of faces shared with processor 327 = 4
    Number of faces shared with processor 98 = 10
    Number of processor patches = 8
    Number of processor faces = 21717
    Number of boundary faces = 2450

Processor 23
    Number of cells = 64112
    Number of points = 76838
    Number of faces shared with processor 22 = 9770
    Number of faces shared with processor 24 = 9651
    Number of faces shared with processor 326 = 5
    Number of faces shared with processor 327 = 2105
    Number of faces shared with processor 328 = 6
    Number of processor patches = 5
    Number of processor faces = 21537
    Number of boundary faces = 2547

Processor 24
    Number of cells = 60975
    Number of points = 73178
    Number of faces shared with processor 22 = 40
    Number of faces shared with processor 23 = 9651
    Number of faces shared with processor 25 = 9697
    Number of faces shared with processor 26 = 30
    Number of faces shared with processor 27 = 10
    Number of faces shared with processor 327 = 1
    Number of faces shared with processor 328 = 2017
    Number of faces shared with processor 329 = 4
    Number of faces shared with processor 100 = 10
    Number of processor patches = 9
    Number of processor faces = 21460
    Number of boundary faces = 2483

Processor 25
    Number of cells = 62492
    Number of points = 74549
    Number of faces shared with processor 24 = 9697
    Number of faces shared with processor 26 = 9460
    Number of faces shared with processor 328 = 2
    Number of faces shared with processor 329 = 2057
    Number of faces shared with processor 330 = 2
    Number of processor patches = 5
    Number of processor faces = 21218
    Number of boundary faces = 2566

Processor 26
    Number of cells = 63058
    Number of points = 75389
    Number of faces shared with processor 24 = 30
    Number of faces shared with processor 25 = 9460
    Number of faces shared with processor 27 = 9444
    Number of faces shared with processor 29 = 30
    Number of faces shared with processor 330 = 2113
    Number of processor patches = 5
    Number of processor faces = 21077
    Number of boundary faces = 2574

Processor 27
    Number of cells = 63127
    Number of points = 75601
    Number of faces shared with processor 24 = 10
    Number of faces shared with processor 26 = 9444
    Number of faces shared with processor 28 = 9518
    Number of faces shared with processor 29 = 10
    Number of faces shared with processor 331 = 2110
    Number of faces shared with processor 332 = 2
    Number of faces shared with processor 103 = 10
    Number of processor patches = 7
    Number of processor faces = 21104
    Number of boundary faces = 2549

Processor 28
    Number of cells = 62920
    Number of points = 75537
    Number of faces shared with processor 27 = 9518
    Number of faces shared with processor 29 = 9699
    Number of faces shared with processor 332 = 2081
    Number of faces shared with processor 333 = 1
    Number of processor patches = 4
    Number of processor faces = 21299
    Number of boundary faces = 2522

Processor 29
    Number of cells = 62922
    Number of points = 75669
    Number of faces shared with processor 26 = 30
    Number of faces shared with processor 27 = 10
    Number of faces shared with processor 28 = 9699
    Number of faces shared with processor 30 = 9645
    Number of faces shared with processor 31 = 40
    Number of faces shared with processor 332 = 5
    Number of faces shared with processor 333 = 2075
    Number of faces shared with processor 334 = 2
    Number of faces shared with processor 105 = 10
    Number of processor patches = 9
    Number of processor faces = 21516
    Number of boundary faces = 2534

Processor 30
    Number of cells = 63249
    Number of points = 76084
    Number of faces shared with processor 29 = 9645
    Number of faces shared with processor 31 = 9618
    Number of faces shared with processor 333 = 2
    Number of faces shared with processor 334 = 2096
    Number of faces shared with processor 335 = 5
    Number of processor patches = 5
    Number of processor faces = 21366
    Number of boundary faces = 2501

Processor 31
    Number of cells = 61466
    Number of points = 74460
    Number of faces shared with processor 29 = 40
    Number of faces shared with processor 30 = 9618
    Number of faces shared with processor 32 = 9794
    Number of faces shared with processor 33 = 40
    Number of faces shared with processor 335 = 2042
    Number of faces shared with processor 336 = 10
    Number of faces shared with processor 107 = 10
    Number of processor patches = 7
    Number of processor faces = 21554
    Number of boundary faces = 2462

Processor 32
    Number of cells = 64151
    Number of points = 77142
    Number of faces shared with processor 31 = 9794
    Number of faces shared with processor 33 = 9736
    Number of faces shared with processor 34 = 89
    Number of faces shared with processor 335 = 1
    Number of faces shared with processor 336 = 2095
    Number of faces shared with processor 337 = 9
    Number of processor patches = 6
    Number of processor faces = 21724
    Number of boundary faces = 2543

Processor 33
    Number of cells = 59826
    Number of points = 72636
    Number of faces shared with processor 31 = 40
    Number of faces shared with processor 32 = 9736
    Number of faces shared with processor 34 = 9274
    Number of faces shared with processor 35 = 218
    Number of faces shared with processor 336 = 1
    Number of faces shared with processor 337 = 2005
    Number of faces shared with processor 338 = 3
    Number of faces shared with processor 109 = 10
    Number of processor patches = 8
    Number of processor faces = 21287
    Number of boundary faces = 2384

Processor 34
    Number of cells = 64624
    Number of points = 77333
    Number of faces shared with processor 32 = 89
    Number of faces shared with processor 33 = 9274
    Number of faces shared with processor 35 = 9378
    Number of faces shared with processor 36 = 89
    Number of faces shared with processor 337 = 1
    Number of faces shared with processor 338 = 2122
    Number of faces shared with processor 339 = 4
    Number of processor patches = 7
    Number of processor faces = 20957
    Number of boundary faces = 2571

Processor 35
    Number of cells = 61721
    Number of points = 74619
    Number of faces shared with processor 33 = 218
    Number of faces shared with processor 34 = 9378
    Number of faces shared with processor 36 = 9739
    Number of faces shared with processor 37 = 40
    Number of faces shared with processor 338 = 3
    Number of faces shared with processor 339 = 2048
    Number of faces shared with processor 340 = 1
    Number of faces shared with processor 111 = 10
    Number of processor patches = 8
    Number of processor faces = 21437
    Number of boundary faces = 2450

Processor 36
    Number of cells = 62937
    Number of points = 75974
    Number of faces shared with processor 34 = 89
    Number of faces shared with processor 35 = 9739
    Number of faces shared with processor 37 = 9697
    Number of faces shared with processor 339 = 9
    Number of faces shared with processor 340 = 2075
    Number of faces shared with processor 341 = 2
    Number of processor patches = 6
    Number of processor faces = 21611
    Number of boundary faces = 2493

Processor 37
    Number of cells = 63318
    Number of points = 76349
    Number of faces shared with processor 35 = 40
    Number of faces shared with processor 36 = 9697
    Number of faces shared with processor 38 = 9625
    Number of faces shared with processor 39 = 40
    Number of faces shared with processor 340 = 6
    Number of faces shared with processor 341 = 2100
    Number of faces shared with processor 342 = 2
    Number of faces shared with processor 113 = 10
    Number of processor patches = 8
    Number of processor faces = 21520
    Number of boundary faces = 2516

Processor 38
    Number of cells = 62260
    Number of points = 75236
    Number of faces shared with processor 37 = 9625
    Number of faces shared with processor 39 = 9783
    Number of faces shared with processor 341 = 2
    Number of faces shared with processor 342 = 2062
    Number of faces shared with processor 343 = 5
    Number of processor patches = 5
    Number of processor faces = 21477
    Number of boundary faces = 2468

Processor 39
    Number of cells = 63793
    Number of points = 76832
    Number of faces shared with processor 37 = 40
    Number of faces shared with processor 38 = 9783
    Number of faces shared with processor 40 = 9795
    Number of faces shared with processor 41 = 10
    Number of faces shared with processor 42 = 30
    Number of faces shared with processor 342 = 1
    Number of faces shared with processor 343 = 2093
    Number of faces shared with processor 344 = 3
    Number of faces shared with processor 115 = 10
    Number of processor patches = 9
    Number of processor faces = 21765
    Number of boundary faces = 2544

Processor 40
    Number of cells = 59629
    Number of points = 72075
    Number of faces shared with processor 39 = 9795
    Number of faces shared with processor 41 = 9442
    Number of faces shared with processor 343 = 2
    Number of faces shared with processor 344 = 1995
    Number of processor patches = 4
    Number of processor faces = 21234
    Number of boundary faces = 2396

Processor 41
    Number of cells = 64474
    Number of points = 76950
    Number of faces shared with processor 39 = 10
    Number of faces shared with processor 40 = 9442
    Number of faces shared with processor 42 = 9527
    Number of faces shared with processor 44 = 10
    Number of faces shared with processor 345 = 2141
    Number of faces shared with processor 346 = 2
    Number of processor patches = 6
    Number of processor faces = 21132
    Number of boundary faces = 2630

Processor 42
    Number of cells = 61423
    Number of points = 74095
    Number of faces shared with processor 39 = 30
    Number of faces shared with processor 41 = 9527
    Number of faces shared with processor 43 = 9636
    Number of faces shared with processor 44 = 30
    Number of faces shared with processor 346 = 2065
    Number of faces shared with processor 347 = 1
    Number of faces shared with processor 118 = 10
    Number of processor patches = 7
    Number of processor faces = 21299
    Number of boundary faces = 2467

Processor 43
    Number of cells = 62572
    Number of points = 75246
    Number of faces shared with processor 42 = 9636
    Number of faces shared with processor 44 = 9622
    Number of faces shared with processor 346 = 5
    Number of faces shared with processor 347 = 2079
    Number of faces shared with processor 348 = 2
    Number of processor patches = 5
    Number of processor faces = 21344
    Number of boundary faces = 2512

Processor 44
    Number of cells = 63186
    Number of points = 75760
    Number of faces shared with processor 41 = 10
    Number of faces shared with processor 42 = 30
    Number of faces shared with processor 43 = 9622
    Number of faces shared with processor 45 = 9519
    Number of faces shared with processor 46 = 40
    Number of faces shared with processor 347 = 2
    Number of faces shared with processor 348 = 2102
    Number of faces shared with processor 349 = 4
    Number of faces shared with processor 120 = 10
    Number of processor patches = 9
    Number of processor faces = 21339
    Number of boundary faces = 2551

Processor 45
    Number of cells = 62810
    Number of points = 75257
    Number of faces shared with processor 44 = 9519
    Number of faces shared with processor 46 = 9798
    Number of faces shared with processor 349 = 2082
    Number of faces shared with processor 350 = 9
    Number of processor patches = 4
    Number of processor faces = 21408
    Number of boundary faces = 2537

Processor 46
    Number of cells = 62929
    Number of points = 75485
    Number of faces shared with processor 44 = 40
    Number of faces shared with processor 45 = 9798
    Number of faces shared with processor 47 = 9546
    Number of faces shared with processor 48 = 129
    Number of faces shared with processor 349 = 1
    Number of faces shared with processor 350 = 2075
    Number of faces shared with processor 351 = 6
    Number of faces shared with processor 122 = 10
    Number of processor patches = 8
    Number of processor faces = 21605
    Number of boundary faces = 2566

Processor 47
    Number of cells = 60746
    Number of points = 73165
    Number of faces shared with processor 46 = 9546
    Number of faces shared with processor 48 = 9278
    Number of faces shared with processor 49 = 178
    Number of faces shared with processor 350 = 2
    Number of faces shared with processor 351 = 2024
    Number of faces shared with processor 352 = 5
    Number of processor patches = 6
    Number of processor faces = 21033
    Number of boundary faces = 2469

Processor 48
    Number of cells = 63321
    Number of points = 75597
    Number of faces shared with processor 46 = 129
    Number of faces shared with processor 47 = 9278
    Number of faces shared with processor 49 = 9225
    Number of faces shared with processor 50 = 129
    Number of faces shared with processor 351 = 1
    Number of faces shared with processor 352 = 2132
    Number of faces shared with processor 353 = 3
    Number of faces shared with processor 124 = 10
    Number of processor patches = 8
    Number of processor faces = 20907
    Number of boundary faces = 2591

Processor 49
    Number of cells = 59692
    Number of points = 71980
    Number of faces shared with processor 47 = 178
    Number of faces shared with processor 48 = 9225
    Number of faces shared with processor 50 = 9455
    Number of faces shared with processor 352 = 3
    Number of faces shared with processor 353 = 2012
    Number of faces shared with processor 354 = 3
    Number of processor patches = 6
    Number of processor faces = 20876
    Number of boundary faces = 2458

Processor 50
    Number of cells = 63599
    Number of points = 76234
    Number of faces shared with processor 48 = 129
    Number of faces shared with processor 49 = 9455
    Number of faces shared with processor 51 = 9654
    Number of faces shared with processor 52 = 40
    Number of faces shared with processor 353 = 6
    Number of faces shared with processor 354 = 2123
    Number of faces shared with processor 355 = 4
    Number of faces shared with processor 126 = 10
    Number of processor patches = 8
    Number of processor faces = 21421
    Number of boundary faces = 2603

Processor 51
    Number of cells = 59498
    Number of points = 72064
    Number of faces shared with processor 50 = 9654
    Number of faces shared with processor 52 = 9424
    Number of faces shared with processor 354 = 7
    Number of faces shared with processor 355 = 2036
    Number of faces shared with processor 356 = 1
    Number of processor patches = 5
    Number of processor faces = 21122
    Number of boundary faces = 2406

Processor 52
    Number of cells = 63197
    Number of points = 75795
    Number of faces shared with processor 128 = 10
    Number of faces shared with processor 50 = 40
    Number of faces shared with processor 51 = 9424
    Number of faces shared with processor 53 = 9599
    Number of faces shared with processor 54 = 40
    Number of faces shared with processor 355 = 4
    Number of faces shared with processor 356 = 2102
    Number of faces shared with processor 357 = 4
    Number of processor patches = 8
    Number of processor faces = 21223
    Number of boundary faces = 2583

Processor 53
    Number of cells = 61349
    Number of points = 73958
    Number of faces shared with processor 52 = 9599
    Number of faces shared with processor 54 = 9637
    Number of faces shared with processor 357 = 2071
    Number of faces shared with processor 358 = 1
    Number of processor patches = 4
    Number of processor faces = 21308
    Number of boundary faces = 2475

Processor 54
    Number of cells = 62503
    Number of points = 75159
    Number of faces shared with processor 130 = 10
    Number of faces shared with processor 52 = 40
    Number of faces shared with processor 53 = 9637
    Number of faces shared with processor 55 = 9558
    Number of faces shared with processor 57 = 40
    Number of faces shared with processor 357 = 3
    Number of faces shared with processor 358 = 2088
    Number of faces shared with processor 359 = 2
    Number of processor patches = 8
    Number of processor faces = 21378
    Number of boundary faces = 2535

Processor 55
    Number of cells = 62942
    Number of points = 75563
    Number of faces shared with processor 54 = 9558
    Number of faces shared with processor 56 = 9402
    Number of faces shared with processor 359 = 2125
    Number of processor patches = 3
    Number of processor faces = 21085
    Number of boundary faces = 2535

Processor 56
    Number of cells = 61845
    Number of points = 74486
    Number of faces shared with processor 55 = 9402
    Number of faces shared with processor 57 = 9657
    Number of faces shared with processor 360 = 2082
    Number of faces shared with processor 361 = 3
    Number of processor patches = 4
    Number of processor faces = 21144
    Number of boundary faces = 2496

Processor 57
    Number of cells = 63239
    Number of points = 75913
    Number of faces shared with processor 133 = 10
    Number of faces shared with processor 54 = 40
    Number of faces shared with processor 56 = 9657
    Number of faces shared with processor 58 = 9618
    Number of faces shared with processor 59 = 40
    Number of faces shared with processor 360 = 1
    Number of faces shared with processor 361 = 2098
    Number of faces shared with processor 362 = 3
    Number of processor patches = 8
    Number of processor faces = 21467
    Number of boundary faces = 2569

Processor 58
    Number of cells = 58938
    Number of points = 71224
    Number of faces shared with processor 57 = 9618
    Number of faces shared with processor 59 = 9510
    Number of faces shared with processor 361 = 3
    Number of faces shared with processor 362 = 1986
    Number of faces shared with processor 363 = 2
    Number of processor patches = 5
    Number of processor faces = 21119
    Number of boundary faces = 2415

Processor 59
    Number of cells = 63618
    Number of points = 76338
    Number of faces shared with processor 135 = 10
    Number of faces shared with processor 57 = 40
    Number of faces shared with processor 58 = 9510
    Number of faces shared with processor 60 = 9533
    Number of faces shared with processor 61 = 40
    Number of faces shared with processor 362 = 1
    Number of faces shared with processor 363 = 2132
    Number of faces shared with processor 364 = 8
    Number of processor patches = 8
    Number of processor faces = 21274
    Number of boundary faces = 2596

Processor 60
    Number of cells = 60238
    Number of points = 72821
    Number of faces shared with processor 59 = 9533
    Number of faces shared with processor 61 = 9661
    Number of faces shared with processor 364 = 2043
    Number of faces shared with processor 365 = 7
    Number of processor patches = 4
    Number of processor faces = 21244
    Number of boundary faces = 2443

Processor 61
    Number of cells = 61643
    Number of points = 74128
    Number of faces shared with processor 137 = 10
    Number of faces shared with processor 59 = 40
    Number of faces shared with processor 60 = 9661
    Number of faces shared with processor 62 = 9301
    Number of faces shared with processor 63 = 129
    Number of faces shared with processor 364 = 3
    Number of faces shared with processor 365 = 2073
    Number of faces shared with processor 366 = 6
    Number of processor patches = 8
    Number of processor faces = 21223
    Number of boundary faces = 2537

Processor 62
    Number of cells = 62020
    Number of points = 74000
    Number of faces shared with processor 61 = 9301
    Number of faces shared with processor 63 = 9234
    Number of faces shared with processor 366 = 2107
    Number of faces shared with processor 367 = 4
    Number of processor patches = 4
    Number of processor faces = 20646
    Number of boundary faces = 2567

Processor 63
    Number of cells = 72004
    Number of points = 84898
    Number of faces shared with processor 139 = 10
    Number of faces shared with processor 61 = 129
    Number of faces shared with processor 62 = 9234
    Number of faces shared with processor 64 = 7620
    Number of faces shared with processor 366 = 1
    Number of faces shared with processor 367 = 1982
    Number of faces shared with processor 368 = 1
    Number of processor patches = 7
    Number of processor faces = 18977
    Number of boundary faces = 3766

Processor 64
    Number of cells = 107471
    Number of points = 121268
    Number of faces shared with processor 140 = 10
    Number of faces shared with processor 63 = 7620
    Number of faces shared with processor 65 = 7597
    Number of faces shared with processor 367 = 2
    Number of faces shared with processor 368 = 2072
    Number of faces shared with processor 369 = 2
    Number of processor patches = 6
    Number of processor faces = 17303
    Number of boundary faces = 6238

Processor 65
    Number of cells = 112720
    Number of points = 127349
    Number of faces shared with processor 141 = 10
    Number of faces shared with processor 64 = 7597
    Number of faces shared with processor 66 = 7711
    Number of faces shared with processor 369 = 2001
    Number of faces shared with processor 370 = 5
    Number of processor patches = 5
    Number of processor faces = 17324
    Number of boundary faces = 6603

Processor 66
    Number of cells = 110233
    Number of points = 124498
    Number of faces shared with processor 142 = 10
    Number of faces shared with processor 65 = 7711
    Number of faces shared with processor 67 = 7236
    Number of faces shared with processor 370 = 2099
    Number of processor patches = 4
    Number of processor faces = 17056
    Number of boundary faces = 6428

Processor 67
    Number of cells = 114643
    Number of points = 128491
    Number of faces shared with processor 143 = 20
    Number of faces shared with processor 66 = 7236
    Number of faces shared with processor 68 = 7436
    Number of faces shared with processor 371 = 2134
    Number of faces shared with processor 372 = 1
    Number of processor patches = 5
    Number of processor faces = 16827
    Number of boundary faces = 6740

Processor 68
    Number of cells = 111975
    Number of points = 126316
    Number of faces shared with processor 144 = 10
    Number of faces shared with processor 67 = 7436
    Number of faces shared with processor 69 = 7675
    Number of faces shared with processor 371 = 3
    Number of faces shared with processor 372 = 2082
    Number of faces shared with processor 373 = 1
    Number of processor patches = 6
    Number of processor faces = 17207
    Number of boundary faces = 6490

Processor 69
    Number of cells = 115104
    Number of points = 129717
    Number of faces shared with processor 145 = 10
    Number of faces shared with processor 68 = 7675
    Number of faces shared with processor 70 = 7687
    Number of faces shared with processor 372 = 1
    Number of faces shared with processor 373 = 2036
    Number of faces shared with processor 374 = 1
    Number of processor patches = 6
    Number of processor faces = 17410
    Number of boundary faces = 6698

Processor 70
    Number of cells = 111555
    Number of points = 124882
    Number of faces shared with processor 146 = 10
    Number of faces shared with processor 69 = 7687
    Number of faces shared with processor 71 = 7357
    Number of faces shared with processor 373 = 6
    Number of faces shared with processor 374 = 2117
    Number of faces shared with processor 375 = 2
    Number of processor patches = 6
    Number of processor faces = 17179
    Number of boundary faces = 6641

Processor 71
    Number of cells = 113666
    Number of points = 126791
    Number of faces shared with processor 147 = 20
    Number of faces shared with processor 70 = 7357
    Number of faces shared with processor 72 = 7369
    Number of faces shared with processor 374 = 2
    Number of faces shared with processor 375 = 2113
    Number of faces shared with processor 376 = 3
    Number of processor patches = 6
    Number of processor faces = 16864
    Number of boundary faces = 6745

Processor 72
    Number of cells = 113231
    Number of points = 127110
    Number of faces shared with processor 148 = 10
    Number of faces shared with processor 71 = 7369
    Number of faces shared with processor 73 = 7571
    Number of faces shared with processor 375 = 2
    Number of faces shared with processor 376 = 2148
    Number of faces shared with processor 377 = 7
    Number of processor patches = 6
    Number of processor faces = 17107
    Number of boundary faces = 6625

Processor 73
    Number of cells = 111625
    Number of points = 125122
    Number of faces shared with processor 149 = 10
    Number of faces shared with processor 72 = 7571
    Number of faces shared with processor 74 = 7573
    Number of faces shared with processor 377 = 2056
    Number of faces shared with processor 378 = 3
    Number of processor patches = 5
    Number of processor faces = 17213
    Number of boundary faces = 6661

Processor 74
    Number of cells = 130619
    Number of points = 143505
    Number of faces shared with processor 150 = 10
    Number of faces shared with processor 73 = 7573
    Number of faces shared with processor 75 = 6916
    Number of faces shared with processor 378 = 2474
    Number of faces shared with processor 379 = 1
    Number of processor patches = 5
    Number of processor faces = 16974
    Number of boundary faces = 7942

Processor 75
    Number of cells = 91108
    Number of points = 104454
    Number of faces shared with processor 151 = 390
    Number of faces shared with processor 74 = 6916
    Number of faces shared with processor 379 = 6134
    Number of processor patches = 3
    Number of processor faces = 13440
    Number of boundary faces = 7800

Processor 76
    Number of cells = 99120
    Number of points = 113231
    Number of faces shared with processor 0 = 560
    Number of faces shared with processor 152 = 560
    Number of faces shared with processor 77 = 7107
    Number of faces shared with processor 380 = 6900
    Number of processor patches = 4
    Number of processor faces = 15127
    Number of boundary faces = 8082

Processor 77
    Number of cells = 138302
    Number of points = 151300
    Number of faces shared with processor 1 = 20
    Number of faces shared with processor 153 = 10
    Number of faces shared with processor 76 = 7107
    Number of faces shared with processor 78 = 7442
    Number of faces shared with processor 79 = 10
    Number of faces shared with processor 381 = 2549
    Number of processor patches = 6
    Number of processor faces = 17138
    Number of boundary faces = 8155

Processor 78
    Number of cells = 106886
    Number of points = 121389
    Number of faces shared with processor 154 = 10
    Number of faces shared with processor 77 = 7442
    Number of faces shared with processor 79 = 9734
    Number of faces shared with processor 382 = 3090
    Number of faces shared with processor 383 = 19
    Number of processor patches = 5
    Number of processor faces = 20295
    Number of boundary faces = 7096

Processor 79
    Number of cells = 103191
    Number of points = 115502
    Number of faces shared with processor 384 = 4
    Number of faces shared with processor 3 = 10
    Number of faces shared with processor 155 = 10
    Number of faces shared with processor 77 = 10
    Number of faces shared with processor 78 = 9734
    Number of faces shared with processor 80 = 8799
    Number of faces shared with processor 382 = 5
    Number of faces shared with processor 383 = 1449
    Number of processor patches = 8
    Number of processor faces = 20021
    Number of boundary faces = 8125

Processor 80
    Number of cells = 100426
    Number of points = 113921
    Number of faces shared with processor 384 = 1467
    Number of faces shared with processor 4 = 10
    Number of faces shared with processor 156 = 10
    Number of faces shared with processor 79 = 8799
    Number of faces shared with processor 81 = 8551
    Number of faces shared with processor 383 = 28
    Number of processor patches = 6
    Number of processor faces = 18865
    Number of boundary faces = 7826

Processor 81
    Number of cells = 99523
    Number of points = 113810
    Number of faces shared with processor 385 = 1419
    Number of faces shared with processor 386 = 31
    Number of faces shared with processor 5 = 10
    Number of faces shared with processor 157 = 10
    Number of faces shared with processor 80 = 8551
    Number of faces shared with processor 82 = 9094
    Number of processor patches = 6
    Number of processor faces = 19115
    Number of boundary faces = 7750

Processor 82
    Number of cells = 96165
    Number of points = 109797
    Number of faces shared with processor 385 = 3
    Number of faces shared with processor 386 = 1336
    Number of faces shared with processor 387 = 11
    Number of faces shared with processor 6 = 10
    Number of faces shared with processor 158 = 10
    Number of faces shared with processor 81 = 9094
    Number of faces shared with processor 83 = 8957
    Number of faces shared with processor 84 = 40
    Number of processor patches = 8
    Number of processor faces = 19461
    Number of boundary faces = 7467

Processor 83
    Number of cells = 95876
    Number of points = 110134
    Number of faces shared with processor 386 = 22
    Number of faces shared with processor 387 = 1382
    Number of faces shared with processor 388 = 3
    Number of faces shared with processor 82 = 8957
    Number of faces shared with processor 84 = 9052
    Number of processor patches = 5
    Number of processor faces = 19416
    Number of boundary faces = 7387

Processor 84
    Number of cells = 92448
    Number of points = 106896
    Number of faces shared with processor 387 = 31
    Number of faces shared with processor 388 = 1323
    Number of faces shared with processor 389 = 2
    Number of faces shared with processor 8 = 10
    Number of faces shared with processor 160 = 10
    Number of faces shared with processor 82 = 40
    Number of faces shared with processor 83 = 9052
    Number of faces shared with processor 85 = 9441
    Number of processor patches = 8
    Number of processor faces = 19909
    Number of boundary faces = 7061

Processor 85
    Number of cells = 109946
    Number of points = 125270
    Number of faces shared with processor 388 = 6
    Number of faces shared with processor 389 = 953
    Number of faces shared with processor 390 = 2
    Number of faces shared with processor 9 = 10
    Number of faces shared with processor 161 = 10
    Number of faces shared with processor 84 = 9441
    Number of faces shared with processor 86 = 9478
    Number of faces shared with processor 87 = 10
    Number of processor patches = 8
    Number of processor faces = 19910
    Number of boundary faces = 9902

Processor 86
    Number of cells = 87445
    Number of points = 101553
    Number of faces shared with processor 390 = 1273
    Number of faces shared with processor 10 = 10
    Number of faces shared with processor 85 = 9478
    Number of faces shared with processor 87 = 8673
    Number of faces shared with processor 88 = 30
    Number of processor patches = 5
    Number of processor faces = 19464
    Number of boundary faces = 6647

Processor 87
    Number of cells = 89600
    Number of points = 103439
    Number of faces shared with processor 391 = 1270
    Number of faces shared with processor 392 = 2
    Number of faces shared with processor 163 = 10
    Number of faces shared with processor 85 = 10
    Number of faces shared with processor 86 = 8673
    Number of faces shared with processor 88 = 8787
    Number of processor patches = 6
    Number of processor faces = 18752
    Number of boundary faces = 6859

Processor 88
    Number of cells = 90188
    Number of points = 104125
    Number of faces shared with processor 392 = 1319
    Number of faces shared with processor 12 = 10
    Number of faces shared with processor 164 = 10
    Number of faces shared with processor 86 = 30
    Number of faces shared with processor 87 = 8787
    Number of faces shared with processor 89 = 8650
    Number of processor patches = 6
    Number of processor faces = 18806
    Number of boundary faces = 6918

Processor 89
    Number of cells = 93498
    Number of points = 107604
    Number of faces shared with processor 393 = 1324
    Number of faces shared with processor 394 = 1
    Number of faces shared with processor 13 = 10
    Number of faces shared with processor 165 = 10
    Number of faces shared with processor 88 = 8650
    Number of faces shared with processor 90 = 8979
    Number of faces shared with processor 91 = 40
    Number of processor patches = 7
    Number of processor faces = 19014
    Number of boundary faces = 7184

Processor 90
    Number of cells = 111190
    Number of points = 126836
    Number of faces shared with processor 394 = 1082
    Number of faces shared with processor 395 = 3
    Number of faces shared with processor 89 = 8979
    Number of faces shared with processor 91 = 10454
    Number of processor patches = 4
    Number of processor faces = 20518
    Number of boundary faces = 9865

Processor 91
    Number of cells = 96800
    Number of points = 111877
    Number of faces shared with processor 394 = 30
    Number of faces shared with processor 395 = 1285
    Number of faces shared with processor 396 = 2
    Number of faces shared with processor 15 = 10
    Number of faces shared with processor 167 = 10
    Number of faces shared with processor 89 = 40
    Number of faces shared with processor 90 = 10454
    Number of faces shared with processor 92 = 9126
    Number of processor patches = 8
    Number of processor faces = 20957
    Number of boundary faces = 7317

Processor 92
    Number of cells = 92996
    Number of points = 107599
    Number of faces shared with processor 395 = 32
    Number of faces shared with processor 396 = 1371
    Number of faces shared with processor 397 = 2
    Number of faces shared with processor 16 = 10
    Number of faces shared with processor 168 = 10
    Number of faces shared with processor 91 = 9126
    Number of faces shared with processor 93 = 8927
    Number of processor patches = 7
    Number of processor faces = 19478
    Number of boundary faces = 7106

Processor 93
    Number of cells = 94154
    Number of points = 107920
    Number of faces shared with processor 396 = 1
    Number of faces shared with processor 397 = 1318
    Number of faces shared with processor 398 = 1
    Number of faces shared with processor 17 = 10
    Number of faces shared with processor 169 = 10
    Number of faces shared with processor 92 = 8927
    Number of faces shared with processor 94 = 8725
    Number of processor patches = 7
    Number of processor faces = 18992
    Number of boundary faces = 7297

Processor 94
    Number of cells = 93828
    Number of points = 107831
    Number of faces shared with processor 398 = 1319
    Number of faces shared with processor 399 = 1
    Number of faces shared with processor 18 = 10
    Number of faces shared with processor 170 = 10
    Number of faces shared with processor 93 = 8725
    Number of faces shared with processor 95 = 8830
    Number of faces shared with processor 96 = 40
    Number of processor patches = 7
    Number of processor faces = 18935
    Number of boundary faces = 7317

Processor 95
    Number of cells = 91913
    Number of points = 105451
    Number of faces shared with processor 398 = 1
    Number of faces shared with processor 399 = 1387
    Number of faces shared with processor 94 = 8830
    Number of faces shared with processor 96 = 8925
    Number of faces shared with processor 97 = 131
    Number of processor patches = 5
    Number of processor faces = 19274
    Number of boundary faces = 7101

Processor 96
    Number of cells = 72873
    Number of points = 87565
    Number of faces shared with processor 399 = 7
    Number of faces shared with processor 400 = 1986
    Number of faces shared with processor 401 = 1
    Number of faces shared with processor 20 = 10
    Number of faces shared with processor 172 = 10
    Number of faces shared with processor 94 = 40
    Number of faces shared with processor 95 = 8925
    Number of faces shared with processor 97 = 10761
    Number of faces shared with processor 98 = 265
    Number of processor patches = 9
    Number of processor faces = 22005
    Number of boundary faces = 6702

Processor 97
    Number of cells = 58538
    Number of points = 71504
    Number of faces shared with processor 401 = 1996
    Number of faces shared with processor 402 = 23
    Number of faces shared with processor 95 = 131
    Number of faces shared with processor 96 = 10761
    Number of faces shared with processor 98 = 9726
    Number of processor patches = 5
    Number of processor faces = 22637
    Number of boundary faces = 2164

Processor 98
    Number of cells = 65569
    Number of points = 78924
    Number of faces shared with processor 402 = 2075
    Number of faces shared with processor 403 = 23
    Number of faces shared with processor 22 = 10
    Number of faces shared with processor 174 = 10
    Number of faces shared with processor 96 = 265
    Number of faces shared with processor 97 = 9726
    Number of faces shared with processor 99 = 10076
    Number of faces shared with processor 100 = 30
    Number of faces shared with processor 101 = 10
    Number of processor patches = 9
    Number of processor faces = 22225
    Number of boundary faces = 2507

Processor 99
    Number of cells = 65526
    Number of points = 78598
    Number of faces shared with processor 402 = 2
    Number of faces shared with processor 403 = 2071
    Number of faces shared with processor 98 = 10076
    Number of faces shared with processor 100 = 10077
    Number of processor patches = 4
    Number of processor faces = 22226
    Number of boundary faces = 2528

Processor 100
    Number of cells = 64953
    Number of points = 77614
    Number of faces shared with processor 403 = 5
    Number of faces shared with processor 404 = 2052
    Number of faces shared with processor 405 = 2
    Number of faces shared with processor 24 = 10
    Number of faces shared with processor 98 = 30
    Number of faces shared with processor 99 = 10077
    Number of faces shared with processor 101 = 9961
    Number of faces shared with processor 103 = 30
    Number of processor patches = 8
    Number of processor faces = 22167
    Number of boundary faces = 2551

Processor 101
    Number of cells = 65942
    Number of points = 78439
    Number of faces shared with processor 405 = 2138
    Number of faces shared with processor 406 = 1
    Number of faces shared with processor 177 = 10
    Number of faces shared with processor 98 = 10
    Number of faces shared with processor 100 = 9961
    Number of faces shared with processor 102 = 9696
    Number of faces shared with processor 103 = 10
    Number of processor patches = 7
    Number of processor faces = 21826
    Number of boundary faces = 2610

Processor 102
    Number of cells = 63129
    Number of points = 75752
    Number of faces shared with processor 406 = 2038
    Number of faces shared with processor 407 = 3
    Number of faces shared with processor 101 = 9696
    Number of faces shared with processor 103 = 10003
    Number of processor patches = 4
    Number of processor faces = 21740
    Number of boundary faces = 2500

Processor 103
    Number of cells = 64498
    Number of points = 77416
    Number of faces shared with processor 406 = 4
    Number of faces shared with processor 407 = 2038
    Number of faces shared with processor 408 = 4
    Number of faces shared with processor 27 = 10
    Number of faces shared with processor 179 = 10
    Number of faces shared with processor 100 = 30
    Number of faces shared with processor 101 = 10
    Number of faces shared with processor 102 = 10003
    Number of faces shared with processor 104 = 10063
    Number of faces shared with processor 105 = 40
    Number of processor patches = 10
    Number of processor faces = 22212
    Number of boundary faces = 2525

Processor 104
    Number of cells = 63285
    Number of points = 76317
    Number of faces shared with processor 407 = 21
    Number of faces shared with processor 408 = 2029
    Number of faces shared with processor 409 = 13
    Number of faces shared with processor 103 = 10063
    Number of faces shared with processor 105 = 9909
    Number of processor patches = 5
    Number of processor faces = 22035
    Number of boundary faces = 2442

Processor 105
    Number of cells = 65184
    Number of points = 78286
    Number of faces shared with processor 408 = 10
    Number of faces shared with processor 409 = 2057
    Number of faces shared with processor 410 = 22
    Number of faces shared with processor 29 = 10
    Number of faces shared with processor 181 = 10
    Number of faces shared with processor 103 = 40
    Number of faces shared with processor 104 = 9909
    Number of faces shared with processor 106 = 10032
    Number of faces shared with processor 107 = 40
    Number of processor patches = 9
    Number of processor faces = 22130
    Number of boundary faces = 2518

Processor 106
    Number of cells = 65139
    Number of points = 78409
    Number of faces shared with processor 409 = 2
    Number of faces shared with processor 410 = 2067
    Number of faces shared with processor 105 = 10032
    Number of faces shared with processor 107 = 10144
    Number of processor patches = 4
    Number of processor faces = 22245
    Number of boundary faces = 2509

Processor 107
    Number of cells = 65111
    Number of points = 78477
    Number of faces shared with processor 410 = 4
    Number of faces shared with processor 411 = 2063
    Number of faces shared with processor 31 = 10
    Number of faces shared with processor 183 = 10
    Number of faces shared with processor 105 = 40
    Number of faces shared with processor 106 = 10144
    Number of faces shared with processor 108 = 9743
    Number of faces shared with processor 109 = 272
    Number of processor patches = 8
    Number of processor faces = 22286
    Number of boundary faces = 2508

Processor 108
    Number of cells = 65422
    Number of points = 78402
    Number of faces shared with processor 412 = 2082
    Number of faces shared with processor 413 = 1
    Number of faces shared with processor 107 = 9743
    Number of faces shared with processor 109 = 9554
    Number of faces shared with processor 110 = 124
    Number of processor patches = 5
    Number of processor faces = 21504
    Number of boundary faces = 2500

Processor 109
    Number of cells = 65508
    Number of points = 78728
    Number of faces shared with processor 413 = 2099
    Number of faces shared with processor 414 = 2
    Number of faces shared with processor 33 = 10
    Number of faces shared with processor 185 = 10
    Number of faces shared with processor 107 = 272
    Number of faces shared with processor 108 = 9554
    Number of faces shared with processor 110 = 9912
    Number of faces shared with processor 111 = 40
    Number of processor patches = 8
    Number of processor faces = 21899
    Number of boundary faces = 2514

Processor 110
    Number of cells = 65162
    Number of points = 78507
    Number of faces shared with processor 414 = 2049
    Number of faces shared with processor 415 = 4
    Number of faces shared with processor 108 = 124
    Number of faces shared with processor 109 = 9912
    Number of faces shared with processor 111 = 10184
    Number of processor patches = 5
    Number of processor faces = 22273
    Number of boundary faces = 2502

Processor 111
    Number of cells = 63863
    Number of points = 77295
    Number of faces shared with processor 414 = 15
    Number of faces shared with processor 415 = 2007
    Number of faces shared with processor 416 = 6
    Number of faces shared with processor 35 = 10
    Number of faces shared with processor 187 = 10
    Number of faces shared with processor 109 = 40
    Number of faces shared with processor 110 = 10184
    Number of faces shared with processor 112 = 10119
    Number of faces shared with processor 113 = 40
    Number of processor patches = 9
    Number of processor faces = 22431
    Number of boundary faces = 2462

Processor 112
    Number of cells = 65305
    Number of points = 78717
    Number of faces shared with processor 415 = 11
    Number of faces shared with processor 416 = 2050
    Number of faces shared with processor 417 = 14
    Number of faces shared with processor 111 = 10119
    Number of faces shared with processor 113 = 10035
    Number of processor patches = 5
    Number of processor faces = 22229
    Number of boundary faces = 2487

Processor 113
    Number of cells = 62910
    Number of points = 76321
    Number of faces shared with processor 416 = 3
    Number of faces shared with processor 417 = 2016
    Number of faces shared with processor 418 = 2
    Number of faces shared with processor 37 = 10
    Number of faces shared with processor 189 = 10
    Number of faces shared with processor 111 = 40
    Number of faces shared with processor 112 = 10035
    Number of faces shared with processor 114 = 10178
    Number of faces shared with processor 115 = 10
    Number of faces shared with processor 116 = 30
    Number of processor patches = 10
    Number of processor faces = 22334
    Number of boundary faces = 2403

Processor 114
    Number of cells = 65061
    Number of points = 78367
    Number of faces shared with processor 417 = 5
    Number of faces shared with processor 418 = 2047
    Number of faces shared with processor 113 = 10178
    Number of faces shared with processor 115 = 9950
    Number of processor patches = 4
    Number of processor faces = 22180
    Number of boundary faces = 2494

Processor 115
    Number of cells = 65902
    Number of points = 79169
    Number of faces shared with processor 419 = 2107
    Number of faces shared with processor 39 = 10
    Number of faces shared with processor 113 = 10
    Number of faces shared with processor 114 = 9950
    Number of faces shared with processor 116 = 9894
    Number of faces shared with processor 118 = 10
    Number of processor patches = 6
    Number of processor faces = 21981
    Number of boundary faces = 2525

Processor 116
    Number of cells = 65893
    Number of points = 78901
    Number of faces shared with processor 420 = 2106
    Number of faces shared with processor 421 = 1
    Number of faces shared with processor 192 = 10
    Number of faces shared with processor 113 = 30
    Number of faces shared with processor 115 = 9894
    Number of faces shared with processor 117 = 9942
    Number of faces shared with processor 118 = 30
    Number of processor patches = 7
    Number of processor faces = 22013
    Number of boundary faces = 2551

Processor 117
    Number of cells = 65150
    Number of points = 77991
    Number of faces shared with processor 420 = 1
    Number of faces shared with processor 421 = 2042
    Number of faces shared with processor 422 = 4
    Number of faces shared with processor 116 = 9942
    Number of faces shared with processor 118 = 10112
    Number of processor patches = 5
    Number of processor faces = 22101
    Number of boundary faces = 2543

Processor 118
    Number of cells = 63646
    Number of points = 76834
    Number of faces shared with processor 421 = 11
    Number of faces shared with processor 422 = 2012
    Number of faces shared with processor 423 = 5
    Number of faces shared with processor 42 = 10
    Number of faces shared with processor 194 = 10
    Number of faces shared with processor 115 = 10
    Number of faces shared with processor 116 = 30
    Number of faces shared with processor 117 = 10112
    Number of faces shared with processor 119 = 9970
    Number of faces shared with processor 120 = 40
    Number of processor patches = 10
    Number of processor faces = 22210
    Number of boundary faces = 2480

Processor 119
    Number of cells = 65660
    Number of points = 78788
    Number of faces shared with processor 422 = 10
    Number of faces shared with processor 423 = 2067
    Number of faces shared with processor 424 = 13
    Number of faces shared with processor 118 = 9970
    Number of faces shared with processor 120 = 10063
    Number of processor patches = 5
    Number of processor faces = 22123
    Number of boundary faces = 2527

Processor 120
    Number of cells = 62293
    Number of points = 75344
    Number of faces shared with processor 423 = 2
    Number of faces shared with processor 424 = 1991
    Number of faces shared with processor 44 = 10
    Number of faces shared with processor 196 = 10
    Number of faces shared with processor 118 = 40
    Number of faces shared with processor 119 = 10063
    Number of faces shared with processor 121 = 10177
    Number of faces shared with processor 122 = 40
    Number of processor patches = 8
    Number of processor faces = 22333
    Number of boundary faces = 2415

Processor 121
    Number of cells = 65213
    Number of points = 78044
    Number of faces shared with processor 424 = 5
    Number of faces shared with processor 425 = 2040
    Number of faces shared with processor 120 = 10177
    Number of faces shared with processor 122 = 9873
    Number of faces shared with processor 123 = 164
    Number of processor patches = 5
    Number of processor faces = 22259
    Number of boundary faces = 2546

Processor 122
    Number of cells = 65608
    Number of points = 78319
    Number of faces shared with processor 426 = 2088
    Number of faces shared with processor 46 = 10
    Number of faces shared with processor 198 = 10
    Number of faces shared with processor 120 = 40
    Number of faces shared with processor 121 = 9873
    Number of faces shared with processor 123 = 9488
    Number of faces shared with processor 124 = 232
    Number of processor patches = 7
    Number of processor faces = 21741
    Number of boundary faces = 2553

Processor 123
    Number of cells = 65036
    Number of points = 77758
    Number of faces shared with processor 427 = 2082
    Number of faces shared with processor 428 = 1
    Number of faces shared with processor 121 = 164
    Number of faces shared with processor 122 = 9488
    Number of faces shared with processor 124 = 9720
    Number of processor patches = 5
    Number of processor faces = 21455
    Number of boundary faces = 2523

Processor 124
    Number of cells = 64827
    Number of points = 77658
    Number of faces shared with processor 427 = 1
    Number of faces shared with processor 428 = 2063
    Number of faces shared with processor 429 = 3
    Number of faces shared with processor 48 = 10
    Number of faces shared with processor 200 = 10
    Number of faces shared with processor 122 = 232
    Number of faces shared with processor 123 = 9720
    Number of faces shared with processor 125 = 10019
    Number of faces shared with processor 126 = 40
    Number of processor patches = 9
    Number of processor faces = 22098
    Number of boundary faces = 2550

Processor 125
    Number of cells = 64313
    Number of points = 77173
    Number of faces shared with processor 428 = 11
    Number of faces shared with processor 429 = 2052
    Number of faces shared with processor 430 = 4
    Number of faces shared with processor 124 = 10019
    Number of faces shared with processor 126 = 9886
    Number of processor patches = 5
    Number of processor faces = 21972
    Number of boundary faces = 2537

Processor 126
    Number of cells = 64670
    Number of points = 77607
    Number of faces shared with processor 128 = 40
    Number of faces shared with processor 429 = 11
    Number of faces shared with processor 430 = 2059
    Number of faces shared with processor 431 = 14
    Number of faces shared with processor 50 = 10
    Number of faces shared with processor 202 = 10
    Number of faces shared with processor 124 = 40
    Number of faces shared with processor 125 = 9886
    Number of faces shared with processor 127 = 9838
    Number of processor patches = 9
    Number of processor faces = 21908
    Number of boundary faces = 2530

Processor 127
    Number of cells = 64523
    Number of points = 77546
    Number of faces shared with processor 128 = 9977
    Number of faces shared with processor 430 = 2
    Number of faces shared with processor 431 = 2064
    Number of faces shared with processor 432 = 12
    Number of faces shared with processor 126 = 9838
    Number of processor patches = 5
    Number of processor faces = 21893
    Number of boundary faces = 2511

Processor 128
    Number of cells = 64762
    Number of points = 77835
    Number of faces shared with processor 129 = 10027
    Number of faces shared with processor 130 = 10
    Number of faces shared with processor 131 = 30
    Number of faces shared with processor 431 = 4
    Number of faces shared with processor 432 = 2055
    Number of faces shared with processor 433 = 1
    Number of faces shared with processor 52 = 10
    Number of faces shared with processor 204 = 10
    Number of faces shared with processor 126 = 40
    Number of faces shared with processor 127 = 9977
    Number of processor patches = 10
    Number of processor faces = 22164
    Number of boundary faces = 2523

Processor 129
    Number of cells = 63421
    Number of points = 76317
    Number of faces shared with processor 128 = 10027
    Number of faces shared with processor 130 = 9866
    Number of faces shared with processor 432 = 2
    Number of faces shared with processor 433 = 2024
    Number of faces shared with processor 434 = 1
    Number of processor patches = 5
    Number of processor faces = 21920
    Number of boundary faces = 2478

Processor 130
    Number of cells = 65025
    Number of points = 78065
    Number of faces shared with processor 128 = 10
    Number of faces shared with processor 129 = 9866
    Number of faces shared with processor 131 = 9941
    Number of faces shared with processor 133 = 10
    Number of faces shared with processor 434 = 2086
    Number of faces shared with processor 435 = 2
    Number of faces shared with processor 54 = 10
    Number of processor patches = 7
    Number of processor faces = 21925
    Number of boundary faces = 2522

Processor 131
    Number of cells = 63680
    Number of points = 76745
    Number of faces shared with processor 128 = 30
    Number of faces shared with processor 130 = 9941
    Number of faces shared with processor 132 = 10088
    Number of faces shared with processor 133 = 30
    Number of faces shared with processor 435 = 2037
    Number of faces shared with processor 436 = 2
    Number of faces shared with processor 207 = 10
    Number of processor patches = 7
    Number of processor faces = 22138
    Number of boundary faces = 2456

Processor 132
    Number of cells = 65193
    Number of points = 78344
    Number of faces shared with processor 131 = 10088
    Number of faces shared with processor 133 = 10044
    Number of faces shared with processor 435 = 11
    Number of faces shared with processor 436 = 2049
    Number of faces shared with processor 437 = 3
    Number of processor patches = 5
    Number of processor faces = 22195
    Number of boundary faces = 2512

Processor 133
    Number of cells = 65634
    Number of points = 78719
    Number of faces shared with processor 130 = 10
    Number of faces shared with processor 131 = 30
    Number of faces shared with processor 132 = 10044
    Number of faces shared with processor 134 = 9887
    Number of faces shared with processor 135 = 40
    Number of faces shared with processor 436 = 10
    Number of faces shared with processor 437 = 2066
    Number of faces shared with processor 438 = 11
    Number of faces shared with processor 57 = 10
    Number of faces shared with processor 209 = 10
    Number of processor patches = 10
    Number of processor faces = 22118
    Number of boundary faces = 2532

Processor 134
    Number of cells = 65354
    Number of points = 78188
    Number of faces shared with processor 133 = 9887
    Number of faces shared with processor 135 = 10020
    Number of faces shared with processor 437 = 2
    Number of faces shared with processor 438 = 2066
    Number of faces shared with processor 439 = 13
    Number of processor patches = 5
    Number of processor faces = 21988
    Number of boundary faces = 2543

Processor 135
    Number of cells = 64874
    Number of points = 78008
    Number of faces shared with processor 133 = 40
    Number of faces shared with processor 134 = 10020
    Number of faces shared with processor 136 = 9971
    Number of faces shared with processor 137 = 105
    Number of faces shared with processor 438 = 3
    Number of faces shared with processor 439 = 2055
    Number of faces shared with processor 440 = 4
    Number of faces shared with processor 59 = 10
    Number of faces shared with processor 211 = 10
    Number of processor patches = 9
    Number of processor faces = 22218
    Number of boundary faces = 2527

Processor 136
    Number of cells = 63911
    Number of points = 76890
    Number of faces shared with processor 135 = 9971
    Number of faces shared with processor 137 = 9695
    Number of faces shared with processor 138 = 202
    Number of faces shared with processor 439 = 1
    Number of faces shared with processor 440 = 2030
    Number of faces shared with processor 441 = 2
    Number of processor patches = 6
    Number of processor faces = 21901
    Number of boundary faces = 2486

Processor 137
    Number of cells = 65635
    Number of points = 78429
    Number of faces shared with processor 135 = 105
    Number of faces shared with processor 136 = 9695
    Number of faces shared with processor 138 = 9649
    Number of faces shared with processor 139 = 129
    Number of faces shared with processor 441 = 2103
    Number of faces shared with processor 442 = 3
    Number of faces shared with processor 61 = 10
    Number of faces shared with processor 213 = 10
    Number of processor patches = 8
    Number of processor faces = 21704
    Number of boundary faces = 2555

Processor 138
    Number of cells = 62660
    Number of points = 75229
    Number of faces shared with processor 136 = 202
    Number of faces shared with processor 137 = 9649
    Number of faces shared with processor 139 = 9868
    Number of faces shared with processor 442 = 2004
    Number of faces shared with processor 443 = 4
    Number of processor patches = 5
    Number of processor faces = 21727
    Number of boundary faces = 2485

Processor 139
    Number of cells = 76088
    Number of points = 89351
    Number of faces shared with processor 137 = 129
    Number of faces shared with processor 138 = 9868
    Number of faces shared with processor 140 = 7357
    Number of faces shared with processor 442 = 12
    Number of faces shared with processor 443 = 2080
    Number of faces shared with processor 444 = 11
    Number of faces shared with processor 63 = 10
    Number of faces shared with processor 215 = 10
    Number of processor patches = 8
    Number of processor faces = 19477
    Number of boundary faces = 3706

Processor 140
    Number of cells = 108032
    Number of points = 121335
    Number of faces shared with processor 139 = 7357
    Number of faces shared with processor 141 = 7560
    Number of faces shared with processor 443 = 2
    Number of faces shared with processor 444 = 1928
    Number of faces shared with processor 64 = 10
    Number of faces shared with processor 216 = 10
    Number of processor patches = 6
    Number of processor faces = 16867
    Number of boundary faces = 6262

Processor 141
    Number of cells = 114203
    Number of points = 128930
    Number of faces shared with processor 140 = 7560
    Number of faces shared with processor 142 = 7428
    Number of faces shared with processor 445 = 2149
    Number of faces shared with processor 446 = 2
    Number of faces shared with processor 65 = 10
    Number of faces shared with processor 217 = 10
    Number of processor patches = 6
    Number of processor faces = 17159
    Number of boundary faces = 6547

Processor 142
    Number of cells = 114232
    Number of points = 128744
    Number of faces shared with processor 141 = 7428
    Number of faces shared with processor 143 = 7623
    Number of faces shared with processor 446 = 2157
    Number of faces shared with processor 66 = 10
    Number of faces shared with processor 218 = 10
    Number of processor patches = 5
    Number of processor faces = 17228
    Number of boundary faces = 6575

Processor 143
    Number of cells = 113333
    Number of points = 127415
    Number of faces shared with processor 142 = 7623
    Number of faces shared with processor 144 = 7892
    Number of faces shared with processor 447 = 2046
    Number of faces shared with processor 448 = 2
    Number of faces shared with processor 67 = 20
    Number of faces shared with processor 219 = 20
    Number of processor patches = 6
    Number of processor faces = 17603
    Number of boundary faces = 6605

Processor 144
    Number of cells = 114547
    Number of points = 129142
    Number of faces shared with processor 143 = 7892
    Number of faces shared with processor 145 = 7663
    Number of faces shared with processor 447 = 9
    Number of faces shared with processor 448 = 2066
    Number of faces shared with processor 449 = 3
    Number of faces shared with processor 68 = 10
    Number of faces shared with processor 220 = 10
    Number of processor patches = 7
    Number of processor faces = 17653
    Number of boundary faces = 6587

Processor 145
    Number of cells = 114307
    Number of points = 128861
    Number of faces shared with processor 144 = 7663
    Number of faces shared with processor 146 = 7437
    Number of faces shared with processor 448 = 7
    Number of faces shared with processor 449 = 2106
    Number of faces shared with processor 450 = 4
    Number of faces shared with processor 69 = 10
    Number of faces shared with processor 221 = 10
    Number of processor patches = 7
    Number of processor faces = 17237
    Number of boundary faces = 6536

Processor 146
    Number of cells = 113754
    Number of points = 127151
    Number of faces shared with processor 145 = 7437
    Number of faces shared with processor 147 = 7533
    Number of faces shared with processor 449 = 3
    Number of faces shared with processor 450 = 2141
    Number of faces shared with processor 451 = 2
    Number of faces shared with processor 70 = 10
    Number of faces shared with processor 222 = 10
    Number of processor patches = 7
    Number of processor faces = 17136
    Number of boundary faces = 6678

Processor 147
    Number of cells = 113192
    Number of points = 126533
    Number of faces shared with processor 146 = 7533
    Number of faces shared with processor 148 = 7844
    Number of faces shared with processor 450 = 3
    Number of faces shared with processor 451 = 2051
    Number of faces shared with processor 452 = 2
    Number of faces shared with processor 71 = 20
    Number of faces shared with processor 223 = 20
    Number of processor patches = 7
    Number of processor faces = 17473
    Number of boundary faces = 6674

Processor 148
    Number of cells = 113943
    Number of points = 127906
    Number of faces shared with processor 147 = 7844
    Number of faces shared with processor 149 = 7550
    Number of faces shared with processor 451 = 2
    Number of faces shared with processor 452 = 2058
    Number of faces shared with processor 453 = 1
    Number of faces shared with processor 72 = 10
    Number of faces shared with processor 224 = 10
    Number of processor patches = 7
    Number of processor faces = 17475
    Number of boundary faces = 6627

Processor 149
    Number of cells = 115234
    Number of points = 128853
    Number of faces shared with processor 148 = 7550
    Number of faces shared with processor 150 = 7476
    Number of faces shared with processor 453 = 2132
    Number of faces shared with processor 73 = 10
    Number of faces shared with processor 225 = 10
    Number of processor patches = 5
    Number of processor faces = 17178
    Number of boundary faces = 6785

Processor 150
    Number of cells = 130975
    Number of points = 144167
    Number of faces shared with processor 149 = 7476
    Number of faces shared with processor 151 = 7332
    Number of faces shared with processor 454 = 2484
    Number of faces shared with processor 455 = 2
    Number of faces shared with processor 74 = 10
    Number of faces shared with processor 226 = 10
    Number of processor patches = 6
    Number of processor faces = 17314
    Number of boundary faces = 7818

Processor 151
    Number of cells = 97814
    Number of points = 111618
    Number of faces shared with processor 150 = 7332
    Number of faces shared with processor 455 = 6200
    Number of faces shared with processor 75 = 390
    Number of faces shared with processor 227 = 390
    Number of processor patches = 4
    Number of processor faces = 14312
    Number of boundary faces = 7714

Processor 152
    Number of cells = 97055
    Number of points = 111322
    Number of faces shared with processor 153 = 7133
    Number of faces shared with processor 456 = 6788
    Number of faces shared with processor 76 = 560
    Number of faces shared with processor 228 = 560
    Number of processor patches = 4
    Number of processor faces = 15041
    Number of boundary faces = 7860

Processor 153
    Number of cells = 137128
    Number of points = 149974
    Number of faces shared with processor 152 = 7133
    Number of faces shared with processor 154 = 7996
    Number of faces shared with processor 457 = 2512
    Number of faces shared with processor 458 = 1
    Number of faces shared with processor 77 = 10
    Number of faces shared with processor 229 = 10
    Number of processor patches = 6
    Number of processor faces = 17662
    Number of boundary faces = 8060

Processor 154
    Number of cells = 109683
    Number of points = 124895
    Number of faces shared with processor 153 = 7996
    Number of faces shared with processor 155 = 9869
[...]
    in file db/dynamicLibrary/dlLibraryTable/dlLibraryTable.C at line 188
    Could not load "libpetscFoam.so"
libpetscFoam.so: cannot open shared object file: No such file or directory
Processor 545: field transfer
--> FOAM Warning : 
    From void* Foam::dlLibraryTable::openLibrary(const Foam::fileName&, bool)
    in file db/dynamicLibrary/dlLibraryTable/dlLibraryTable.C at line 188
    Could not load "libpetscFoam.so"
libpetscFoam.so: cannot open shared object file: No such file or directory
Processor 546: field transfer
--> FOAM Warning : 
    From void* Foam::dlLibraryTable::openLibrary(const Foam::fileName&, bool)
    in file db/dynamicLibrary/dlLibraryTable/dlLibraryTable.C at line 188
    Could not load "libpetscFoam.so"
libpetscFoam.so: cannot open shared object file: No such file or directory
Processor 547: field transfer
--> FOAM Warning : 
    From void* Foam::dlLibraryTable::openLibrary(const Foam::fileName&, bool)
    in file db/dynamicLibrary/dlLibraryTable/dlLibraryTable.C at line 188
    Could not load "libpetscFoam.so"
libpetscFoam.so: cannot open shared object file: No such file or directory
Processor 548: field transfer
--> FOAM Warning : 
    From void* Foam::dlLibraryTable::openLibrary(const Foam::fileName&, bool)
    in file db/dynamicLibrary/dlLibraryTable/dlLibraryTable.C at line 188
    Could not load "libpetscFoam.so"
libpetscFoam.so: cannot open shared object file: No such file or directory
Processor 549: field transfer
--> FOAM Warning : 
    From void* Foam::dlLibraryTable::openLibrary(const Foam::fileName&, bool)
    in file db/dynamicLibrary/dlLibraryTable/dlLibraryTable.C at line 188
    Could not load "libpetscFoam.so"
libpetscFoam.so: cannot open shared object file: No such file or directory
Processor 550: field transfer
--> FOAM Warning : 
    From void* Foam::dlLibraryTable::openLibrary(const Foam::fileName&, bool)
    in file db/dynamicLibrary/dlLibraryTable/dlLibraryTable.C at line 188
    Could not load "libpetscFoam.so"
libpetscFoam.so: cannot open shared object file: No such file or directory
Processor 551: field transfer
--> FOAM Warning : 
    From void* Foam::dlLibraryTable::openLibrary(const Foam::fileName&, bool)
    in file db/dynamicLibrary/dlLibraryTable/dlLibraryTable.C at line 188
    Could not load "libpetscFoam.so"
libpetscFoam.so: cannot open shared object file: No such file or directory
Processor 552: field transfer
--> FOAM Warning : 
    From void* Foam::dlLibraryTable::openLibrary(const Foam::fileName&, bool)
    in file db/dynamicLibrary/dlLibraryTable/dlLibraryTable.C at line 188
    Could not load "libpetscFoam.so"
libpetscFoam.so: cannot open shared object file: No such file or directory
Processor 553: field transfer
--> FOAM Warning : 
    From void* Foam::dlLibraryTable::openLibrary(const Foam::fileName&, bool)
    in file db/dynamicLibrary/dlLibraryTable/dlLibraryTable.C at line 188
    Could not load "libpetscFoam.so"
libpetscFoam.so: cannot open shared object file: No such file or directory
Processor 554: field transfer
--> FOAM Warning : 
    From void* Foam::dlLibraryTable::openLibrary(const Foam::fileName&, bool)
    in file db/dynamicLibrary/dlLibraryTable/dlLibraryTable.C at line 188
    Could not load "libpetscFoam.so"
libpetscFoam.so: cannot open shared object file: No such file or directory
Processor 555: field transfer
--> FOAM Warning : 
    From void* Foam::dlLibraryTable::openLibrary(const Foam::fileName&, bool)
    in file db/dynamicLibrary/dlLibraryTable/dlLibraryTable.C at line 188
    Could not load "libpetscFoam.so"
libpetscFoam.so: cannot open shared object file: No such file or directory
Processor 556: field transfer
--> FOAM Warning : 
    From void* Foam::dlLibraryTable::openLibrary(const Foam::fileName&, bool)
    in file db/dynamicLibrary/dlLibraryTable/dlLibraryTable.C at line 188
    Could not load "libpetscFoam.so"
libpetscFoam.so: cannot open shared object file: No such file or directory
Processor 557: field transfer
--> FOAM Warning : 
    From void* Foam::dlLibraryTable::openLibrary(const Foam::fileName&, bool)
    in file db/dynamicLibrary/dlLibraryTable/dlLibraryTable.C at line 188
    Could not load "libpetscFoam.so"
libpetscFoam.so: cannot open shared object file: No such file or directory
Processor 558: field transfer
--> FOAM Warning : 
    From void* Foam::dlLibraryTable::openLibrary(const Foam::fileName&, bool)
    in file db/dynamicLibrary/dlLibraryTable/dlLibraryTable.C at line 188
    Could not load "libpetscFoam.so"
libpetscFoam.so: cannot open shared object file: No such file or directory
Processor 559: field transfer
--> FOAM Warning : 
    From void* Foam::dlLibraryTable::openLibrary(const Foam::fileName&, bool)
    in file db/dynamicLibrary/dlLibraryTable/dlLibraryTable.C at line 188
    Could not load "libpetscFoam.so"
libpetscFoam.so: cannot open shared object file: No such file or directory
Processor 560: field transfer
--> FOAM Warning : 
    From void* Foam::dlLibraryTable::openLibrary(const Foam::fileName&, bool)
    in file db/dynamicLibrary/dlLibraryTable/dlLibraryTable.C at line 188
    Could not load "libpetscFoam.so"
libpetscFoam.so: cannot open shared object file: No such file or directory
Processor 561: field transfer
--> FOAM Warning : 
    From void* Foam::dlLibraryTable::openLibrary(const Foam::fileName&, bool)
    in file db/dynamicLibrary/dlLibraryTable/dlLibraryTable.C at line 188
    Could not load "libpetscFoam.so"
libpetscFoam.so: cannot open shared object file: No such file or directory
Processor 562: field transfer
--> FOAM Warning : 
    From void* Foam::dlLibraryTable::openLibrary(const Foam::fileName&, bool)
    in file db/dynamicLibrary/dlLibraryTable/dlLibraryTable.C at line 188
    Could not load "libpetscFoam.so"
libpetscFoam.so: cannot open shared object file: No such file or directory
Processor 563: field transfer
--> FOAM Warning : 
    From void* Foam::dlLibraryTable::openLibrary(const Foam::fileName&, bool)
    in file db/dynamicLibrary/dlLibraryTable/dlLibraryTable.C at line 188
    Could not load "libpetscFoam.so"
libpetscFoam.so: cannot open shared object file: No such file or directory
Processor 564: field transfer
--> FOAM Warning : 
    From void* Foam::dlLibraryTable::openLibrary(const Foam::fileName&, bool)
    in file db/dynamicLibrary/dlLibraryTable/dlLibraryTable.C at line 188
    Could not load "libpetscFoam.so"
libpetscFoam.so: cannot open shared object file: No such file or directory
Processor 565: field transfer
--> FOAM Warning : 
    From void* Foam::dlLibraryTable::openLibrary(const Foam::fileName&, bool)
    in file db/dynamicLibrary/dlLibraryTable/dlLibraryTable.C at line 188
    Could not load "libpetscFoam.so"
libpetscFoam.so: cannot open shared object file: No such file or directory
Processor 566: field transfer
--> FOAM Warning : 
    From void* Foam::dlLibraryTable::openLibrary(const Foam::fileName&, bool)
    in file db/dynamicLibrary/dlLibraryTable/dlLibraryTable.C at line 188
    Could not load "libpetscFoam.so"
libpetscFoam.so: cannot open shared object file: No such file or directory
Processor 567: field transfer
--> FOAM Warning : 
    From void* Foam::dlLibraryTable::openLibrary(const Foam::fileName&, bool)
    in file db/dynamicLibrary/dlLibraryTable/dlLibraryTable.C at line 188
    Could not load "libpetscFoam.so"
libpetscFoam.so: cannot open shared object file: No such file or directory
Processor 568: field transfer
--> FOAM Warning : 
    From void* Foam::dlLibraryTable::openLibrary(const Foam::fileName&, bool)
    in file db/dynamicLibrary/dlLibraryTable/dlLibraryTable.C at line 188
    Could not load "libpetscFoam.so"
libpetscFoam.so: cannot open shared object file: No such file or directory
Processor 569: field transfer
--> FOAM Warning : 
    From void* Foam::dlLibraryTable::openLibrary(const Foam::fileName&, bool)
    in file db/dynamicLibrary/dlLibraryTable/dlLibraryTable.C at line 188
    Could not load "libpetscFoam.so"
libpetscFoam.so: cannot open shared object file: No such file or directory
Processor 570: field transfer
--> FOAM Warning : 
    From void* Foam::dlLibraryTable::openLibrary(const Foam::fileName&, bool)
    in file db/dynamicLibrary/dlLibraryTable/dlLibraryTable.C at line 188
    Could not load "libpetscFoam.so"
libpetscFoam.so: cannot open shared object file: No such file or directory
Processor 571: field transfer
--> FOAM Warning : 
    From void* Foam::dlLibraryTable::openLibrary(const Foam::fileName&, bool)
    in file db/dynamicLibrary/dlLibraryTable/dlLibraryTable.C at line 188
    Could not load "libpetscFoam.so"
libpetscFoam.so: cannot open shared object file: No such file or directory
Processor 572: field transfer
--> FOAM Warning : 
    From void* Foam::dlLibraryTable::openLibrary(const Foam::fileName&, bool)
    in file db/dynamicLibrary/dlLibraryTable/dlLibraryTable.C at line 188
    Could not load "libpetscFoam.so"
libpetscFoam.so: cannot open shared object file: No such file or directory
Processor 573: field transfer
--> FOAM Warning : 
    From void* Foam::dlLibraryTable::openLibrary(const Foam::fileName&, bool)
    in file db/dynamicLibrary/dlLibraryTable/dlLibraryTable.C at line 188
    Could not load "libpetscFoam.so"
libpetscFoam.so: cannot open shared object file: No such file or directory
Processor 574: field transfer
--> FOAM Warning : 
    From void* Foam::dlLibraryTable::openLibrary(const Foam::fileName&, bool)
    in file db/dynamicLibrary/dlLibraryTable/dlLibraryTable.C at line 188
    Could not load "libpetscFoam.so"
libpetscFoam.so: cannot open shared object file: No such file or directory
Processor 575: field transfer
--> FOAM Warning : 
    From void* Foam::dlLibraryTable::openLibrary(const Foam::fileName&, bool)
    in file db/dynamicLibrary/dlLibraryTable/dlLibraryTable.C at line 188
    Could not load "libpetscFoam.so"
libpetscFoam.so: cannot open shared object file: No such file or directory
Processor 576: field transfer
--> FOAM Warning : 
    From void* Foam::dlLibraryTable::openLibrary(const Foam::fileName&, bool)
    in file db/dynamicLibrary/dlLibraryTable/dlLibraryTable.C at line 188
    Could not load "libpetscFoam.so"
libpetscFoam.so: cannot open shared object file: No such file or directory
Processor 577: field transfer
--> FOAM Warning : 
    From void* Foam::dlLibraryTable::openLibrary(const Foam::fileName&, bool)
    in file db/dynamicLibrary/dlLibraryTable/dlLibraryTable.C at line 188
    Could not load "libpetscFoam.so"
libpetscFoam.so: cannot open shared object file: No such file or directory
Processor 578: field transfer
--> FOAM Warning : 
    From void* Foam::dlLibraryTable::openLibrary(const Foam::fileName&, bool)
    in file db/dynamicLibrary/dlLibraryTable/dlLibraryTable.C at line 188
    Could not load "libpetscFoam.so"
libpetscFoam.so: cannot open shared object file: No such file or directory
Processor 579: field transfer
--> FOAM Warning : 
    From void* Foam::dlLibraryTable::openLibrary(const Foam::fileName&, bool)
    in file db/dynamicLibrary/dlLibraryTable/dlLibraryTable.C at line 188
    Could not load "libpetscFoam.so"
libpetscFoam.so: cannot open shared object file: No such file or directory
Processor 580: field transfer
--> FOAM Warning : 
    From void* Foam::dlLibraryTable::openLibrary(const Foam::fileName&, bool)
    in file db/dynamicLibrary/dlLibraryTable/dlLibraryTable.C at line 188
    Could not load "libpetscFoam.so"
libpetscFoam.so: cannot open shared object file: No such file or directory
Processor 581: field transfer
--> FOAM Warning : 
    From void* Foam::dlLibraryTable::openLibrary(const Foam::fileName&, bool)
    in file db/dynamicLibrary/dlLibraryTable/dlLibraryTable.C at line 188
    Could not load "libpetscFoam.so"
libpetscFoam.so: cannot open shared object file: No such file or directory
Processor 582: field transfer
--> FOAM Warning : 
    From void* Foam::dlLibraryTable::openLibrary(const Foam::fileName&, bool)
    in file db/dynamicLibrary/dlLibraryTable/dlLibraryTable.C at line 188
    Could not load "libpetscFoam.so"
libpetscFoam.so: cannot open shared object file: No such file or directory
Processor 583: field transfer
--> FOAM Warning : 
    From void* Foam::dlLibraryTable::openLibrary(const Foam::fileName&, bool)
    in file db/dynamicLibrary/dlLibraryTable/dlLibraryTable.C at line 188
    Could not load "libpetscFoam.so"
libpetscFoam.so: cannot open shared object file: No such file or directory
Processor 584: field transfer
--> FOAM Warning : 
    From void* Foam::dlLibraryTable::openLibrary(const Foam::fileName&, bool)
    in file db/dynamicLibrary/dlLibraryTable/dlLibraryTable.C at line 188
    Could not load "libpetscFoam.so"
libpetscFoam.so: cannot open shared object file: No such file or directory
Processor 585: field transfer
--> FOAM Warning : 
    From void* Foam::dlLibraryTable::openLibrary(const Foam::fileName&, bool)
    in file db/dynamicLibrary/dlLibraryTable/dlLibraryTable.C at line 188
    Could not load "libpetscFoam.so"
libpetscFoam.so: cannot open shared object file: No such file or directory
Processor 586: field transfer
--> FOAM Warning : 
    From void* Foam::dlLibraryTable::openLibrary(const Foam::fileName&, bool)
    in file db/dynamicLibrary/dlLibraryTable/dlLibraryTable.C at line 188
    Could not load "libpetscFoam.so"
libpetscFoam.so: cannot open shared object file: No such file or directory
Processor 587: field transfer
--> FOAM Warning : 
    From void* Foam::dlLibraryTable::openLibrary(const Foam::fileName&, bool)
    in file db/dynamicLibrary/dlLibraryTable/dlLibraryTable.C at line 188
    Could not load "libpetscFoam.so"
libpetscFoam.so: cannot open shared object file: No such file or directory
Processor 588: field transfer
--> FOAM Warning : 
    From void* Foam::dlLibraryTable::openLibrary(const Foam::fileName&, bool)
    in file db/dynamicLibrary/dlLibraryTable/dlLibraryTable.C at line 188
    Could not load "libpetscFoam.so"
libpetscFoam.so: cannot open shared object file: No such file or directory
Processor 589: field transfer
--> FOAM Warning : 
    From void* Foam::dlLibraryTable::openLibrary(const Foam::fileName&, bool)
    in file db/dynamicLibrary/dlLibraryTable/dlLibraryTable.C at line 188
    Could not load "libpetscFoam.so"
libpetscFoam.so: cannot open shared object file: No such file or directory
Processor 590: field transfer
--> FOAM Warning : 
    From void* Foam::dlLibraryTable::openLibrary(const Foam::fileName&, bool)
    in file db/dynamicLibrary/dlLibraryTable/dlLibraryTable.C at line 188
    Could not load "libpetscFoam.so"
libpetscFoam.so: cannot open shared object file: No such file or directory
Processor 591: field transfer
--> FOAM Warning : 
    From void* Foam::dlLibraryTable::openLibrary(const Foam::fileName&, bool)
    in file db/dynamicLibrary/dlLibraryTable/dlLibraryTable.C at line 188
    Could not load "libpetscFoam.so"
libpetscFoam.so: cannot open shared object file: No such file or directory
Processor 592: field transfer
--> FOAM Warning : 
    From void* Foam::dlLibraryTable::openLibrary(const Foam::fileName&, bool)
    in file db/dynamicLibrary/dlLibraryTable/dlLibraryTable.C at line 188
    Could not load "libpetscFoam.so"
libpetscFoam.so: cannot open shared object file: No such file or directory
Processor 593: field transfer
--> FOAM Warning : 
    From void* Foam::dlLibraryTable::openLibrary(const Foam::fileName&, bool)
    in file db/dynamicLibrary/dlLibraryTable/dlLibraryTable.C at line 188
    Could not load "libpetscFoam.so"
libpetscFoam.so: cannot open shared object file: No such file or directory
Processor 594: field transfer
--> FOAM Warning : 
    From void* Foam::dlLibraryTable::openLibrary(const Foam::fileName&, bool)
    in file db/dynamicLibrary/dlLibraryTable/dlLibraryTable.C at line 188
    Could not load "libpetscFoam.so"
libpetscFoam.so: cannot open shared object file: No such file or directory
Processor 595: field transfer
--> FOAM Warning : 
    From void* Foam::dlLibraryTable::openLibrary(const Foam::fileName&, bool)
    in file db/dynamicLibrary/dlLibraryTable/dlLibraryTable.C at line 188
    Could not load "libpetscFoam.so"
libpetscFoam.so: cannot open shared object file: No such file or directory
Processor 596: field transfer
--> FOAM Warning : 
    From void* Foam::dlLibraryTable::openLibrary(const Foam::fileName&, bool)
    in file db/dynamicLibrary/dlLibraryTable/dlLibraryTable.C at line 188
    Could not load "libpetscFoam.so"
libpetscFoam.so: cannot open shared object file: No such file or directory
Processor 597: field transfer
--> FOAM Warning : 
    From void* Foam::dlLibraryTable::openLibrary(const Foam::fileName&, bool)
    in file db/dynamicLibrary/dlLibraryTable/dlLibraryTable.C at line 188
    Could not load "libpetscFoam.so"
libpetscFoam.so: cannot open shared object file: No such file or directory
Processor 598: field transfer
--> FOAM Warning : 
    From void* Foam::dlLibraryTable::openLibrary(const Foam::fileName&, bool)
    in file db/dynamicLibrary/dlLibraryTable/dlLibraryTable.C at line 188
    Could not load "libpetscFoam.so"
libpetscFoam.so: cannot open shared object file: No such file or directory
Processor 599: field transfer
--> FOAM Warning : 
    From void* Foam::dlLibraryTable::openLibrary(const Foam::fileName&, bool)
    in file db/dynamicLibrary/dlLibraryTable/dlLibraryTable.C at line 188
    Could not load "libpetscFoam.so"
libpetscFoam.so: cannot open shared object file: No such file or directory
Processor 600: field transfer
--> FOAM Warning : 
    From void* Foam::dlLibraryTable::openLibrary(const Foam::fileName&, bool)
    in file db/dynamicLibrary/dlLibraryTable/dlLibraryTable.C at line 188
    Could not load "libpetscFoam.so"
libpetscFoam.so: cannot open shared object file: No such file or directory
Processor 601: field transfer
--> FOAM Warning : 
    From void* Foam::dlLibraryTable::openLibrary(const Foam::fileName&, bool)
    in file db/dynamicLibrary/dlLibraryTable/dlLibraryTable.C at line 188
    Could not load "libpetscFoam.so"
libpetscFoam.so: cannot open shared object file: No such file or directory
Processor 602: field transfer
--> FOAM Warning : 
    From void* Foam::dlLibraryTable::openLibrary(const Foam::fileName&, bool)
    in file db/dynamicLibrary/dlLibraryTable/dlLibraryTable.C at line 188
    Could not load "libpetscFoam.so"
libpetscFoam.so: cannot open shared object file: No such file or directory
Processor 603: field transfer
--> FOAM Warning : 
    From void* Foam::dlLibraryTable::openLibrary(const Foam::fileName&, bool)
    in file db/dynamicLibrary/dlLibraryTable/dlLibraryTable.C at line 188
    Could not load "libpetscFoam.so"
libpetscFoam.so: cannot open shared object file: No such file or directory
Processor 604: field transfer
--> FOAM Warning : 
    From void* Foam::dlLibraryTable::openLibrary(const Foam::fileName&, bool)
    in file db/dynamicLibrary/dlLibraryTable/dlLibraryTable.C at line 188
    Could not load "libpetscFoam.so"
libpetscFoam.so: cannot open shared object file: No such file or directory
Processor 605: field transfer
--> FOAM Warning : 
    From void* Foam::dlLibraryTable::openLibrary(const Foam::fileName&, bool)
    in file db/dynamicLibrary/dlLibraryTable/dlLibraryTable.C at line 188
    Could not load "libpetscFoam.so"
libpetscFoam.so: cannot open shared object file: No such file or directory
Processor 606: field transfer
--> FOAM Warning : 
    From void* Foam::dlLibraryTable::openLibrary(const Foam::fileName&, bool)
    in file db/dynamicLibrary/dlLibraryTable/dlLibraryTable.C at line 188
    Could not load "libpetscFoam.so"
libpetscFoam.so: cannot open shared object file: No such file or directory
Processor 607: field transfer
--> FOAM Warning : 
    From void* Foam::dlLibraryTable::openLibrary(const Foam::fileName&, bool)
    in file db/dynamicLibrary/dlLibraryTable/dlLibraryTable.C at line 188
    Could not load "libpetscFoam.so"
libpetscFoam.so: cannot open shared object file: No such file or directory

End

