/*---------------------------------------------------------------------------*\
| =========                 |                                                 |
| \\      /  F ield         | OpenFOAM: The Open Source CFD Toolbox           |
|  \\    /   O peration     | Version:  2306                                  |
|   \\  /    A nd           | Website:  www.openfoam.com                      |
|    \\/     M anipulation  |                                                 |
\*---------------------------------------------------------------------------*/
Build  : a6e826bd55-20230630 OPENFOAM=2306 version=v2306
Arch   : "LSB;label=32;scalar=64"
Exec   : simpleFoam -parallel -case /home/greole/data/code/exasim_project/micro_benchmarks/WindsorBody/workspace/2502a29b1f8ad1c842fae4667becf6dd/case
Date   : Aug 27 2023
Time   : 14:12:52
Host   : nla-gpu2.ianm.kit.edu
PID    : 3068706
I/O    : uncollated
Case   : /home/greole/data/code/exasim_project/micro_benchmarks/WindsorBody/workspace/2502a29b1f8ad1c842fae4667becf6dd/case
nProcs : 8
Hosts  :
(
    (nla-gpu2.ianm.kit.edu 8)
)
Pstream initialized with:
    floatTransfer      : false
    nProcsSimpleSum    : 0
    nonBlockingExchange: 0 (tuning: 0)
    exchange algorithm : -1
    commsType          : nonBlocking
    polling iterations : 0
trapFpe: Floating point exception trapping enabled (FOAM_SIGFPE).
fileModificationChecking : Monitoring run-time modified files using timeStampMaster (fileModificationSkew 5, maxFileModificationPolls 20)
allowSystemOperations : Allowing user-supplied system call operations

// * * * * * * * * * * * * * * * * * * * * * * * * * * * * * * * * * * * * * //
Create time

--> FOAM Warning : 
    From void* Foam::dlLibraryTable::openLibrary(const Foam::fileName&, bool)
    in file db/dynamicLibrary/dlLibraryTable/dlLibraryTable.C at line 188
    Could not load "libpetscFoam.so"
libpetscFoam.so: cannot open shared object file: No such file or directory
Create mesh for time = 0


SIMPLE: convergence criteria
    field p	 tolerance 1e-08
    field U	 tolerance 1e-08
    field k	 tolerance 1e-08
    field omega	 tolerance 1e-08
    field nuTilda	 tolerance 1e-08

Reading field p

Reading field U

Reading/calculating face flux field phi

Selecting incompressible transport model Newtonian
Selecting turbulence model type RAS
Selecting RAS turbulence model SpalartAllmaras
Selecting patchDistMethod meshWave
ft2 term: inactive
RAS
{
    RASModel        SpalartAllmaras;
    turbulence      on;
    printCoeffs     on;
    sigmaNut        0.66666;
    kappa           0.41;
    Cb1             0.1355;
    Cb2             0.622;
    Cw2             0.3;
    Cw3             2;
    Cv1             7.1;
    Cs              0.3;
    ck              0.07000000000000001;
    ft2             false;
    Ct3             1.2;
    Ct4             0.5;
}

No MRF models present

Creating finite volume options from "system/fvOptions"

Selecting finite volume options type velocityDampingConstraint
    Source: velocityDamping
    - selecting all cells
    - selected 6307136 cell(s) with volume 27.82583051606852

Starting time loop

--> FOAM Warning : 
    From bool Foam::functionObjectList::read()
    in file db/functionObjects/functionObjectList/functionObjectList.C at line 1035
    Reading "system/controlDict" at line 2 to 41
    Entry 'lref' is not a dictionary
--> FOAM Warning : 
    From bool Foam::functionObjectList::read()
    in file db/functionObjects/functionObjectList/functionObjectList.C at line 1035
    Reading "system/controlDict" at line 2 to 41
    Entry 'Aref' is not a dictionary
--> FOAM Warning : 
    From bool Foam::functionObjectList::read()
    in file db/functionObjects/functionObjectList/functionObjectList.C at line 1035
    Reading "system/controlDict" at line 2 to 41
    Entry 'yawAngle' is not a dictionary
--> FOAM Warning : 
    From bool Foam::functionObjectList::read()
    in file db/functionObjects/functionObjectList/functionObjectList.C at line 1035
    Reading "system/controlDict" at line 2 to 41
    Entry 'lDomain' is not a dictionary
--> FOAM Warning : 
    From bool Foam::functionObjectList::read()
    in file db/functionObjects/functionObjectList/functionObjectList.C at line 1035
    Reading "system/controlDict" at line 2 to 41
    Entry 'bDomain' is not a dictionary
--> FOAM Warning : 
    From bool Foam::functionObjectList::read()
    in file db/functionObjects/functionObjectList/functionObjectList.C at line 1035
    Reading "system/controlDict" at line 2 to 41
    Entry 'hDomain' is not a dictionary
--> FOAM Warning : 
    From bool Foam::functionObjectList::read()
    in file db/functionObjects/functionObjectList/functionObjectList.C at line 1035
    Reading "system/controlDict" at line 2 to 41
    Entry 'xCenter' is not a dictionary
--> FOAM Warning : 
    From bool Foam::functionObjectList::read()
    in file db/functionObjects/functionObjectList/functionObjectList.C at line 1035
    Reading "system/controlDict" at line 2 to 41
    Entry 'yCenter' is not a dictionary
--> FOAM Warning : 
    From bool Foam::functionObjectList::read()
    in file db/functionObjects/functionObjectList/functionObjectList.C at line 1035
    Reading "system/controlDict" at line 2 to 41
    Entry 'zCenter' is not a dictionary
--> FOAM Warning : 
    From bool Foam::functionObjectList::read()
    in file db/functionObjects/functionObjectList/functionObjectList.C at line 1035
    Reading "system/controlDict" at line 2 to 41
    Entry 'inletPatch' is not a dictionary
--> FOAM Warning : 
    From bool Foam::functionObjectList::read()
    in file db/functionObjects/functionObjectList/functionObjectList.C at line 1035
    Reading "system/controlDict" at line 2 to 41
    Entry 'outletPatch' is not a dictionary
--> FOAM Warning : 
    From bool Foam::functionObjectList::read()
    in file db/functionObjects/functionObjectList/functionObjectList.C at line 1035
    Reading "system/controlDict" at line 2 to 41
    Entry 'wallPatches' is not a dictionary
--> FOAM Warning : 
    From bool Foam::functionObjectList::read()
    in file db/functionObjects/functionObjectList/functionObjectList.C at line 1035
    Reading "system/controlDict" at line 2 to 41
    Entry 'forcesWallPatches' is not a dictionary
--> FOAM Warning : 
    From bool Foam::functionObjectList::read()
    in file db/functionObjects/functionObjectList/functionObjectList.C at line 1035
    Reading "system/controlDict" at line 2 to 41
    Entry 'symmPatches' is not a dictionary
--> FOAM Warning : 
    From bool Foam::functionObjectList::read()
    in file db/functionObjects/functionObjectList/functionObjectList.C at line 1035
    Reading "system/controlDict" at line 2 to 41
    Entry 'Uinf' is not a dictionary
--> FOAM Warning : 
    From bool Foam::functionObjectList::read()
    in file db/functionObjects/functionObjectList/functionObjectList.C at line 1035
    Reading "system/controlDict" at line 2 to 41
    Entry 'UinfMag' is not a dictionary
--> FOAM Warning : 
    From bool Foam::functionObjectList::read()
    in file db/functionObjects/functionObjectList/functionObjectList.C at line 1035
    Reading "system/controlDict" at line 2 to 41
    Entry 'nu' is not a dictionary
--> FOAM Warning : 
    From bool Foam::functionObjectList::read()
    in file db/functionObjects/functionObjectList/functionObjectList.C at line 1035
    Reading "system/controlDict" at line 2 to 41
    Entry 'pref' is not a dictionary
--> FOAM Warning : 
    From bool Foam::functionObjectList::read()
    in file db/functionObjects/functionObjectList/functionObjectList.C at line 1035
    Reading "system/controlDict" at line 2 to 41
    Entry 'viscRatio' is not a dictionary
--> FOAM Warning : 
    From bool Foam::functionObjectList::read()
    in file db/functionObjects/functionObjectList/functionObjectList.C at line 1035
    Reading "system/controlDict" at line 2 to 41
    Entry 'Tu' is not a dictionary
--> FOAM Warning : 
    From bool Foam::functionObjectList::read()
    in file db/functionObjects/functionObjectList/functionObjectList.C at line 1035
    Reading "system/controlDict" at line 2 to 41
    Entry 'LESturbModel' is not a dictionary
--> FOAM Warning : 
    From bool Foam::functionObjectList::read()
    in file db/functionObjects/functionObjectList/functionObjectList.C at line 1035
    Reading "system/controlDict" at line 2 to 41
    Entry 'RASturbModel' is not a dictionary
--> FOAM Warning : 
    From bool Foam::functionObjectList::read()
    in file db/functionObjects/functionObjectList/functionObjectList.C at line 1035
    Reading "system/controlDict" at line 2 to 41
    Entry 'deltaTurb' is not a dictionary
--> FOAM Warning : 
    From bool Foam::functionObjectList::read()
    in file db/functionObjects/functionObjectList/functionObjectList.C at line 1035
    Reading "system/controlDict" at line 2 to 41
    Entry 'dt' is not a dictionary
--> FOAM Warning : 
    From bool Foam::functionObjectList::read()
    in file db/functionObjects/functionObjectList/functionObjectList.C at line 1035
    Reading "system/controlDict" at line 2 to 41
    Entry 'tAvg' is not a dictionary
--> FOAM Warning : 
    From bool Foam::functionObjectList::read()
    in file db/functionObjects/functionObjectList/functionObjectList.C at line 1035
    Reading "system/controlDict" at line 2 to 41
    Entry 'tEnd' is not a dictionary
--> FOAM Warning : 
    From bool Foam::functionObjectList::read()
    in file db/functionObjects/functionObjectList/functionObjectList.C at line 1035
    Reading "system/controlDict" at line 2 to 41
    Entry 'writeInterval_' is not a dictionary
--> FOAM Warning : 
    From bool Foam::functionObjectList::read()
    in file db/functionObjects/functionObjectList/functionObjectList.C at line 1035
    Reading "system/controlDict" at line 2 to 41
    Entry 'nCores' is not a dictionary
--> FOAM Warning : 
    From bool Foam::functionObjectList::read()
    in file db/functionObjects/functionObjectList/functionObjectList.C at line 1035
    Reading "system/controlDict" at line 2 to 41
    Entry 'interpScheme' is not a dictionary
--> FOAM Warning : 
    From bool Foam::functionObjectList::read()
    in file db/functionObjects/functionObjectList/functionObjectList.C at line 1035
    Reading "system/controlDict" at line 2 to 41
    Entry 'probeField' is not a dictionary
wallShearStress wallShearStress:
    processing wall patches: 
        Windsor_Body
        CFDWT_Floor
        Windsor_Pins
        Windsor_Base

pressure calc_cp:
    Operating mode: staticCoeff
    Not including hydrostatic effects

forceCoeffs forceCoeffsAll:
    rho: rhoInf
    Freestream density (rhoInf) set to 1
    Not including porosity effects
    magUInf: 40
    lRef   : 0.6375
    Aref   : 0.1124
    rhoInf : 1
    Selecting all coefficients
    - Drag force: Cd
    - Drag force front: Cd(f)
    - Drag force rear: Cd(r)
    - Lift force: Cl
    - Lift force front: Cl(f)
    - Lift force rear: Cl(r)
    - Pitch moment: CmPitch
    - Roll moment: CmRoll
    - Yaw moment: CmYaw
    - Side force: Cs
    - Side force front: Cs(f)
    - Side force rear: Cs(r)


forceCoeffs dragCoeffBase:
    rho: rhoInf
    Freestream density (rhoInf) set to 1
    Not including porosity effects
    magUInf: 40
    lRef   : 0.6375
    Aref   : 0.1124
    rhoInf : 1
    Selecting coefficients:
    - Drag force: Cd


--> FOAM Warning : 
    From virtual void Foam::probes::findElements(const Foam::fvMesh&)
    in file probes/probes.C at line 249
    Location (-2 0 1.3) seems to be on multiple domains: cell 382251 on my domain 0 and cell 560069 on some other domain.
This might happen if the probe location is on a processor patch. Change the location slightly to prevent this.
--> FOAM Warning : 
    From virtual void Foam::probes::findElements(const Foam::fvMesh&)
    in file probes/probes.C at line 263
    Location (-2 0 1.3) seems to be on multiple domains: cell 1138605 on my domain 0 and face 2399942 on some other domain.
This might happen if the probe location is on a processor patch. Change the location slightly to prevent this.
Time = 1

velocityDampingConstraint velocityDamping damped 0 (0%) of cells, with max limit 300
[INFO] MatrixAssemblyU: 874.861 [ms]
[OGL LOG][lduLduBase.H:119] Initialising OGL
	OGL commit:  4647ee1+
	Branch: PersistentDeviceIdGuard 
	Build type: Release
	Ginkgo version: 1.5.0 ( develop)
	Ginkgo commit: 4292ffdee
	MPI is GPU aware: 1
	Forces host buffer based communication: 0
	CPU ranks per GPU: 1
	Matrix format: Coo
	End OGL_INFO
[OGL LOG][Proc: 0]: global_index_init: 0.06900000000000001 [ms]
[OGL LOG][Proc: 0]Ux_local_cols: call_init: 0.045 [ms]
[OGL LOG][Proc: 0]Ux_local_rows: call_init: 0.004 [ms]
[OGL LOG][Proc: 0]Ux_local_ldu_map: call_init: 0.004 [ms]
[OGL LOG][Proc: 0]Ux_local_coeffs: call_init: 0.013 [ms]
[OGL LOG][Proc: 0]Ux_non_local_cols: call_init: 0.004 [ms]
[OGL LOG][Proc: 0]Ux_non_local_rows: call_init: 0.003 [ms]
[OGL LOG][Proc: 0]Ux_non_local_ldu_map: call_init: 0.003 [ms]
[OGL LOG][Proc: 0]Ux_non_local_coeffs: call_init: 0.004 [ms]
[OGL LOG][Proc: 0]Ux: init_local_sparsity_pattern: 130.718 [ms]
[OGL LOG][Proc: 0]Ux: init_non_local_sparsity_pattern: 24.179 [ms]
[OGL LOG][Proc: 0]Ux: update_local_matrix_data: 15.644 [ms]
[OGL LOG][Proc: 0]Ux: update_non_local_matrix_data: 0.104 [ms]
[OGL LOG][Proc: 0]device_partition: call_init: 0.316 [ms]
[OGL LOG][Proc: 0]Ux_matrix: call_init: 74.67400000000001 [ms]
[OGL LOG][Proc: 0]Ux_rhs: call_init: 7.269 [ms]
[OGL LOG][Proc: 0]Ux_solution: call_init: 0.841 [ms]
[OGL LOG][Preconditioner.H:121] Generate preconditioner BJ MaxBlockSize 1
[OGL LOG][Proc: 0]Ux: init_precond: 4.62 [ms]
[OGL LOG][StoppingCriterion.H:373] Creating stopping criterion with minIter 0 frequency 1
[OGL LOG][Proc: 0]Ux: generate_solver: 0.014 [ms]
[OGL LOG][Proc: 0]Ux: solve: 1323.617 [ms]
[OGL LOG][Proc: 0]Ux: copy_x_back: 2.096 [ms]
[OGL LOG][lduLduBase.H:336] 
Statistics:
	Time per iteration: 55150 [mu s]
	Time per residual norm calculation: 1185.000000 [mu s]
	Time per iteration and DOF: 8.744064 [ns]
	Retrieve results bandwidth 3.002000 [GByte/s]
[OGL LOG][Proc: 0]Ux: solve_multi_gpu: 1414.642 [ms]
BJhipGKOBiCGStab:  Solving for Ux, Initial residual = 1.000000000000421, Final residual = 0.05874869458735557, No Iterations 24
[OGL LOG][lduLduBase.H:119] Initialising OGL
	OGL commit:  4647ee1+
	Branch: PersistentDeviceIdGuard 
	Build type: Release
	Ginkgo version: 1.5.0 ( develop)
	Ginkgo commit: 4292ffdee
	MPI is GPU aware: 1
	Forces host buffer based communication: 0
	CPU ranks per GPU: 1
	Matrix format: Coo
	End OGL_INFO
[OGL LOG][Proc: 0]: global_index_init: 0.537 [ms]
[OGL LOG][Proc: 0]Uy_local_cols: call_init: 0.008 [ms]
[OGL LOG][Proc: 0]Uy_local_rows: call_init: 0.004 [ms]
[OGL LOG][Proc: 0]Uy_local_ldu_map: call_init: 0.004 [ms]
[OGL LOG][Proc: 0]Uy_local_coeffs: call_init: 0.005 [ms]
[OGL LOG][Proc: 0]Uy_non_local_cols: call_init: 0.004 [ms]
[OGL LOG][Proc: 0]Uy_non_local_rows: call_init: 0.003 [ms]
[OGL LOG][Proc: 0]Uy_non_local_ldu_map: call_init: 0.003 [ms]
[OGL LOG][Proc: 0]Uy_non_local_coeffs: call_init: 0.009000000000000001 [ms]
[OGL LOG][Proc: 0]Uy: init_local_sparsity_pattern: 150.261 [ms]
[OGL LOG][Proc: 0]Uy: init_non_local_sparsity_pattern: 13.008 [ms]
[OGL LOG][Proc: 0]Uy: update_local_matrix_data: 15.354 [ms]
[OGL LOG][Proc: 0]Uy: update_non_local_matrix_data: 0.067 [ms]
[OGL LOG][Proc: 0]Uy_matrix: call_init: 47.87 [ms]
[OGL LOG][Proc: 0]Uy_rhs: call_init: 4.208 [ms]
[OGL LOG][Proc: 0]Uy_solution: call_init: 0.8200000000000001 [ms]
[OGL LOG][Preconditioner.H:121] Generate preconditioner BJ MaxBlockSize 1
[OGL LOG][Proc: 0]Uy: init_precond: 0.634 [ms]
[OGL LOG][StoppingCriterion.H:373] Creating stopping criterion with minIter 0 frequency 1
[OGL LOG][Proc: 0]Uy: generate_solver: 0.002 [ms]
[OGL LOG][Proc: 0]Uy: solve: 136.662 [ms]
[OGL LOG][Proc: 0]Uy: copy_x_back: 2.089 [ms]
[OGL LOG][lduLduBase.H:336] 
Statistics:
	Time per iteration: 2628 [mu s]
	Time per residual norm calculation: 300.000000 [mu s]
	Time per iteration and DOF: 0.416671 [ns]
	Retrieve results bandwidth 3.012000 [GByte/s]
[OGL LOG][Proc: 0]Uy: solve_multi_gpu: 193.7 [ms]
BJhipGKOBiCGStab:  Solving for Uy, Initial residual = 1.000000000000022, Final residual = 0.06026267505040833, No Iterations 52
[OGL LOG][lduLduBase.H:119] Initialising OGL
	OGL commit:  4647ee1+
	Branch: PersistentDeviceIdGuard 
	Build type: Release
	Ginkgo version: 1.5.0 ( develop)
	Ginkgo commit: 4292ffdee
	MPI is GPU aware: 1
	Forces host buffer based communication: 0
	CPU ranks per GPU: 1
	Matrix format: Coo
	End OGL_INFO
[OGL LOG][Proc: 0]: global_index_init: 0.535 [ms]
[OGL LOG][Proc: 0]Uz_local_cols: call_init: 0.008 [ms]
[OGL LOG][Proc: 0]Uz_local_rows: call_init: 0.004 [ms]
[OGL LOG][Proc: 0]Uz_local_ldu_map: call_init: 0.004 [ms]
[OGL LOG][Proc: 0]Uz_local_coeffs: call_init: 0.004 [ms]
[OGL LOG][Proc: 0]Uz_non_local_cols: call_init: 0.017 [ms]
[OGL LOG][Proc: 0]Uz_non_local_rows: call_init: 0.005 [ms]
[OGL LOG][Proc: 0]Uz_non_local_ldu_map: call_init: 0.006 [ms]
[OGL LOG][Proc: 0]Uz_non_local_coeffs: call_init: 0.008 [ms]
[OGL LOG][Proc: 0]Uz: init_local_sparsity_pattern: 137.016 [ms]
[OGL LOG][Proc: 0]Uz: init_non_local_sparsity_pattern: 27.959 [ms]
[OGL LOG][Proc: 0]Uz: update_local_matrix_data: 15.511 [ms]
[OGL LOG][Proc: 0]Uz: update_non_local_matrix_data: 0.118 [ms]
[OGL LOG][Proc: 0]Uz_matrix: call_init: 45.864 [ms]
[OGL LOG][Proc: 0]Uz_rhs: call_init: 7.87 [ms]
[OGL LOG][Proc: 0]Uz_solution: call_init: 0.8140000000000001 [ms]
[OGL LOG][Preconditioner.H:121] Generate preconditioner BJ MaxBlockSize 1
[OGL LOG][Proc: 0]Uz: init_precond: 0.627 [ms]
[OGL LOG][StoppingCriterion.H:373] Creating stopping criterion with minIter 0 frequency 1
[OGL LOG][Proc: 0]Uz: generate_solver: 0.002 [ms]
[OGL LOG][Proc: 0]Uz: solve: 41.632 [ms]
[OGL LOG][Proc: 0]Uz: copy_x_back: 2.079 [ms]
[OGL LOG][lduLduBase.H:336] 
Statistics:
	Time per iteration: 41632 [mu s]
	Time per residual norm calculation: 270.000000 [mu s]
	Time per iteration and DOF: 6.600777 [ns]
	Retrieve results bandwidth 3.026000 [GByte/s]
[OGL LOG][Proc: 0]Uz: solve_multi_gpu: 100.058 [ms]
BJhipGKOBiCGStab:  Solving for Uz, Initial residual = 1.00000000000002, Final residual = 0.09952964467305395, No Iterations 1
[INFO] MomentumPredictor: 2529.161 [ms]
[INFO] MatrixAssemblyPI: 122.016 [ms]
[INFO] MatrixAssemblyPII: 58.301 [ms]
GAMG:  Solving for p, Initial residual = 1, Final residual = 0.009433595180452463, No Iterations 25
[INFO] SolveP: 2177.272 [ms]
time step continuity errors : sum local = 0.003462639579024672, global = 1.33213041263812e-05, cumulative = 1.33213041263812e-05
[INFO] postSolveP: 32.134 [ms]
[OGL LOG][lduLduBase.H:119] Initialising OGL
	OGL commit:  4647ee1+
	Branch: PersistentDeviceIdGuard 
	Build type: Release
	Ginkgo version: 1.5.0 ( develop)
	Ginkgo commit: 4292ffdee
	MPI is GPU aware: 1
	Forces host buffer based communication: 0
	CPU ranks per GPU: 1
	Matrix format: Coo
	End OGL_INFO
[OGL LOG][Proc: 0]: global_index_init: 0.309 [ms]
[OGL LOG][Proc: 0]nuTilda_local_cols: call_init: 0.013 [ms]
[OGL LOG][Proc: 0]nuTilda_local_rows: call_init: 0.005 [ms]
[OGL LOG][Proc: 0]nuTilda_local_ldu_map: call_init: 0.004 [ms]
[OGL LOG][Proc: 0]nuTilda_local_coeffs: call_init: 0.005 [ms]
[OGL LOG][Proc: 0]nuTilda_non_local_cols: call_init: 0.004 [ms]
[OGL LOG][Proc: 0]nuTilda_non_local_rows: call_init: 0.005 [ms]
[OGL LOG][Proc: 0]nuTilda_non_local_ldu_map: call_init: 0.004 [ms]
[OGL LOG][Proc: 0]nuTilda_non_local_coeffs: call_init: 0.005 [ms]
[OGL LOG][Proc: 0]nuTilda: init_local_sparsity_pattern: 124.323 [ms]
[OGL LOG][Proc: 0]nuTilda: init_non_local_sparsity_pattern: 27.981 [ms]
[OGL LOG][Proc: 0]nuTilda: update_local_matrix_data: 15.752 [ms]
[OGL LOG][Proc: 0]nuTilda: update_non_local_matrix_data: 0.07200000000000001 [ms]
[OGL LOG][Proc: 0]nuTilda_matrix: call_init: 42.364 [ms]
[OGL LOG][Proc: 0]nuTilda_rhs: call_init: 9.346 [ms]
[OGL LOG][Proc: 0]nuTilda_solution: call_init: 0.805 [ms]
[OGL LOG][Preconditioner.H:121] Generate preconditioner BJ MaxBlockSize 1
[OGL LOG][Proc: 0]nuTilda: init_precond: 0.665 [ms]
[OGL LOG][StoppingCriterion.H:373] Creating stopping criterion with minIter 0 frequency 1
[OGL LOG][Proc: 0]nuTilda: generate_solver: 0.002 [ms]
[OGL LOG][Proc: 0]nuTilda: solve: 59.418 [ms]
[OGL LOG][Proc: 0]nuTilda: copy_x_back: 2.071 [ms]
[OGL LOG][lduLduBase.H:336] 
Statistics:
	Time per iteration: 29709 [mu s]
	Time per residual norm calculation: 246.000000 [mu s]
	Time per iteration and DOF: 4.710379 [ns]
	Retrieve results bandwidth 3.038000 [GByte/s]
[OGL LOG][Proc: 0]nuTilda: solve_multi_gpu: 115.912 [ms]
BJhipGKOBiCGStab:  Solving for nuTilda, Initial residual = 0.9999999999994968, Final residual = 0.09404356884146099, No Iterations 2
[INFO] TimeStep: 6508.232 [ms]
ExecutionTime = 18.95 s  ClockTime = 19 s

--> FOAM Warning : 
    From virtual bool Foam::functionObjects::fieldSelection::checkSelection()
    in file functionObjects/fieldSelections/fieldSelection/fieldSelection.C at line 166
    Field k not found
--> FOAM Warning : 
    From virtual bool Foam::functionObjects::fieldSelection::checkSelection()
    in file functionObjects/fieldSelections/fieldSelection/fieldSelection.C at line 166
    Field gammaInt not found
--> FOAM Warning : 
    From virtual bool Foam::functionObjects::fieldSelection::checkSelection()
    in file functionObjects/fieldSelections/fieldSelection/fieldSelection.C at line 166
    Field omega not found
--> FOAM Warning : 
    From virtual bool Foam::functionObjects::fieldSelection::checkSelection()
    in file functionObjects/fieldSelections/fieldSelection/fieldSelection.C at line 166
    Field ReThetat not found
--> FOAM Warning : 
    From virtual bool Foam::functionObjects::fieldSelection::checkSelection()
    in file functionObjects/fieldSelections/fieldSelection/fieldSelection.C at line 166
    Field epsilon not found
--> FOAM Warning : 
    From virtual bool Foam::functionObjects::solverFieldSelection::updateSelection()
    in file functionObjects/fieldSelections/solverFieldSelection/solverFieldSelection.C at line 85
    Valid solver fields are: 3(U nuTilda p)Time = 2

velocityDampingConstraint velocityDamping damped 0 (0%) of cells, with max limit 300
[INFO] MatrixAssemblyU: 823.345 [ms]
[OGL LOG][Proc: 0]: global_index_init: 0.064 [ms]
[OGL LOG][Proc: 0]Ux_local_coeffs: call_update: 0.005 [ms]
[OGL LOG][Proc: 0]Ux_non_local_coeffs: call_update: 0 [ms]
[OGL LOG][Proc: 0]Ux: update_local_matrix_data: 15.259 [ms]
[OGL LOG][Proc: 0]Ux: update_non_local_matrix_data: 0.07200000000000001 [ms]
[OGL LOG][Proc: 0]Ux_matrix: call_update: 6.32 [ms]
[OGL LOG][Proc: 0]Ux_rhs: call_update: 2.191 [ms]
[OGL LOG][Preconditioner.H:121] Generate preconditioner BJ MaxBlockSize 1
[OGL LOG][Proc: 0]Ux: init_precond: 0.503 [ms]
[OGL LOG][StoppingCriterion.H:373] Creating stopping criterion with minIter 28 frequency 1
[OGL LOG][Proc: 0]Ux: generate_solver: 0.002 [ms]
[OGL LOG][Proc: 0]Ux: solve: 67.139 [ms]
[OGL LOG][Proc: 0]Ux: copy_x_back: 2.09 [ms]
[OGL LOG][lduLduBase.H:336] 
Statistics:
	Time per iteration: 4795 [mu s]
	Time per residual norm calculation: 298.000000 [mu s]
	Time per iteration and DOF: 0.760250 [ns]
	Retrieve results bandwidth 3.010000 [GByte/s]
[OGL LOG][Proc: 0]Ux: solve_multi_gpu: 79.379 [ms]
BJhipGKOBiCGStab:  Solving for Ux, Initial residual = 0.6034969102053737, Final residual = 0.03633412225377664, No Iterations 14
[OGL LOG][Proc: 0]: global_index_init: 0.429 [ms]
[OGL LOG][Proc: 0]Uy_local_coeffs: call_update: 0 [ms]
[OGL LOG][Proc: 0]Uy_non_local_coeffs: call_update: 0 [ms]
[OGL LOG][Proc: 0]Uy: update_local_matrix_data: 15.91 [ms]
[OGL LOG][Proc: 0]Uy: update_non_local_matrix_data: 0.07100000000000001 [ms]
[OGL LOG][Proc: 0]Uy_matrix: call_update: 6.659 [ms]
[OGL LOG][Proc: 0]Uy_rhs: call_update: 2.666 [ms]
[OGL LOG][Preconditioner.H:121] Generate preconditioner BJ MaxBlockSize 1
[OGL LOG][Proc: 0]Uy: init_precond: 0.544 [ms]
[OGL LOG][StoppingCriterion.H:373] Creating stopping criterion with minIter 62 frequency 2
[OGL LOG][Proc: 0]Uy: generate_solver: 0.002 [ms]
[OGL LOG][Proc: 0]Uy: solve: 82.863 [ms]
[OGL LOG][Proc: 0]Uy: copy_x_back: 2.163 [ms]
[OGL LOG][lduLduBase.H:336] 
Statistics:
	Time per iteration: 2673 [mu s]
	Time per residual norm calculation: 264.000000 [mu s]
	Time per iteration and DOF: 0.423806 [ns]
	Retrieve results bandwidth 2.909000 [GByte/s]
[OGL LOG][Proc: 0]Uy: solve_multi_gpu: 95.999 [ms]
BJhipGKOBiCGStab:  Solving for Uy, Initial residual = 0.9969953148305938, Final residual = 0.001463917110739876, No Iterations 31
[OGL LOG][Proc: 0]: global_index_init: 0.15 [ms]
[OGL LOG][Proc: 0]Uz_local_coeffs: call_update: 0 [ms]
[OGL LOG][Proc: 0]Uz_non_local_coeffs: call_update: 0 [ms]
[OGL LOG][Proc: 0]Uz: update_local_matrix_data: 15.848 [ms]
[OGL LOG][Proc: 0]Uz: update_non_local_matrix_data: 0.073 [ms]
[OGL LOG][Proc: 0]Uz_matrix: call_update: 5.737 [ms]
[OGL LOG][Proc: 0]Uz_rhs: call_update: 3.023 [ms]
[OGL LOG][Preconditioner.H:121] Generate preconditioner BJ MaxBlockSize 1
[OGL LOG][Proc: 0]Uz: init_precond: 0.625 [ms]
[OGL LOG][StoppingCriterion.H:373] Creating stopping criterion with minIter 1 frequency 1
[OGL LOG][Proc: 0]Uz: generate_solver: 0.002 [ms]
[OGL LOG][Proc: 0]Uz: solve: 60.529 [ms]
[OGL LOG][Proc: 0]Uz: copy_x_back: 2.176 [ms]
[OGL LOG][lduLduBase.H:336] 
Statistics:
	Time per iteration: 5502 [mu s]
	Time per residual norm calculation: 258.000000 [mu s]
	Time per iteration and DOF: 0.872345 [ns]
	Retrieve results bandwidth 2.891000 [GByte/s]
[OGL LOG][Proc: 0]Uz: solve_multi_gpu: 73.176 [ms]
BJhipGKOBiCGStab:  Solving for Uz, Initial residual = 0.9999817937131198, Final residual = 0.07561117192885358, No Iterations 11
[INFO] MomentumPredictor: 346.174 [ms]
[INFO] MatrixAssemblyPI: 117.041 [ms]
[INFO] MatrixAssemblyPII: 57.779 [ms]
GAMG:  Solving for p, Initial residual = 0.2201470239857398, Final residual = 0.001870120345530381, No Iterations 12
[INFO] SolveP: 920.231 [ms]
time step continuity errors : sum local = 0.03847054286315714, global = -0.0003397537639278224, cumulative = -0.0003264324598014412
[INFO] postSolveP: 32.828 [ms]
[OGL LOG][Proc: 0]: global_index_init: 0.065 [ms]
[OGL LOG][Proc: 0]nuTilda_local_coeffs: call_update: 0 [ms]
[OGL LOG][Proc: 0]nuTilda_non_local_coeffs: call_update: 0 [ms]
[OGL LOG][Proc: 0]nuTilda: update_local_matrix_data: 15.644 [ms]
[OGL LOG][Proc: 0]nuTilda: update_non_local_matrix_data: 0.07200000000000001 [ms]
[OGL LOG][Proc: 0]nuTilda_matrix: call_update: 6.829 [ms]
[OGL LOG][Proc: 0]nuTilda_rhs: call_update: 2.682 [ms]
[OGL LOG][Preconditioner.H:121] Generate preconditioner BJ MaxBlockSize 1
[OGL LOG][Proc: 0]nuTilda: init_precond: 0.5 [ms]
[OGL LOG][StoppingCriterion.H:373] Creating stopping criterion with minIter 3 frequency 1
[OGL LOG][Proc: 0]nuTilda: generate_solver: 0.002 [ms]
[OGL LOG][Proc: 0]nuTilda: solve: 44.129 [ms]
[OGL LOG][Proc: 0]nuTilda: copy_x_back: 2.093 [ms]
[OGL LOG][lduLduBase.H:336] 
Statistics:
	Time per iteration: 22064 [mu s]
	Time per residual norm calculation: 301.000000 [mu s]
	Time per iteration and DOF: 3.498260 [ns]
	Retrieve results bandwidth 3.006000 [GByte/s]
[OGL LOG][Proc: 0]nuTilda: solve_multi_gpu: 57.328 [ms]
BJhipGKOBiCGStab:  Solving for nuTilda, Initial residual = 0.4031877212707812, Final residual = 0.006101697095979874, No Iterations 2
[INFO] TimeStep: 2806.244 [ms]
ExecutionTime = 22.44 s  ClockTime = 22 s

Time = 3

velocityDampingConstraint velocityDamping damped 894 (0.01%) of cells, with max limit 300
[INFO] MatrixAssemblyU: 841.4880000000001 [ms]
[OGL LOG][Proc: 0]: global_index_init: 0.034 [ms]
[OGL LOG][Proc: 0]Ux_local_coeffs: call_update: 0 [ms]
[OGL LOG][Proc: 0]Ux_non_local_coeffs: call_update: 0 [ms]
[OGL LOG][Proc: 0]Ux: update_local_matrix_data: 15.426 [ms]
[OGL LOG][Proc: 0]Ux: update_non_local_matrix_data: 0.068 [ms]
[OGL LOG][Proc: 0]Ux_matrix: call_update: 9.33 [ms]
[OGL LOG][Proc: 0]Ux_rhs: call_update: 1.809 [ms]
[OGL LOG][Preconditioner.H:121] Generate preconditioner BJ MaxBlockSize 1
[OGL LOG][Proc: 0]Ux: init_precond: 0.44 [ms]
[OGL LOG][StoppingCriterion.H:373] Creating stopping criterion with minIter 17 frequency 1
[OGL LOG][Proc: 0]Ux: generate_solver: 0.002 [ms]
[OGL LOG][Proc: 0]Ux: solve: 63.747 [ms]
[OGL LOG][Proc: 0]Ux: copy_x_back: 2.043 [ms]
[OGL LOG][lduLduBase.H:336] 
Statistics:
	Time per iteration: 4553 [mu s]
	Time per residual norm calculation: 328.000000 [mu s]
	Time per iteration and DOF: 0.721881 [ns]
	Retrieve results bandwidth 3.080000 [GByte/s]
[OGL LOG][Proc: 0]Ux: solve_multi_gpu: 78.467 [ms]
BJhipGKOBiCGStab:  Solving for Ux, Initial residual = 0.1298197193186285, Final residual = 0.00617431141778699, No Iterations 14
[OGL LOG][Proc: 0]: global_index_init: 1.049 [ms]
[OGL LOG][Proc: 0]Uy_local_coeffs: call_update: 0 [ms]
[OGL LOG][Proc: 0]Uy_non_local_coeffs: call_update: 0 [ms]
[OGL LOG][Proc: 0]Uy: update_local_matrix_data: 15.484 [ms]
[OGL LOG][Proc: 0]Uy: update_non_local_matrix_data: 0.06900000000000001 [ms]
[OGL LOG][Proc: 0]Uy_matrix: call_update: 6.846 [ms]
[OGL LOG][Proc: 0]Uy_rhs: call_update: 2.627 [ms]
[OGL LOG][Preconditioner.H:121] Generate preconditioner BJ MaxBlockSize 1
[OGL LOG][Proc: 0]Uy: init_precond: 0.491 [ms]
[OGL LOG][StoppingCriterion.H:373] Creating stopping criterion with minIter 37 frequency 1
[OGL LOG][Proc: 0]Uy: generate_solver: 0.002 [ms]
[OGL LOG][Proc: 0]Uy: solve: 65.167 [ms]
[OGL LOG][Proc: 0]Uy: copy_x_back: 2.06 [ms]
[OGL LOG][lduLduBase.H:336] 
Statistics:
	Time per iteration: 3429 [mu s]
	Time per residual norm calculation: 305.000000 [mu s]
	Time per iteration and DOF: 0.543670 [ns]
	Retrieve results bandwidth 3.054000 [GByte/s]
[OGL LOG][Proc: 0]Uy: solve_multi_gpu: 78.348 [ms]
BJhipGKOBiCGStab:  Solving for Uy, Initial residual = 0.2892715683817668, Final residual = 0.009196445056519667, No Iterations 19
[OGL LOG][Proc: 0]: global_index_init: 0.99 [ms]
[OGL LOG][Proc: 0]Uz_local_coeffs: call_update: 0 [ms]
[OGL LOG][Proc: 0]Uz_non_local_coeffs: call_update: 0 [ms]
[OGL LOG][Proc: 0]Uz: update_local_matrix_data: 15.493 [ms]
[OGL LOG][Proc: 0]Uz: update_non_local_matrix_data: 0.07200000000000001 [ms]
[OGL LOG][Proc: 0]Uz_matrix: call_update: 5.961 [ms]
[OGL LOG][Proc: 0]Uz_rhs: call_update: 5.422 [ms]
[OGL LOG][Preconditioner.H:121] Generate preconditioner BJ MaxBlockSize 1
[OGL LOG][Proc: 0]Uz: init_precond: 0.438 [ms]
[OGL LOG][StoppingCriterion.H:373] Creating stopping criterion with minIter 13 frequency 1
[OGL LOG][Proc: 0]Uz: generate_solver: 0.002 [ms]
[OGL LOG][Proc: 0]Uz: solve: 62.974 [ms]
[OGL LOG][Proc: 0]Uz: copy_x_back: 2.079 [ms]
[OGL LOG][lduLduBase.H:336] 
Statistics:
	Time per iteration: 5724 [mu s]
	Time per residual norm calculation: 296.000000 [mu s]
	Time per iteration and DOF: 0.907543 [ns]
	Retrieve results bandwidth 3.026000 [GByte/s]
[OGL LOG][Proc: 0]Uz: solve_multi_gpu: 77.967 [ms]
BJhipGKOBiCGStab:  Solving for Uz, Initial residual = 0.2624777832546328, Final residual = 0.02332210797592341, No Iterations 11
[INFO] MomentumPredictor: 333.066 [ms]
[INFO] MatrixAssemblyPI: 116.581 [ms]
[INFO] MatrixAssemblyPII: 57.493 [ms]
GAMG:  Solving for p, Initial residual = 0.1789106960243358, Final residual = 0.001670643139215122, No Iterations 9
[INFO] SolveP: 700.437 [ms]
time step continuity errors : sum local = 0.02051861538965462, global = -1.242767338088282e-05, cumulative = -0.000338860133182324
[INFO] postSolveP: 32.588 [ms]
[OGL LOG][Proc: 0]: global_index_init: 0.195 [ms]
[OGL LOG][Proc: 0]nuTilda_local_coeffs: call_update: 0 [ms]
[OGL LOG][Proc: 0]nuTilda_non_local_coeffs: call_update: 0 [ms]
[OGL LOG][Proc: 0]nuTilda: update_local_matrix_data: 15.542 [ms]
[OGL LOG][Proc: 0]nuTilda: update_non_local_matrix_data: 0.06900000000000001 [ms]
[OGL LOG][Proc: 0]nuTilda_matrix: call_update: 5.977 [ms]
[OGL LOG][Proc: 0]nuTilda_rhs: call_update: 3.117 [ms]
[OGL LOG][Preconditioner.H:121] Generate preconditioner BJ MaxBlockSize 1
[OGL LOG][Proc: 0]nuTilda: init_precond: 0.606 [ms]
[OGL LOG][StoppingCriterion.H:373] Creating stopping criterion with minIter 2 frequency 1
[OGL LOG][Proc: 0]nuTilda: generate_solver: 0.002 [ms]
[OGL LOG][Proc: 0]nuTilda: solve: 43.612 [ms]
[OGL LOG][Proc: 0]nuTilda: copy_x_back: 2.079 [ms]
[OGL LOG][lduLduBase.H:336] 
Statistics:
	Time per iteration: 21806 [mu s]
	Time per residual norm calculation: 301.000000 [mu s]
	Time per iteration and DOF: 3.457354 [ns]
	Retrieve results bandwidth 3.026000 [GByte/s]
[OGL LOG][Proc: 0]nuTilda: solve_multi_gpu: 56.503 [ms]
BJhipGKOBiCGStab:  Solving for nuTilda, Initial residual = 0.1869499304948476, Final residual = 0.01414168932883066, No Iterations 2
[INFO] TimeStep: 2593.789 [ms]
ExecutionTime = 25.73 s  ClockTime = 26 s

Time = 4

velocityDampingConstraint velocityDamping damped 160 (0%) of cells, with max limit 300
[INFO] MatrixAssemblyU: 863.427 [ms]
[OGL LOG][Proc: 0]: global_index_init: 0.042 [ms]
[OGL LOG][Proc: 0]Ux_local_coeffs: call_update: 0 [ms]
[OGL LOG][Proc: 0]Ux_non_local_coeffs: call_update: 0 [ms]
[OGL LOG][Proc: 0]Ux: update_local_matrix_data: 15.316 [ms]
[OGL LOG][Proc: 0]Ux: update_non_local_matrix_data: 0.07000000000000001 [ms]
[OGL LOG][Proc: 0]Ux_matrix: call_update: 6.236 [ms]
[OGL LOG][Proc: 0]Ux_rhs: call_update: 1.639 [ms]
[OGL LOG][Preconditioner.H:121] Generate preconditioner BJ MaxBlockSize 1
[OGL LOG][Proc: 0]Ux: init_precond: 0.446 [ms]
[OGL LOG][StoppingCriterion.H:373] Creating stopping criterion with minIter 16 frequency 1
[OGL LOG][Proc: 0]Ux: generate_solver: 0.002 [ms]
[OGL LOG][Proc: 0]Ux: solve: 55.094 [ms]
[OGL LOG][Proc: 0]Ux: copy_x_back: 2.103 [ms]
[OGL LOG][lduLduBase.H:336] 
Statistics:
	Time per iteration: 5509 [mu s]
	Time per residual norm calculation: 278.000000 [mu s]
	Time per iteration and DOF: 0.873455 [ns]
	Retrieve results bandwidth 2.992000 [GByte/s]
[OGL LOG][Proc: 0]Ux: solve_multi_gpu: 66.605 [ms]
BJhipGKOBiCGStab:  Solving for Ux, Initial residual = 0.1796536180435928, Final residual = 0.01702975423774484, No Iterations 10
[OGL LOG][Proc: 0]: global_index_init: 0.581 [ms]
[OGL LOG][Proc: 0]Uy_local_coeffs: call_update: 0 [ms]
[OGL LOG][Proc: 0]Uy_non_local_coeffs: call_update: 0 [ms]
[OGL LOG][Proc: 0]Uy: update_local_matrix_data: 15.643 [ms]
[OGL LOG][Proc: 0]Uy: update_non_local_matrix_data: 0.068 [ms]
[OGL LOG][Proc: 0]Uy_matrix: call_update: 6.775 [ms]
[OGL LOG][Proc: 0]Uy_rhs: call_update: 2.97 [ms]
[OGL LOG][Preconditioner.H:121] Generate preconditioner BJ MaxBlockSize 1
[OGL LOG][Proc: 0]Uy: init_precond: 0.438 [ms]
[OGL LOG][StoppingCriterion.H:373] Creating stopping criterion with minIter 22 frequency 1
[OGL LOG][Proc: 0]Uy: generate_solver: 0.002 [ms]
[OGL LOG][Proc: 0]Uy: solve: 63.717 [ms]
[OGL LOG][Proc: 0]Uy: copy_x_back: 2.068 [ms]
[OGL LOG][lduLduBase.H:336] 
Statistics:
	Time per iteration: 5309 [mu s]
	Time per residual norm calculation: 300.000000 [mu s]
	Time per iteration and DOF: 0.841745 [ns]
	Retrieve results bandwidth 3.042000 [GByte/s]
[OGL LOG][Proc: 0]Uy: solve_multi_gpu: 76.992 [ms]
BJhipGKOBiCGStab:  Solving for Uy, Initial residual = 0.1879804650554963, Final residual = 0.0131696234557615, No Iterations 12
[OGL LOG][Proc: 0]: global_index_init: 0.6820000000000001 [ms]
[OGL LOG][Proc: 0]Uz_local_coeffs: call_update: 0 [ms]
[OGL LOG][Proc: 0]Uz_non_local_coeffs: call_update: 0 [ms]
[OGL LOG][Proc: 0]Uz: update_local_matrix_data: 15.823 [ms]
[OGL LOG][Proc: 0]Uz: update_non_local_matrix_data: 0.07100000000000001 [ms]
[OGL LOG][Proc: 0]Uz_matrix: call_update: 6.786 [ms]
[OGL LOG][Proc: 0]Uz_rhs: call_update: 6.716 [ms]
[OGL LOG][Preconditioner.H:121] Generate preconditioner BJ MaxBlockSize 1
[OGL LOG][Proc: 0]Uz: init_precond: 0.5590000000000001 [ms]
[OGL LOG][StoppingCriterion.H:373] Creating stopping criterion with minIter 13 frequency 1
[OGL LOG][Proc: 0]Uz: generate_solver: 0.002 [ms]
[OGL LOG][Proc: 0]Uz: solve: 62.554 [ms]
[OGL LOG][Proc: 0]Uz: copy_x_back: 2.037 [ms]
[OGL LOG][lduLduBase.H:336] 
Statistics:
	Time per iteration: 5686 [mu s]
	Time per residual norm calculation: 297.000000 [mu s]
	Time per iteration and DOF: 0.901519 [ns]
	Retrieve results bandwidth 3.089000 [GByte/s]
[OGL LOG][Proc: 0]Uz: solve_multi_gpu: 79.73 [ms]
BJhipGKOBiCGStab:  Solving for Uz, Initial residual = 0.1886297593792209, Final residual = 0.0158201116656842, No Iterations 11
[INFO] MomentumPredictor: 322.237 [ms]
[INFO] MatrixAssemblyPI: 114.707 [ms]
[INFO] MatrixAssemblyPII: 57.489 [ms]
GAMG:  Solving for p, Initial residual = 0.1260084362262412, Final residual = 0.0009247060033486078, No Iterations 9
[INFO] SolveP: 715.917 [ms]
time step continuity errors : sum local = 0.01272941214132102, global = -0.0002608258901411788, cumulative = -0.0005996860233235028
[INFO] postSolveP: 32.244 [ms]
[OGL LOG][Proc: 0]: global_index_init: 0.291 [ms]
[OGL LOG][Proc: 0]nuTilda_local_coeffs: call_update: 0 [ms]
[OGL LOG][Proc: 0]nuTilda_non_local_coeffs: call_update: 0 [ms]
[OGL LOG][Proc: 0]nuTilda: update_local_matrix_data: 15.429 [ms]
[OGL LOG][Proc: 0]nuTilda: update_non_local_matrix_data: 0.067 [ms]
[OGL LOG][Proc: 0]nuTilda_matrix: call_update: 7.322 [ms]
[OGL LOG][Proc: 0]nuTilda_rhs: call_update: 2.071 [ms]
[OGL LOG][Preconditioner.H:121] Generate preconditioner BJ MaxBlockSize 1
[OGL LOG][Proc: 0]nuTilda: init_precond: 0.545 [ms]
[OGL LOG][StoppingCriterion.H:373] Creating stopping criterion with minIter 2 frequency 1
[OGL LOG][Proc: 0]nuTilda: generate_solver: 0.002 [ms]
[OGL LOG][Proc: 0]nuTilda: solve: 45.069 [ms]
[OGL LOG][Proc: 0]nuTilda: copy_x_back: 2.074 [ms]
[OGL LOG][lduLduBase.H:336] 
Statistics:
	Time per iteration: 22534 [mu s]
	Time per residual norm calculation: 308.000000 [mu s]
	Time per iteration and DOF: 3.572779 [ns]
	Retrieve results bandwidth 3.034000 [GByte/s]
[OGL LOG][Proc: 0]nuTilda: solve_multi_gpu: 58.175 [ms]
BJhipGKOBiCGStab:  Solving for nuTilda, Initial residual = 0.1105506593786881, Final residual = 0.009089695348221198, No Iterations 2
bounding nuTilda, min: -2.244575577620885e-06 max: 0.001001936891761941 average: 8.495795695830023e-05
[INFO] TimeStep: 2646.825 [ms]
ExecutionTime = 29.09 s  ClockTime = 29 s

Time = 5

velocityDampingConstraint velocityDamping damped 91 (0%) of cells, with max limit 300
[INFO] MatrixAssemblyU: 868.316 [ms]
[OGL LOG][Proc: 0]: global_index_init: 0.052 [ms]
[OGL LOG][Proc: 0]Ux_local_coeffs: call_update: 0 [ms]
[OGL LOG][Proc: 0]Ux_non_local_coeffs: call_update: 0 [ms]
[OGL LOG][Proc: 0]Ux: update_local_matrix_data: 15.24 [ms]
[OGL LOG][Proc: 0]Ux: update_non_local_matrix_data: 0.07000000000000001 [ms]
[OGL LOG][Proc: 0]Ux_matrix: call_update: 5.803 [ms]
[OGL LOG][Proc: 0]Ux_rhs: call_update: 3.114 [ms]
[OGL LOG][Preconditioner.H:121] Generate preconditioner BJ MaxBlockSize 1
[OGL LOG][Proc: 0]Ux: init_precond: 0.444 [ms]
[OGL LOG][StoppingCriterion.H:373] Creating stopping criterion with minIter 12 frequency 1
[OGL LOG][Proc: 0]Ux: generate_solver: 0.002 [ms]
[OGL LOG][Proc: 0]Ux: solve: 62.874 [ms]
[OGL LOG][Proc: 0]Ux: copy_x_back: 2.088 [ms]
[OGL LOG][lduLduBase.H:336] 
Statistics:
	Time per iteration: 4491 [mu s]
	Time per residual norm calculation: 309.000000 [mu s]
	Time per iteration and DOF: 0.712051 [ns]
	Retrieve results bandwidth 3.013000 [GByte/s]
[OGL LOG][Proc: 0]Ux: solve_multi_gpu: 75.40000000000001 [ms]
BJhipGKOBiCGStab:  Solving for Ux, Initial residual = 0.08274023813607007, Final residual = 0.006778710403342874, No Iterations 14
[OGL LOG][Proc: 0]: global_index_init: 0.5590000000000001 [ms]
[OGL LOG][Proc: 0]Uy_local_coeffs: call_update: 0 [ms]
[OGL LOG][Proc: 0]Uy_non_local_coeffs: call_update: 0 [ms]
[OGL LOG][Proc: 0]Uy: update_local_matrix_data: 15.788 [ms]
[OGL LOG][Proc: 0]Uy: update_non_local_matrix_data: 0.07200000000000001 [ms]
[OGL LOG][Proc: 0]Uy_matrix: call_update: 5.947 [ms]
[OGL LOG][Proc: 0]Uy_rhs: call_update: 3.441 [ms]
[OGL LOG][Preconditioner.H:121] Generate preconditioner BJ MaxBlockSize 1
[OGL LOG][Proc: 0]Uy: init_precond: 0.51 [ms]
[OGL LOG][StoppingCriterion.H:373] Creating stopping criterion with minIter 14 frequency 1
[OGL LOG][Proc: 0]Uy: generate_solver: 0.002 [ms]
[OGL LOG][Proc: 0]Uy: solve: 57.843 [ms]
[OGL LOG][Proc: 0]Uy: copy_x_back: 2.097 [ms]
[OGL LOG][lduLduBase.H:336] 
Statistics:
	Time per iteration: 4820 [mu s]
	Time per residual norm calculation: 292.000000 [mu s]
	Time per iteration and DOF: 0.764214 [ns]
	Retrieve results bandwidth 3.000000 [GByte/s]
[OGL LOG][Proc: 0]Uy: solve_multi_gpu: 70.991 [ms]
BJhipGKOBiCGStab:  Solving for Uy, Initial residual = 0.1729330814025561, Final residual = 0.01108727233386441, No Iterations 12
[OGL LOG][Proc: 0]: global_index_init: 2.874 [ms]
[OGL LOG][Proc: 0]Uz_local_coeffs: call_update: 0 [ms]
[OGL LOG][Proc: 0]Uz_non_local_coeffs: call_update: 0 [ms]
[OGL LOG][Proc: 0]Uz: update_local_matrix_data: 15.253 [ms]
[OGL LOG][Proc: 0]Uz: update_non_local_matrix_data: 0.06900000000000001 [ms]
[OGL LOG][Proc: 0]Uz_matrix: call_update: 9.587 [ms]
[OGL LOG][Proc: 0]Uz_rhs: call_update: 5.891 [ms]
[OGL LOG][Preconditioner.H:121] Generate preconditioner BJ MaxBlockSize 1
[OGL LOG][Proc: 0]Uz: init_precond: 0.588 [ms]
[OGL LOG][StoppingCriterion.H:373] Creating stopping criterion with minIter 13 frequency 1
[OGL LOG][Proc: 0]Uz: generate_solver: 0.002 [ms]
[OGL LOG][Proc: 0]Uz: solve: 61.224 [ms]
[OGL LOG][Proc: 0]Uz: copy_x_back: 2.074 [ms]
[OGL LOG][lduLduBase.H:336] 
Statistics:
	Time per iteration: 5102 [mu s]
	Time per residual norm calculation: 298.000000 [mu s]
	Time per iteration and DOF: 0.808925 [ns]
	Retrieve results bandwidth 3.034000 [GByte/s]
[OGL LOG][Proc: 0]Uz: solve_multi_gpu: 80.393 [ms]
BJhipGKOBiCGStab:  Solving for Uz, Initial residual = 0.1506351021882149, Final residual = 0.009316444232723473, No Iterations 12
[INFO] MomentumPredictor: 326.969 [ms]
[INFO] MatrixAssemblyPI: 115.958 [ms]
[INFO] MatrixAssemblyPII: 57.36 [ms]
GAMG:  Solving for p, Initial residual = 0.1075845933885456, Final residual = 0.001014054168431984, No Iterations 8
[INFO] SolveP: 631.5650000000001 [ms]
time step continuity errors : sum local = 0.01020827620435772, global = 2.545004330907916e-05, cumulative = -0.0005742359800144237
[INFO] postSolveP: 32.417 [ms]
[OGL LOG][Proc: 0]: global_index_init: 0.418 [ms]
[OGL LOG][Proc: 0]nuTilda_local_coeffs: call_update: 0 [ms]
[OGL LOG][Proc: 0]nuTilda_non_local_coeffs: call_update: 0 [ms]
[OGL LOG][Proc: 0]nuTilda: update_local_matrix_data: 15.734 [ms]
[OGL LOG][Proc: 0]nuTilda: update_non_local_matrix_data: 0.074 [ms]
[OGL LOG][Proc: 0]nuTilda_matrix: call_update: 6.762 [ms]
[OGL LOG][Proc: 0]nuTilda_rhs: call_update: 2.068 [ms]
[OGL LOG][Preconditioner.H:121] Generate preconditioner BJ MaxBlockSize 1
[OGL LOG][Proc: 0]nuTilda: init_precond: 0.5610000000000001 [ms]
[OGL LOG][StoppingCriterion.H:373] Creating stopping criterion with minIter 2 frequency 1
[OGL LOG][Proc: 0]nuTilda: generate_solver: 0.003 [ms]
[OGL LOG][Proc: 0]nuTilda: solve: 43.587 [ms]
[OGL LOG][Proc: 0]nuTilda: copy_x_back: 2.076 [ms]
[OGL LOG][lduLduBase.H:336] 
Statistics:
	Time per iteration: 21793 [mu s]
	Time per residual norm calculation: 299.000000 [mu s]
	Time per iteration and DOF: 3.455293 [ns]
	Retrieve results bandwidth 3.031000 [GByte/s]
[OGL LOG][Proc: 0]nuTilda: solve_multi_gpu: 56.148 [ms]
BJhipGKOBiCGStab:  Solving for nuTilda, Initial residual = 0.06081863874647542, Final residual = 0.005497552487836544, No Iterations 2
[INFO] TimeStep: 2539.751 [ms]
ExecutionTime = 32.34 s  ClockTime = 32 s

Time = 6

velocityDampingConstraint velocityDamping damped 0 (0%) of cells, with max limit 300
[INFO] MatrixAssemblyU: 852.533 [ms]
[OGL LOG][Proc: 0]: global_index_init: 0.068 [ms]
[OGL LOG][Proc: 0]Ux_local_coeffs: call_update: 0 [ms]
[OGL LOG][Proc: 0]Ux_non_local_coeffs: call_update: 0 [ms]
[OGL LOG][Proc: 0]Ux: update_local_matrix_data: 16.022 [ms]
[OGL LOG][Proc: 0]Ux: update_non_local_matrix_data: 0.073 [ms]
[OGL LOG][Proc: 0]Ux_matrix: call_update: 10.936 [ms]
[OGL LOG][Proc: 0]Ux_rhs: call_update: 0.777 [ms]
[OGL LOG][Preconditioner.H:121] Generate preconditioner BJ MaxBlockSize 1
[OGL LOG][Proc: 0]Ux: init_precond: 0.416 [ms]
[OGL LOG][StoppingCriterion.H:373] Creating stopping criterion with minIter 16 frequency 1
[OGL LOG][Proc: 0]Ux: generate_solver: 0.002 [ms]
[OGL LOG][Proc: 0]Ux: solve: 62.384 [ms]
[OGL LOG][Proc: 0]Ux: copy_x_back: 2.055 [ms]
[OGL LOG][lduLduBase.H:336] 
Statistics:
	Time per iteration: 6238 [mu s]
	Time per residual norm calculation: 247.000000 [mu s]
	Time per iteration and DOF: 0.989038 [ns]
	Retrieve results bandwidth 3.062000 [GByte/s]
[OGL LOG][Proc: 0]Ux: solve_multi_gpu: 77.64400000000001 [ms]
BJhipGKOBiCGStab:  Solving for Ux, Initial residual = 0.03872058234912683, Final residual = 0.003861427509124221, No Iterations 10
[OGL LOG][Proc: 0]: global_index_init: 0.912 [ms]
[OGL LOG][Proc: 0]Uy_local_coeffs: call_update: 0 [ms]
[OGL LOG][Proc: 0]Uy_non_local_coeffs: call_update: 0 [ms]
[OGL LOG][Proc: 0]Uy: update_local_matrix_data: 15.795 [ms]
[OGL LOG][Proc: 0]Uy: update_non_local_matrix_data: 0.07100000000000001 [ms]
[OGL LOG][Proc: 0]Uy_matrix: call_update: 6.562 [ms]
[OGL LOG][Proc: 0]Uy_rhs: call_update: 3.191 [ms]
[OGL LOG][Preconditioner.H:121] Generate preconditioner BJ MaxBlockSize 1
[OGL LOG][Proc: 0]Uy: init_precond: 0.494 [ms]
[OGL LOG][StoppingCriterion.H:373] Creating stopping criterion with minIter 14 frequency 1
[OGL LOG][Proc: 0]Uy: generate_solver: 0.002 [ms]
[OGL LOG][Proc: 0]Uy: solve: 59.738 [ms]
[OGL LOG][Proc: 0]Uy: copy_x_back: 2.085 [ms]
[OGL LOG][lduLduBase.H:336] 
Statistics:
	Time per iteration: 4595 [mu s]
	Time per residual norm calculation: 255.000000 [mu s]
	Time per iteration and DOF: 0.728540 [ns]
	Retrieve results bandwidth 3.018000 [GByte/s]
[OGL LOG][Proc: 0]Uy: solve_multi_gpu: 73.113 [ms]
BJhipGKOBiCGStab:  Solving for Uy, Initial residual = 0.1096115046178683, Final residual = 0.009828249988974743, No Iterations 13
[OGL LOG][Proc: 0]: global_index_init: 0.853 [ms]
[OGL LOG][Proc: 0]Uz_local_coeffs: call_update: 0 [ms]
[OGL LOG][Proc: 0]Uz_non_local_coeffs: call_update: 0 [ms]
[OGL LOG][Proc: 0]Uz: update_local_matrix_data: 15.794 [ms]
[OGL LOG][Proc: 0]Uz: update_non_local_matrix_data: 0.07000000000000001 [ms]
[OGL LOG][Proc: 0]Uz_matrix: call_update: 6.731 [ms]
[OGL LOG][Proc: 0]Uz_rhs: call_update: 2.017 [ms]
[OGL LOG][Preconditioner.H:121] Generate preconditioner BJ MaxBlockSize 1
[OGL LOG][Proc: 0]Uz: init_precond: 0.434 [ms]
[OGL LOG][StoppingCriterion.H:373] Creating stopping criterion with minIter 14 frequency 1
[OGL LOG][Proc: 0]Uz: generate_solver: 0.002 [ms]
[OGL LOG][Proc: 0]Uz: solve: 58.447 [ms]
[OGL LOG][Proc: 0]Uz: copy_x_back: 2.065 [ms]
[OGL LOG][lduLduBase.H:336] 
Statistics:
	Time per iteration: 4870 [mu s]
	Time per residual norm calculation: 297.000000 [mu s]
	Time per iteration and DOF: 0.772141 [ns]
	Retrieve results bandwidth 3.047000 [GByte/s]
[OGL LOG][Proc: 0]Uz: solve_multi_gpu: 70.741 [ms]
BJhipGKOBiCGStab:  Solving for Uz, Initial residual = 0.1155873064523968, Final residual = 0.008805676698656034, No Iterations 12
[INFO] MomentumPredictor: 321.592 [ms]
[INFO] MatrixAssemblyPI: 116.07 [ms]
[INFO] MatrixAssemblyPII: 57.466 [ms]
GAMG:  Solving for p, Initial residual = 0.09538275234951897, Final residual = 0.0008471435136839965, No Iterations 7
[INFO] SolveP: 561.014 [ms]
time step continuity errors : sum local = 0.007996352976815215, global = 8.409170653676374e-05, cumulative = -0.0004901442734776599
[INFO] postSolveP: 31.837 [ms]
[OGL LOG][Proc: 0]: global_index_init: 0.036 [ms]
[OGL LOG][Proc: 0]nuTilda_local_coeffs: call_update: 0 [ms]
[OGL LOG][Proc: 0]nuTilda_non_local_coeffs: call_update: 0 [ms]
[OGL LOG][Proc: 0]nuTilda: update_local_matrix_data: 15.616 [ms]
[OGL LOG][Proc: 0]nuTilda: update_non_local_matrix_data: 0.07200000000000001 [ms]
[OGL LOG][Proc: 0]nuTilda_matrix: call_update: 5.844 [ms]
[OGL LOG][Proc: 0]nuTilda_rhs: call_update: 3.957 [ms]
[OGL LOG][Preconditioner.H:121] Generate preconditioner BJ MaxBlockSize 1
[OGL LOG][Proc: 0]nuTilda: init_precond: 0.491 [ms]
[OGL LOG][StoppingCriterion.H:373] Creating stopping criterion with minIter 2 frequency 1
[OGL LOG][Proc: 0]nuTilda: generate_solver: 0.002 [ms]
[OGL LOG][Proc: 0]nuTilda: solve: 48.96 [ms]
[OGL LOG][Proc: 0]nuTilda: copy_x_back: 2.044 [ms]
[OGL LOG][lduLduBase.H:336] 
Statistics:
	Time per iteration: 24480 [mu s]
	Time per residual norm calculation: 244.000000 [mu s]
	Time per iteration and DOF: 3.881318 [ns]
	Retrieve results bandwidth 3.078000 [GByte/s]
[OGL LOG][Proc: 0]nuTilda: solve_multi_gpu: 62.291 [ms]
BJhipGKOBiCGStab:  Solving for nuTilda, Initial residual = 0.05603636847320109, Final residual = 0.003101510952120056, No Iterations 2
[INFO] TimeStep: 2450.508 [ms]
ExecutionTime = 35.49 s  ClockTime = 36 s

Time = 7

velocityDampingConstraint velocityDamping damped 0 (0%) of cells, with max limit 300
[INFO] MatrixAssemblyU: 835.419 [ms]
[OGL LOG][Proc: 0]: global_index_init: 0.047 [ms]
[OGL LOG][Proc: 0]Ux_local_coeffs: call_update: 0 [ms]
[OGL LOG][Proc: 0]Ux_non_local_coeffs: call_update: 0 [ms]
[OGL LOG][Proc: 0]Ux: update_local_matrix_data: 15.467 [ms]
[OGL LOG][Proc: 0]Ux: update_non_local_matrix_data: 0.07200000000000001 [ms]
[OGL LOG][Proc: 0]Ux_matrix: call_update: 10.165 [ms]
[OGL LOG][Proc: 0]Ux_rhs: call_update: 0.8240000000000001 [ms]
[OGL LOG][Preconditioner.H:121] Generate preconditioner BJ MaxBlockSize 1
[OGL LOG][Proc: 0]Ux: init_precond: 0.418 [ms]
[OGL LOG][StoppingCriterion.H:373] Creating stopping criterion with minIter 12 frequency 1
[OGL LOG][Proc: 0]Ux: generate_solver: 0.002 [ms]
[OGL LOG][Proc: 0]Ux: solve: 62.158 [ms]
[OGL LOG][Proc: 0]Ux: copy_x_back: 2.092 [ms]
[OGL LOG][lduLduBase.H:336] 
Statistics:
	Time per iteration: 5650 [mu s]
	Time per residual norm calculation: 298.000000 [mu s]
	Time per iteration and DOF: 0.895811 [ns]
	Retrieve results bandwidth 3.008000 [GByte/s]
[OGL LOG][Proc: 0]Ux: solve_multi_gpu: 76.736 [ms]
BJhipGKOBiCGStab:  Solving for Ux, Initial residual = 0.0268626519617681, Final residual = 0.00225074938695356, No Iterations 11
[OGL LOG][Proc: 0]: global_index_init: 0.495 [ms]
[OGL LOG][Proc: 0]Uy_local_coeffs: call_update: 0 [ms]
[OGL LOG][Proc: 0]Uy_non_local_coeffs: call_update: 0 [ms]
[OGL LOG][Proc: 0]Uy: update_local_matrix_data: 15.756 [ms]
[OGL LOG][Proc: 0]Uy: update_non_local_matrix_data: 0.066 [ms]
[OGL LOG][Proc: 0]Uy_matrix: call_update: 6.025 [ms]
[OGL LOG][Proc: 0]Uy_rhs: call_update: 2.8 [ms]
[OGL LOG][Preconditioner.H:121] Generate preconditioner BJ MaxBlockSize 1
[OGL LOG][Proc: 0]Uy: init_precond: 0.509 [ms]
[OGL LOG][StoppingCriterion.H:373] Creating stopping criterion with minIter 15 frequency 1
[OGL LOG][Proc: 0]Uy: generate_solver: 0.002 [ms]
[OGL LOG][Proc: 0]Uy: solve: 58.634 [ms]
[OGL LOG][Proc: 0]Uy: copy_x_back: 2.143 [ms]
[OGL LOG][lduLduBase.H:336] 
Statistics:
	Time per iteration: 5863 [mu s]
	Time per residual norm calculation: 248.000000 [mu s]
	Time per iteration and DOF: 0.929582 [ns]
	Retrieve results bandwidth 2.936000 [GByte/s]
[OGL LOG][Proc: 0]Uy: solve_multi_gpu: 71.29000000000001 [ms]
BJhipGKOBiCGStab:  Solving for Uy, Initial residual = 0.086590911832112, Final residual = 0.008113974644126781, No Iterations 10
[OGL LOG][Proc: 0]: global_index_init: 0.724 [ms]
[OGL LOG][Proc: 0]Uz_local_coeffs: call_update: 0 [ms]
[OGL LOG][Proc: 0]Uz_non_local_coeffs: call_update: 0 [ms]
[OGL LOG][Proc: 0]Uz: update_local_matrix_data: 19.501 [ms]
[OGL LOG][Proc: 0]Uz: update_non_local_matrix_data: 0.06900000000000001 [ms]
[OGL LOG][Proc: 0]Uz_matrix: call_update: 5.68 [ms]
[OGL LOG][Proc: 0]Uz_rhs: call_update: 0.712 [ms]
[OGL LOG][Preconditioner.H:121] Generate preconditioner BJ MaxBlockSize 1
[OGL LOG][Proc: 0]Uz: init_precond: 0.43 [ms]
[OGL LOG][StoppingCriterion.H:373] Creating stopping criterion with minIter 14 frequency 1
[OGL LOG][Proc: 0]Uz: generate_solver: 0.002 [ms]
[OGL LOG][Proc: 0]Uz: solve: 56.613 [ms]
[OGL LOG][Proc: 0]Uz: copy_x_back: 2.098 [ms]
[OGL LOG][lduLduBase.H:336] 
Statistics:
	Time per iteration: 4717 [mu s]
	Time per residual norm calculation: 298.000000 [mu s]
	Time per iteration and DOF: 0.747883 [ns]
	Retrieve results bandwidth 2.999000 [GByte/s]
[OGL LOG][Proc: 0]Uz: solve_multi_gpu: 66.621 [ms]
BJhipGKOBiCGStab:  Solving for Uz, Initial residual = 0.0802820192313968, Final residual = 0.007904178784860388, No Iterations 12
[INFO] MomentumPredictor: 316.614 [ms]
[INFO] MatrixAssemblyPI: 115.315 [ms]
[INFO] MatrixAssemblyPII: 57.556 [ms]
GAMG:  Solving for p, Initial residual = 0.08447688016505249, Final residual = 0.000759758350753962, No Iterations 6
[INFO] SolveP: 487.387 [ms]
time step continuity errors : sum local = 0.006942590457854798, global = 4.687096062597395e-05, cumulative = -0.0004432733128516859
[INFO] postSolveP: 32.577 [ms]
[OGL LOG][Proc: 0]: global_index_init: 0.642 [ms]
[OGL LOG][Proc: 0]nuTilda_local_coeffs: call_update: 0 [ms]
[OGL LOG][Proc: 0]nuTilda_non_local_coeffs: call_update: 0 [ms]
[OGL LOG][Proc: 0]nuTilda: update_local_matrix_data: 16.312 [ms]
[OGL LOG][Proc: 0]nuTilda: update_non_local_matrix_data: 0.07100000000000001 [ms]
[OGL LOG][Proc: 0]nuTilda_matrix: call_update: 6.69 [ms]
[OGL LOG][Proc: 0]nuTilda_rhs: call_update: 0.8080000000000001 [ms]
[OGL LOG][Preconditioner.H:121] Generate preconditioner BJ MaxBlockSize 1
[OGL LOG][Proc: 0]nuTilda: init_precond: 0.596 [ms]
[OGL LOG][StoppingCriterion.H:373] Creating stopping criterion with minIter 3 frequency 1
[OGL LOG][Proc: 0]nuTilda: generate_solver: 0.002 [ms]
[OGL LOG][Proc: 0]nuTilda: solve: 42.74 [ms]
[OGL LOG][Proc: 0]nuTilda: copy_x_back: 2.015 [ms]
[OGL LOG][lduLduBase.H:336] 
Statistics:
	Time per iteration: 21370 [mu s]
	Time per residual norm calculation: 303.000000 [mu s]
	Time per iteration and DOF: 3.388226 [ns]
	Retrieve results bandwidth 3.123000 [GByte/s]
[OGL LOG][Proc: 0]nuTilda: solve_multi_gpu: 53.993 [ms]
BJhipGKOBiCGStab:  Solving for nuTilda, Initial residual = 0.04654352581293263, Final residual = 0.00377270490414831, No Iterations 2
[INFO] TimeStep: 2343.014 [ms]
ExecutionTime = 38.52 s  ClockTime = 39 s

Time = 8

velocityDampingConstraint velocityDamping damped 1 (0%) of cells, with max limit 300
[INFO] MatrixAssemblyU: 828.37 [ms]
[OGL LOG][Proc: 0]: global_index_init: 0.031 [ms]
[OGL LOG][Proc: 0]Ux_local_coeffs: call_update: 0 [ms]
[OGL LOG][Proc: 0]Ux_non_local_coeffs: call_update: 0 [ms]
[OGL LOG][Proc: 0]Ux: update_local_matrix_data: 15.271 [ms]
[OGL LOG][Proc: 0]Ux: update_non_local_matrix_data: 0.068 [ms]
[OGL LOG][Proc: 0]Ux_matrix: call_update: 9.986000000000001 [ms]
[OGL LOG][Proc: 0]Ux_rhs: call_update: 0.9380000000000001 [ms]
[OGL LOG][Preconditioner.H:121] Generate preconditioner BJ MaxBlockSize 1
[OGL LOG][Proc: 0]Ux: init_precond: 0.428 [ms]
[OGL LOG][StoppingCriterion.H:373] Creating stopping criterion with minIter 13 frequency 1
[OGL LOG][Proc: 0]Ux: generate_solver: 0.002 [ms]
[OGL LOG][Proc: 0]Ux: solve: 57.993 [ms]
[OGL LOG][Proc: 0]Ux: copy_x_back: 2.06 [ms]
[OGL LOG][lduLduBase.H:336] 
Statistics:
	Time per iteration: 5799 [mu s]
	Time per residual norm calculation: 252.000000 [mu s]
	Time per iteration and DOF: 0.919435 [ns]
	Retrieve results bandwidth 3.054000 [GByte/s]
[OGL LOG][Proc: 0]Ux: solve_multi_gpu: 72.532 [ms]
BJhipGKOBiCGStab:  Solving for Ux, Initial residual = 0.02109135530821239, Final residual = 0.001982084628310397, No Iterations 10
[OGL LOG][Proc: 0]: global_index_init: 0.8230000000000001 [ms]
[OGL LOG][Proc: 0]Uy_local_coeffs: call_update: 0 [ms]
[OGL LOG][Proc: 0]Uy_non_local_coeffs: call_update: 0 [ms]
[OGL LOG][Proc: 0]Uy: update_local_matrix_data: 15.3 [ms]
[OGL LOG][Proc: 0]Uy: update_non_local_matrix_data: 0.067 [ms]
[OGL LOG][Proc: 0]Uy_matrix: call_update: 6.924 [ms]
[OGL LOG][Proc: 0]Uy_rhs: call_update: 3.386 [ms]
[OGL LOG][Preconditioner.H:121] Generate preconditioner BJ MaxBlockSize 1
[OGL LOG][Proc: 0]Uy: init_precond: 0.458 [ms]
[OGL LOG][StoppingCriterion.H:373] Creating stopping criterion with minIter 12 frequency 1
[OGL LOG][Proc: 0]Uy: generate_solver: 0.002 [ms]
[OGL LOG][Proc: 0]Uy: solve: 58.042 [ms]
[OGL LOG][Proc: 0]Uy: copy_x_back: 2.096 [ms]
[OGL LOG][lduLduBase.H:336] 
Statistics:
	Time per iteration: 5276 [mu s]
	Time per residual norm calculation: 260.000000 [mu s]
	Time per iteration and DOF: 0.836513 [ns]
	Retrieve results bandwidth 3.002000 [GByte/s]
[OGL LOG][Proc: 0]Uy: solve_multi_gpu: 72.063 [ms]
BJhipGKOBiCGStab:  Solving for Uy, Initial residual = 0.06000094101120292, Final residual = 0.004890743100057869, No Iterations 11
[OGL LOG][Proc: 0]: global_index_init: 0.145 [ms]
[OGL LOG][Proc: 0]Uz_local_coeffs: call_update: 0 [ms]
[OGL LOG][Proc: 0]Uz_non_local_coeffs: call_update: 0 [ms]
[OGL LOG][Proc: 0]Uz: update_local_matrix_data: 15.549 [ms]
[OGL LOG][Proc: 0]Uz: update_non_local_matrix_data: 0.07100000000000001 [ms]
[OGL LOG][Proc: 0]Uz_matrix: call_update: 9.778 [ms]
[OGL LOG][Proc: 0]Uz_rhs: call_update: 2.246 [ms]
[OGL LOG][Preconditioner.H:121] Generate preconditioner BJ MaxBlockSize 1
[OGL LOG][Proc: 0]Uz: init_precond: 0.51 [ms]
[OGL LOG][StoppingCriterion.H:373] Creating stopping criterion with minIter 14 frequency 1
[OGL LOG][Proc: 0]Uz: generate_solver: 0.002 [ms]
[OGL LOG][Proc: 0]Uz: solve: 67.928 [ms]
[OGL LOG][Proc: 0]Uz: copy_x_back: 2.036 [ms]
[OGL LOG][lduLduBase.H:336] 
Statistics:
	Time per iteration: 6175 [mu s]
	Time per residual norm calculation: 247.000000 [mu s]
	Time per iteration and DOF: 0.979050 [ns]
	Retrieve results bandwidth 3.090000 [GByte/s]
[OGL LOG][Proc: 0]Uz: solve_multi_gpu: 83.61499999999999 [ms]
BJhipGKOBiCGStab:  Solving for Uz, Initial residual = 0.06589945808036021, Final residual = 0.006210116955037222, No Iterations 11
[INFO] MomentumPredictor: 325.788 [ms]
[INFO] MatrixAssemblyPI: 115.474 [ms]
[INFO] MatrixAssemblyPII: 58.859 [ms]
GAMG:  Solving for p, Initial residual = 0.07182283096944909, Final residual = 0.0005977212133551109, No Iterations 6
[INFO] SolveP: 490.241 [ms]
time step continuity errors : sum local = 0.00554265348635194, global = -3.460963729329789e-05, cumulative = -0.0004778829501449838
[INFO] postSolveP: 32.483 [ms]
[OGL LOG][Proc: 0]: global_index_init: 0.033 [ms]
[OGL LOG][Proc: 0]nuTilda_local_coeffs: call_update: 0 [ms]
[OGL LOG][Proc: 0]nuTilda_non_local_coeffs: call_update: 0 [ms]
[OGL LOG][Proc: 0]nuTilda: update_local_matrix_data: 15.622 [ms]
[OGL LOG][Proc: 0]nuTilda: update_non_local_matrix_data: 0.068 [ms]
[OGL LOG][Proc: 0]nuTilda_matrix: call_update: 6.136 [ms]
[OGL LOG][Proc: 0]nuTilda_rhs: call_update: 3.48 [ms]
[OGL LOG][Preconditioner.H:121] Generate preconditioner BJ MaxBlockSize 1
[OGL LOG][Proc: 0]nuTilda: init_precond: 0.546 [ms]
[OGL LOG][StoppingCriterion.H:373] Creating stopping criterion with minIter 2 frequency 1
[OGL LOG][Proc: 0]nuTilda: generate_solver: 0.002 [ms]
[OGL LOG][Proc: 0]nuTilda: solve: 44.751 [ms]
[OGL LOG][Proc: 0]nuTilda: copy_x_back: 2.082 [ms]
[OGL LOG][lduLduBase.H:336] 
Statistics:
	Time per iteration: 22375 [mu s]
	Time per residual norm calculation: 243.000000 [mu s]
	Time per iteration and DOF: 3.547569 [ns]
	Retrieve results bandwidth 3.022000 [GByte/s]
[OGL LOG][Proc: 0]nuTilda: solve_multi_gpu: 58.074 [ms]
BJhipGKOBiCGStab:  Solving for nuTilda, Initial residual = 0.05290135056040897, Final residual = 0.002475737147409711, No Iterations 2
[INFO] TimeStep: 2350.4 [ms]
ExecutionTime = 41.55 s  ClockTime = 42 s

Time = 9

velocityDampingConstraint velocityDamping damped 0 (0%) of cells, with max limit 300
[INFO] MatrixAssemblyU: 823.418 [ms]
[OGL LOG][Proc: 0]: global_index_init: 0.022 [ms]
[OGL LOG][Proc: 0]Ux_local_coeffs: call_update: 0 [ms]
[OGL LOG][Proc: 0]Ux_non_local_coeffs: call_update: 0 [ms]
[OGL LOG][Proc: 0]Ux: update_local_matrix_data: 15.352 [ms]
[OGL LOG][Proc: 0]Ux: update_non_local_matrix_data: 0.067 [ms]
[OGL LOG][Proc: 0]Ux_matrix: call_update: 6.502 [ms]
[OGL LOG][Proc: 0]Ux_rhs: call_update: 2.612 [ms]
[OGL LOG][Preconditioner.H:121] Generate preconditioner BJ MaxBlockSize 1
[OGL LOG][Proc: 0]Ux: init_precond: 0.5650000000000001 [ms]
[OGL LOG][StoppingCriterion.H:373] Creating stopping criterion with minIter 12 frequency 1
[OGL LOG][Proc: 0]Ux: generate_solver: 0.002 [ms]
[OGL LOG][Proc: 0]Ux: solve: 60.555 [ms]
[OGL LOG][Proc: 0]Ux: copy_x_back: 2.02 [ms]
[OGL LOG][lduLduBase.H:336] 
Statistics:
	Time per iteration: 5046 [mu s]
	Time per residual norm calculation: 246.000000 [mu s]
	Time per iteration and DOF: 0.800046 [ns]
	Retrieve results bandwidth 3.115000 [GByte/s]
[OGL LOG][Proc: 0]Ux: solve_multi_gpu: 73.367 [ms]
BJhipGKOBiCGStab:  Solving for Ux, Initial residual = 0.01777452316736867, Final residual = 0.001593702084925257, No Iterations 12
[OGL LOG][Proc: 0]: global_index_init: 0.888 [ms]
[OGL LOG][Proc: 0]Uy_local_coeffs: call_update: 0 [ms]
[OGL LOG][Proc: 0]Uy_non_local_coeffs: call_update: 0 [ms]
[OGL LOG][Proc: 0]Uy: update_local_matrix_data: 15.533 [ms]
[OGL LOG][Proc: 0]Uy: update_non_local_matrix_data: 0.067 [ms]
[OGL LOG][Proc: 0]Uy_matrix: call_update: 5.932 [ms]
[OGL LOG][Proc: 0]Uy_rhs: call_update: 3.996 [ms]
[OGL LOG][Preconditioner.H:121] Generate preconditioner BJ MaxBlockSize 1
[OGL LOG][Proc: 0]Uy: init_precond: 0.53 [ms]
[OGL LOG][StoppingCriterion.H:373] Creating stopping criterion with minIter 13 frequency 1
[OGL LOG][Proc: 0]Uy: generate_solver: 0.002 [ms]
[OGL LOG][Proc: 0]Uy: solve: 64.747 [ms]
[OGL LOG][Proc: 0]Uy: copy_x_back: 2.077 [ms]
[OGL LOG][lduLduBase.H:336] 
Statistics:
	Time per iteration: 6474 [mu s]
	Time per residual norm calculation: 245.000000 [mu s]
	Time per iteration and DOF: 1.026456 [ns]
	Retrieve results bandwidth 3.029000 [GByte/s]
[OGL LOG][Proc: 0]Uy: solve_multi_gpu: 78.379 [ms]
BJhipGKOBiCGStab:  Solving for Uy, Initial residual = 0.05139874889042474, Final residual = 0.004954834067534087, No Iterations 10
[OGL LOG][Proc: 0]: global_index_init: 0.538 [ms]
[OGL LOG][Proc: 0]Uz_local_coeffs: call_update: 0 [ms]
[OGL LOG][Proc: 0]Uz_non_local_coeffs: call_update: 0 [ms]
[OGL LOG][Proc: 0]Uz: update_local_matrix_data: 15.679 [ms]
[OGL LOG][Proc: 0]Uz: update_non_local_matrix_data: 0.074 [ms]
[OGL LOG][Proc: 0]Uz_matrix: call_update: 10.424 [ms]
[OGL LOG][Proc: 0]Uz_rhs: call_update: 0.8220000000000001 [ms]
[OGL LOG][Preconditioner.H:121] Generate preconditioner BJ MaxBlockSize 1
[OGL LOG][Proc: 0]Uz: init_precond: 0.44 [ms]
[OGL LOG][StoppingCriterion.H:373] Creating stopping criterion with minIter 13 frequency 1
[OGL LOG][Proc: 0]Uz: generate_solver: 0.002 [ms]
[OGL LOG][Proc: 0]Uz: solve: 65.70100000000001 [ms]
[OGL LOG][Proc: 0]Uz: copy_x_back: 2.054 [ms]
[OGL LOG][lduLduBase.H:336] 
Statistics:
	Time per iteration: 5475 [mu s]
	Time per residual norm calculation: 296.000000 [mu s]
	Time per iteration and DOF: 0.868064 [ns]
	Retrieve results bandwidth 3.063000 [GByte/s]
[OGL LOG][Proc: 0]Uz: solve_multi_gpu: 80.559 [ms]
BJhipGKOBiCGStab:  Solving for Uz, Initial residual = 0.05054469824288187, Final residual = 0.004145567122331079, No Iterations 12
[INFO] MomentumPredictor: 330.663 [ms]
[INFO] MatrixAssemblyPI: 119.485 [ms]
[INFO] MatrixAssemblyPII: 58.738 [ms]
GAMG:  Solving for p, Initial residual = 0.06577801504766137, Final residual = 0.0004558240591824515, No Iterations 6
[INFO] SolveP: 481.598 [ms]
time step continuity errors : sum local = 0.004179531208325554, global = -6.358234265298471e-05, cumulative = -0.0005414652927979685
[INFO] postSolveP: 31.897 [ms]
[OGL LOG][Proc: 0]: global_index_init: 0.046 [ms]
[OGL LOG][Proc: 0]nuTilda_local_coeffs: call_update: 0 [ms]
[OGL LOG][Proc: 0]nuTilda_non_local_coeffs: call_update: 0 [ms]
[OGL LOG][Proc: 0]nuTilda: update_local_matrix_data: 15.535 [ms]
[OGL LOG][Proc: 0]nuTilda: update_non_local_matrix_data: 0.122 [ms]
[OGL LOG][Proc: 0]nuTilda_matrix: call_update: 7.043 [ms]
[OGL LOG][Proc: 0]nuTilda_rhs: call_update: 1.522 [ms]
[OGL LOG][Preconditioner.H:121] Generate preconditioner BJ MaxBlockSize 1
[OGL LOG][Proc: 0]nuTilda: init_precond: 0.437 [ms]
[OGL LOG][StoppingCriterion.H:373] Creating stopping criterion with minIter 3 frequency 1
[OGL LOG][Proc: 0]nuTilda: generate_solver: 0.002 [ms]
[OGL LOG][Proc: 0]nuTilda: solve: 42.788 [ms]
[OGL LOG][Proc: 0]nuTilda: copy_x_back: 2.028 [ms]
[OGL LOG][lduLduBase.H:336] 
Statistics:
	Time per iteration: 21394 [mu s]
	Time per residual norm calculation: 267.000000 [mu s]
	Time per iteration and DOF: 3.392031 [ns]
	Retrieve results bandwidth 3.102000 [GByte/s]
[OGL LOG][Proc: 0]nuTilda: solve_multi_gpu: 54.969 [ms]
BJhipGKOBiCGStab:  Solving for nuTilda, Initial residual = 0.04133451637405241, Final residual = 0.003373828524914033, No Iterations 2
[INFO] TimeStep: 2340.183 [ms]
ExecutionTime = 44.56 s  ClockTime = 45 s

Time = 10

velocityDampingConstraint velocityDamping damped 0 (0%) of cells, with max limit 300
[INFO] MatrixAssemblyU: 818.169 [ms]
[OGL LOG][Proc: 0]: global_index_init: 0.055 [ms]
[OGL LOG][Proc: 0]Ux_local_coeffs: call_update: 0 [ms]
[OGL LOG][Proc: 0]Ux_non_local_coeffs: call_update: 0 [ms]
[OGL LOG][Proc: 0]Ux: update_local_matrix_data: 15.387 [ms]
[OGL LOG][Proc: 0]Ux: update_non_local_matrix_data: 0.121 [ms]
[OGL LOG][Proc: 0]Ux_matrix: call_update: 6.548 [ms]
[OGL LOG][Proc: 0]Ux_rhs: call_update: 1.438 [ms]
[OGL LOG][Preconditioner.H:121] Generate preconditioner BJ MaxBlockSize 1
[OGL LOG][Proc: 0]Ux: init_precond: 0.453 [ms]
[OGL LOG][StoppingCriterion.H:373] Creating stopping criterion with minIter 15 frequency 1
[OGL LOG][Proc: 0]Ux: generate_solver: 0.002 [ms]
[OGL LOG][Proc: 0]Ux: solve: 58.202 [ms]
[OGL LOG][Proc: 0]Ux: copy_x_back: 2.087 [ms]
[OGL LOG][lduLduBase.H:336] 
Statistics:
	Time per iteration: 4850 [mu s]
	Time per residual norm calculation: 247.000000 [mu s]
	Time per iteration and DOF: 0.768970 [ns]
	Retrieve results bandwidth 3.015000 [GByte/s]
[OGL LOG][Proc: 0]Ux: solve_multi_gpu: 69.86799999999999 [ms]
BJhipGKOBiCGStab:  Solving for Ux, Initial residual = 0.01562001807924294, Final residual = 0.001549466974077331, No Iterations 12
[OGL LOG][Proc: 0]: global_index_init: 0.988 [ms]
[OGL LOG][Proc: 0]Uy_local_coeffs: call_update: 0 [ms]
[OGL LOG][Proc: 0]Uy_non_local_coeffs: call_update: 0 [ms]
[OGL LOG][Proc: 0]Uy: update_local_matrix_data: 15.721 [ms]
[OGL LOG][Proc: 0]Uy: update_non_local_matrix_data: 0.074 [ms]
[OGL LOG][Proc: 0]Uy_matrix: call_update: 6.001 [ms]
[OGL LOG][Proc: 0]Uy_rhs: call_update: 2.467 [ms]
[OGL LOG][Preconditioner.H:121] Generate preconditioner BJ MaxBlockSize 1
[OGL LOG][Proc: 0]Uy: init_precond: 0.459 [ms]
[OGL LOG][StoppingCriterion.H:373] Creating stopping criterion with minIter 12 frequency 1
[OGL LOG][Proc: 0]Uy: generate_solver: 0.002 [ms]
[OGL LOG][Proc: 0]Uy: solve: 54.712 [ms]
[OGL LOG][Proc: 0]Uy: copy_x_back: 2.111 [ms]
[OGL LOG][lduLduBase.H:336] 
Statistics:
	Time per iteration: 5471 [mu s]
	Time per residual norm calculation: 298.000000 [mu s]
	Time per iteration and DOF: 0.867430 [ns]
	Retrieve results bandwidth 2.980000 [GByte/s]
[OGL LOG][Proc: 0]Uy: solve_multi_gpu: 66.91 [ms]
BJhipGKOBiCGStab:  Solving for Uy, Initial residual = 0.04872408199992825, Final residual = 0.00461928665687002, No Iterations 10
[OGL LOG][Proc: 0]: global_index_init: 0.798 [ms]
[OGL LOG][Proc: 0]Uz_local_coeffs: call_update: 0 [ms]
[OGL LOG][Proc: 0]Uz_non_local_coeffs: call_update: 0 [ms]
[OGL LOG][Proc: 0]Uz: update_local_matrix_data: 15.769 [ms]
[OGL LOG][Proc: 0]Uz: update_non_local_matrix_data: 0.13 [ms]
[OGL LOG][Proc: 0]Uz_matrix: call_update: 8.527000000000001 [ms]
[OGL LOG][Proc: 0]Uz_rhs: call_update: 2.614 [ms]
[OGL LOG][Preconditioner.H:121] Generate preconditioner BJ MaxBlockSize 1
[OGL LOG][Proc: 0]Uz: init_precond: 0.444 [ms]
[OGL LOG][StoppingCriterion.H:373] Creating stopping criterion with minIter 14 frequency 1
[OGL LOG][Proc: 0]Uz: generate_solver: 0.002 [ms]
[OGL LOG][Proc: 0]Uz: solve: 60.598 [ms]
[OGL LOG][Proc: 0]Uz: copy_x_back: 2.087 [ms]
[OGL LOG][lduLduBase.H:336] 
Statistics:
	Time per iteration: 5049 [mu s]
	Time per residual norm calculation: 257.000000 [mu s]
	Time per iteration and DOF: 0.800522 [ns]
	Retrieve results bandwidth 3.015000 [GByte/s]
[OGL LOG][Proc: 0]Uz: solve_multi_gpu: 75.348 [ms]
BJhipGKOBiCGStab:  Solving for Uz, Initial residual = 0.04602912942674026, Final residual = 0.003521621304279808, No Iterations 12
[INFO] MomentumPredictor: 314.373 [ms]
[INFO] MatrixAssemblyPI: 115.596 [ms]
[INFO] MatrixAssemblyPII: 57.499 [ms]
GAMG:  Solving for p, Initial residual = 0.06121113055647224, Final residual = 0.0004076765997623223, No Iterations 6
[INFO] SolveP: 483.552 [ms]
time step continuity errors : sum local = 0.003653484647466879, global = -3.059037051269677e-05, cumulative = -0.0005720556633106652
[INFO] postSolveP: 33.123 [ms]
[OGL LOG][Proc: 0]: global_index_init: 1.054 [ms]
[OGL LOG][Proc: 0]nuTilda_local_coeffs: call_update: 0 [ms]
[OGL LOG][Proc: 0]nuTilda_non_local_coeffs: call_update: 0 [ms]
[OGL LOG][Proc: 0]nuTilda: update_local_matrix_data: 15.628 [ms]
[OGL LOG][Proc: 0]nuTilda: update_non_local_matrix_data: 0.06900000000000001 [ms]
[OGL LOG][Proc: 0]nuTilda_matrix: call_update: 5.881 [ms]
[OGL LOG][Proc: 0]nuTilda_rhs: call_update: 3.536 [ms]
[OGL LOG][Preconditioner.H:121] Generate preconditioner BJ MaxBlockSize 1
[OGL LOG][Proc: 0]nuTilda: init_precond: 0.517 [ms]
[OGL LOG][StoppingCriterion.H:373] Creating stopping criterion with minIter 2 frequency 1
[OGL LOG][Proc: 0]nuTilda: generate_solver: 0.002 [ms]
[OGL LOG][Proc: 0]nuTilda: solve: 44.89 [ms]
[OGL LOG][Proc: 0]nuTilda: copy_x_back: 2.074 [ms]
[OGL LOG][lduLduBase.H:336] 
Statistics:
	Time per iteration: 22445 [mu s]
	Time per residual norm calculation: 305.000000 [mu s]
	Time per iteration and DOF: 3.558668 [ns]
	Retrieve results bandwidth 3.034000 [GByte/s]
[OGL LOG][Proc: 0]nuTilda: solve_multi_gpu: 57.984 [ms]
BJhipGKOBiCGStab:  Solving for nuTilda, Initial residual = 0.05822397935764395, Final residual = 0.005587148677865344, No Iterations 2
[INFO] TimeStep: 2319.063 [ms]
ExecutionTime = 47.55 s  ClockTime = 48 s

Time = 11

velocityDampingConstraint velocityDamping damped 0 (0%) of cells, with max limit 300
[INFO] MatrixAssemblyU: 811.451 [ms]
[OGL LOG][Proc: 0]: global_index_init: 0.043 [ms]
[OGL LOG][Proc: 0]Ux_local_coeffs: call_update: 0 [ms]
[OGL LOG][Proc: 0]Ux_non_local_coeffs: call_update: 0 [ms]
[OGL LOG][Proc: 0]Ux: update_local_matrix_data: 15.226 [ms]
[OGL LOG][Proc: 0]Ux: update_non_local_matrix_data: 0.06900000000000001 [ms]
[OGL LOG][Proc: 0]Ux_matrix: call_update: 10.226 [ms]
[OGL LOG][Proc: 0]Ux_rhs: call_update: 0.794 [ms]
[OGL LOG][Preconditioner.H:121] Generate preconditioner BJ MaxBlockSize 1
[OGL LOG][Proc: 0]Ux: init_precond: 0.498 [ms]
[OGL LOG][StoppingCriterion.H:373] Creating stopping criterion with minIter 15 frequency 1
[OGL LOG][Proc: 0]Ux: generate_solver: 0.002 [ms]
[OGL LOG][Proc: 0]Ux: solve: 59.257 [ms]
[OGL LOG][Proc: 0]Ux: copy_x_back: 2.039 [ms]
[OGL LOG][lduLduBase.H:336] 
Statistics:
	Time per iteration: 5925 [mu s]
	Time per residual norm calculation: 246.000000 [mu s]
	Time per iteration and DOF: 0.939412 [ns]
	Retrieve results bandwidth 3.086000 [GByte/s]
[OGL LOG][Proc: 0]Ux: solve_multi_gpu: 73.98 [ms]
BJhipGKOBiCGStab:  Solving for Ux, Initial residual = 0.01406211971406857, Final residual = 0.001270833097052636, No Iterations 10
[OGL LOG][Proc: 0]: global_index_init: 0.773 [ms]
[OGL LOG][Proc: 0]Uy_local_coeffs: call_update: 0 [ms]
[OGL LOG][Proc: 0]Uy_non_local_coeffs: call_update: 0 [ms]
[OGL LOG][Proc: 0]Uy: update_local_matrix_data: 15.494 [ms]
[OGL LOG][Proc: 0]Uy: update_non_local_matrix_data: 0.07000000000000001 [ms]
[OGL LOG][Proc: 0]Uy_matrix: call_update: 5.868 [ms]
[OGL LOG][Proc: 0]Uy_rhs: call_update: 3.391 [ms]
[OGL LOG][Preconditioner.H:121] Generate preconditioner BJ MaxBlockSize 1
[OGL LOG][Proc: 0]Uy: init_precond: 0.506 [ms]
[OGL LOG][StoppingCriterion.H:373] Creating stopping criterion with minIter 12 frequency 1
[OGL LOG][Proc: 0]Uy: generate_solver: 0.002 [ms]
[OGL LOG][Proc: 0]Uy: solve: 56.281 [ms]
[OGL LOG][Proc: 0]Uy: copy_x_back: 2.079 [ms]
[OGL LOG][lduLduBase.H:336] 
Statistics:
	Time per iteration: 5116 [mu s]
	Time per residual norm calculation: 299.000000 [mu s]
	Time per iteration and DOF: 0.811145 [ns]
	Retrieve results bandwidth 3.026000 [GByte/s]
[OGL LOG][Proc: 0]Uy: solve_multi_gpu: 69.294 [ms]
BJhipGKOBiCGStab:  Solving for Uy, Initial residual = 0.04490843334928672, Final residual = 0.003979779323671296, No Iterations 11
[OGL LOG][Proc: 0]: global_index_init: 0.59 [ms]
[OGL LOG][Proc: 0]Uz_local_coeffs: call_update: 0 [ms]
[OGL LOG][Proc: 0]Uz_non_local_coeffs: call_update: 0 [ms]
[OGL LOG][Proc: 0]Uz: update_local_matrix_data: 15.52 [ms]
[OGL LOG][Proc: 0]Uz: update_non_local_matrix_data: 0.07000000000000001 [ms]
[OGL LOG][Proc: 0]Uz_matrix: call_update: 6.356 [ms]
[OGL LOG][Proc: 0]Uz_rhs: call_update: 2.565 [ms]
[OGL LOG][Preconditioner.H:121] Generate preconditioner BJ MaxBlockSize 1
[OGL LOG][Proc: 0]Uz: init_precond: 0.487 [ms]
[OGL LOG][StoppingCriterion.H:373] Creating stopping criterion with minIter 14 frequency 1
[OGL LOG][Proc: 0]Uz: generate_solver: 0.002 [ms]
[OGL LOG][Proc: 0]Uz: solve: 58.275 [ms]
[OGL LOG][Proc: 0]Uz: copy_x_back: 2.094 [ms]
[OGL LOG][lduLduBase.H:336] 
Statistics:
	Time per iteration: 4856 [mu s]
	Time per residual norm calculation: 246.000000 [mu s]
	Time per iteration and DOF: 0.769922 [ns]
	Retrieve results bandwidth 3.005000 [GByte/s]
[OGL LOG][Proc: 0]Uz: solve_multi_gpu: 70.84700000000001 [ms]
BJhipGKOBiCGStab:  Solving for Uz, Initial residual = 0.04080137129497374, Final residual = 0.003685095597736753, No Iterations 12
[INFO] MomentumPredictor: 312.196 [ms]
[INFO] MatrixAssemblyPI: 115.709 [ms]
[INFO] MatrixAssemblyPII: 57.224 [ms]
GAMG:  Solving for p, Initial residual = 0.05941883811322536, Final residual = 0.0003771178517779185, No Iterations 6
[INFO] SolveP: 483.017 [ms]
time step continuity errors : sum local = 0.003328131390919945, global = 1.648260095151806e-06, cumulative = -0.0005704074032155134
[INFO] postSolveP: 32.663 [ms]
[OGL LOG][Proc: 0]: global_index_init: 0.038 [ms]
[OGL LOG][Proc: 0]nuTilda_local_coeffs: call_update: 0 [ms]
[OGL LOG][Proc: 0]nuTilda_non_local_coeffs: call_update: 0 [ms]
[OGL LOG][Proc: 0]nuTilda: update_local_matrix_data: 15.643 [ms]
[OGL LOG][Proc: 0]nuTilda: update_non_local_matrix_data: 0.07000000000000001 [ms]
[OGL LOG][Proc: 0]nuTilda_matrix: call_update: 6.748 [ms]
[OGL LOG][Proc: 0]nuTilda_rhs: call_update: 6.609 [ms]
[OGL LOG][Preconditioner.H:121] Generate preconditioner BJ MaxBlockSize 1
[OGL LOG][Proc: 0]nuTilda: init_precond: 0.583 [ms]
[OGL LOG][StoppingCriterion.H:373] Creating stopping criterion with minIter 2 frequency 1
[OGL LOG][Proc: 0]nuTilda: generate_solver: 0.002 [ms]
[OGL LOG][Proc: 0]nuTilda: solve: 49.899 [ms]
[OGL LOG][Proc: 0]nuTilda: copy_x_back: 2.062 [ms]
[OGL LOG][lduLduBase.H:336] 
Statistics:
	Time per iteration: 24949 [mu s]
	Time per residual norm calculation: 243.000000 [mu s]
	Time per iteration and DOF: 3.955678 [ns]
	Retrieve results bandwidth 3.051000 [GByte/s]
[OGL LOG][Proc: 0]nuTilda: solve_multi_gpu: 66.997 [ms]
BJhipGKOBiCGStab:  Solving for nuTilda, Initial residual = 0.03734820626522831, Final residual = 0.001860984567886885, No Iterations 2
[INFO] TimeStep: 2317.566 [ms]
ExecutionTime = 50.54 s  ClockTime = 51 s

Time = 12

velocityDampingConstraint velocityDamping damped 0 (0%) of cells, with max limit 300
[INFO] MatrixAssemblyU: 815.278 [ms]
[OGL LOG][Proc: 0]: global_index_init: 0.041 [ms]
[OGL LOG][Proc: 0]Ux_local_coeffs: call_update: 0 [ms]
[OGL LOG][Proc: 0]Ux_non_local_coeffs: call_update: 0 [ms]
[OGL LOG][Proc: 0]Ux: update_local_matrix_data: 15.341 [ms]
[OGL LOG][Proc: 0]Ux: update_non_local_matrix_data: 0.076 [ms]
[OGL LOG][Proc: 0]Ux_matrix: call_update: 9.122 [ms]
[OGL LOG][Proc: 0]Ux_rhs: call_update: 1.906 [ms]
[OGL LOG][Preconditioner.H:121] Generate preconditioner BJ MaxBlockSize 1
[OGL LOG][Proc: 0]Ux: init_precond: 0.457 [ms]
[OGL LOG][StoppingCriterion.H:373] Creating stopping criterion with minIter 12 frequency 1
[OGL LOG][Proc: 0]Ux: generate_solver: 0.002 [ms]
[OGL LOG][Proc: 0]Ux: solve: 63.187 [ms]
[OGL LOG][Proc: 0]Ux: copy_x_back: 2.075 [ms]
[OGL LOG][lduLduBase.H:336] 
Statistics:
	Time per iteration: 5265 [mu s]
	Time per residual norm calculation: 298.000000 [mu s]
	Time per iteration and DOF: 0.834769 [ns]
	Retrieve results bandwidth 3.032000 [GByte/s]
[OGL LOG][Proc: 0]Ux: solve_multi_gpu: 77.91500000000001 [ms]
BJhipGKOBiCGStab:  Solving for Ux, Initial residual = 0.01304149291990704, Final residual = 0.000723408570773692, No Iterations 12
[OGL LOG][Proc: 0]: global_index_init: 0.469 [ms]
[OGL LOG][Proc: 0]Uy_local_coeffs: call_update: 0 [ms]
[OGL LOG][Proc: 0]Uy_non_local_coeffs: call_update: 0 [ms]
[OGL LOG][Proc: 0]Uy: update_local_matrix_data: 15.477 [ms]
[OGL LOG][Proc: 0]Uy: update_non_local_matrix_data: 0.06900000000000001 [ms]
[OGL LOG][Proc: 0]Uy_matrix: call_update: 6.02 [ms]
[OGL LOG][Proc: 0]Uy_rhs: call_update: 2.555 [ms]
[OGL LOG][Preconditioner.H:121] Generate preconditioner BJ MaxBlockSize 1
[OGL LOG][Proc: 0]Uy: init_precond: 0.476 [ms]
[OGL LOG][StoppingCriterion.H:373] Creating stopping criterion with minIter 13 frequency 1
[OGL LOG][Proc: 0]Uy: generate_solver: 0.002 [ms]
[OGL LOG][Proc: 0]Uy: solve: 56.135 [ms]
[OGL LOG][Proc: 0]Uy: copy_x_back: 2.08 [ms]
[OGL LOG][lduLduBase.H:336] 
Statistics:
	Time per iteration: 5613 [mu s]
	Time per residual norm calculation: 251.000000 [mu s]
	Time per iteration and DOF: 0.889944 [ns]
	Retrieve results bandwidth 3.025000 [GByte/s]
[OGL LOG][Proc: 0]Uy: solve_multi_gpu: 68.554 [ms]
BJhipGKOBiCGStab:  Solving for Uy, Initial residual = 0.05351094543786462, Final residual = 0.004958486890469564, No Iterations 10
[OGL LOG][Proc: 0]: global_index_init: 0.7010000000000001 [ms]
[OGL LOG][Proc: 0]Uz_local_coeffs: call_update: 0 [ms]
[OGL LOG][Proc: 0]Uz_non_local_coeffs: call_update: 0 [ms]
[OGL LOG][Proc: 0]Uz: update_local_matrix_data: 15.572 [ms]
[OGL LOG][Proc: 0]Uz: update_non_local_matrix_data: 0.07200000000000001 [ms]
[OGL LOG][Proc: 0]Uz_matrix: call_update: 5.833 [ms]
[OGL LOG][Proc: 0]Uz_rhs: call_update: 3.161 [ms]
[OGL LOG][Preconditioner.H:121] Generate preconditioner BJ MaxBlockSize 1
[OGL LOG][Proc: 0]Uz: init_precond: 0.45 [ms]
[OGL LOG][StoppingCriterion.H:373] Creating stopping criterion with minIter 15 frequency 1
[OGL LOG][Proc: 0]Uz: generate_solver: 0.002 [ms]
[OGL LOG][Proc: 0]Uz: solve: 54.813 [ms]
[OGL LOG][Proc: 0]Uz: copy_x_back: 2.056 [ms]
[OGL LOG][lduLduBase.H:336] 
Statistics:
	Time per iteration: 5481 [mu s]
	Time per residual norm calculation: 299.000000 [mu s]
	Time per iteration and DOF: 0.869016 [ns]
	Retrieve results bandwidth 3.060000 [GByte/s]
[OGL LOG][Proc: 0]Uz: solve_multi_gpu: 67.446 [ms]
BJhipGKOBiCGStab:  Solving for Uz, Initial residual = 0.04019970529365947, Final residual = 0.003976764291225731, No Iterations 10
[INFO] MomentumPredictor: 311.722 [ms]
[INFO] MatrixAssemblyPI: 114.974 [ms]
[INFO] MatrixAssemblyPII: 57.315 [ms]
GAMG:  Solving for p, Initial residual = 0.05507668904447371, Final residual = 0.0003602977537299249, No Iterations 6
[INFO] SolveP: 486.05 [ms]
time step continuity errors : sum local = 0.003144326580712812, global = 3.602224074225876e-05, cumulative = -0.0005343851624732546
[INFO] postSolveP: 31.886 [ms]
[OGL LOG][Proc: 0]: global_index_init: 0.08400000000000001 [ms]
[OGL LOG][Proc: 0]nuTilda_local_coeffs: call_update: 0 [ms]
[OGL LOG][Proc: 0]nuTilda_non_local_coeffs: call_update: 0 [ms]
[OGL LOG][Proc: 0]nuTilda: update_local_matrix_data: 15.472 [ms]
[OGL LOG][Proc: 0]nuTilda: update_non_local_matrix_data: 0.06900000000000001 [ms]
[OGL LOG][Proc: 0]nuTilda_matrix: call_update: 6.502 [ms]
[OGL LOG][Proc: 0]nuTilda_rhs: call_update: 2.147 [ms]
[OGL LOG][Preconditioner.H:121] Generate preconditioner BJ MaxBlockSize 1
[OGL LOG][Proc: 0]nuTilda: init_precond: 0.517 [ms]
[OGL LOG][StoppingCriterion.H:373] Creating stopping criterion with minIter 3 frequency 1
[OGL LOG][Proc: 0]nuTilda: generate_solver: 0.002 [ms]
[...]
[OGL LOG][Proc: 0]Uy_rhs: call_update: 2.681 [ms]
[OGL LOG][Preconditioner.H:121] Generate preconditioner BJ MaxBlockSize 1
[OGL LOG][Proc: 0]Uy: init_precond: 0.454 [ms]
[OGL LOG][StoppingCriterion.H:373] Creating stopping criterion with minIter 13 frequency 1
[OGL LOG][Proc: 0]Uy: generate_solver: 0.002 [ms]
[OGL LOG][Proc: 0]Uy: solve: 58.579 [ms]
[OGL LOG][Proc: 0]Uy: copy_x_back: 2.052 [ms]
[OGL LOG][lduLduBase.H:336] 
Statistics:
	Time per iteration: 5325 [mu s]
	Time per residual norm calculation: 245.000000 [mu s]
	Time per iteration and DOF: 0.844282 [ns]
	Retrieve results bandwidth 3.066000 [GByte/s]
[OGL LOG][Proc: 0]Uy: solve_multi_gpu: 71.586 [ms]
BJhipGKOBiCGStab:  Solving for Uy, Initial residual = 0.07412996620125242, Final residual = 0.007170079072949795, No Iterations 11
[OGL LOG][Proc: 0]: global_index_init: 1.07 [ms]
[OGL LOG][Proc: 0]Uz_local_coeffs: call_update: 0 [ms]
[OGL LOG][Proc: 0]Uz_non_local_coeffs: call_update: 0 [ms]
[OGL LOG][Proc: 0]Uz: update_local_matrix_data: 15.585 [ms]
[OGL LOG][Proc: 0]Uz: update_non_local_matrix_data: 0.06900000000000001 [ms]
[OGL LOG][Proc: 0]Uz_matrix: call_update: 5.723 [ms]
[OGL LOG][Proc: 0]Uz_rhs: call_update: 3.557 [ms]
[OGL LOG][Preconditioner.H:121] Generate preconditioner BJ MaxBlockSize 1
[OGL LOG][Proc: 0]Uz: init_precond: 0.517 [ms]
[OGL LOG][StoppingCriterion.H:373] Creating stopping criterion with minIter 14 frequency 1
[OGL LOG][Proc: 0]Uz: generate_solver: 0.002 [ms]
[OGL LOG][Proc: 0]Uz: solve: 57.606 [ms]
[OGL LOG][Proc: 0]Uz: copy_x_back: 2.088 [ms]
[OGL LOG][lduLduBase.H:336] 
Statistics:
	Time per iteration: 5236 [mu s]
	Time per residual norm calculation: 251.000000 [mu s]
	Time per iteration and DOF: 0.830171 [ns]
	Retrieve results bandwidth 3.013000 [GByte/s]
[OGL LOG][Proc: 0]Uz: solve_multi_gpu: 70.581 [ms]
BJhipGKOBiCGStab:  Solving for Uz, Initial residual = 0.09413240893392889, Final residual = 0.009356159307091962, No Iterations 11
[INFO] MomentumPredictor: 318.389 [ms]
[INFO] MatrixAssemblyPI: 114.162 [ms]
[INFO] MatrixAssemblyPII: 57.132 [ms]
GAMG:  Solving for p, Initial residual = 0.06621546753458601, Final residual = 0.0005133531329740597, No Iterations 5
[INFO] SolveP: 411.906 [ms]
time step continuity errors : sum local = 0.006116729459515344, global = 4.692756228559801e-05, cumulative = 9.191317975666353e-05
[INFO] postSolveP: 31.828 [ms]
[OGL LOG][Proc: 0]: global_index_init: 0.383 [ms]
[OGL LOG][Proc: 0]nuTilda_local_coeffs: call_update: 0 [ms]
[OGL LOG][Proc: 0]nuTilda_non_local_coeffs: call_update: 0 [ms]
[OGL LOG][Proc: 0]nuTilda: update_local_matrix_data: 15.6 [ms]
[OGL LOG][Proc: 0]nuTilda: update_non_local_matrix_data: 0.075 [ms]
[OGL LOG][Proc: 0]nuTilda_matrix: call_update: 6.401 [ms]
[OGL LOG][Proc: 0]nuTilda_rhs: call_update: 3.433 [ms]
[OGL LOG][Preconditioner.H:121] Generate preconditioner BJ MaxBlockSize 1
[OGL LOG][Proc: 0]nuTilda: init_precond: 0.511 [ms]
[OGL LOG][StoppingCriterion.H:373] Creating stopping criterion with minIter 2 frequency 1
[OGL LOG][Proc: 0]nuTilda: generate_solver: 0.002 [ms]
[OGL LOG][Proc: 0]nuTilda: solve: 53.266 [ms]
[OGL LOG][Proc: 0]nuTilda: copy_x_back: 2.058 [ms]
[OGL LOG][lduLduBase.H:336] 
Statistics:
	Time per iteration: 26633 [mu s]
	Time per residual norm calculation: 246.000000 [mu s]
	Time per iteration and DOF: 4.222677 [ns]
	Retrieve results bandwidth 3.057000 [GByte/s]
[OGL LOG][Proc: 0]nuTilda: solve_multi_gpu: 66.83500000000001 [ms]
BJhipGKOBiCGStab:  Solving for nuTilda, Initial residual = 0.01190212961047751, Final residual = 0.000881527210209004, No Iterations 2
bounding nuTilda, min: -8.70975304441553e-05 max: 0.006992967678923852 average: 0.0003523263488711074
[INFO] TimeStep: 2269.611 [ms]
ExecutionTime = 158.26 s  ClockTime = 158 s

Time = 48

velocityDampingConstraint velocityDamping damped 0 (0%) of cells, with max limit 300
[INFO] MatrixAssemblyU: 808.058 [ms]
[OGL LOG][Proc: 0]: global_index_init: 0.039 [ms]
[OGL LOG][Proc: 0]Ux_local_coeffs: call_update: 0 [ms]
[OGL LOG][Proc: 0]Ux_non_local_coeffs: call_update: 0 [ms]
[OGL LOG][Proc: 0]Ux: update_local_matrix_data: 15.283 [ms]
[OGL LOG][Proc: 0]Ux: update_non_local_matrix_data: 0.07100000000000001 [ms]
[OGL LOG][Proc: 0]Ux_matrix: call_update: 6.57 [ms]
[OGL LOG][Proc: 0]Ux_rhs: call_update: 2.539 [ms]
[OGL LOG][Preconditioner.H:121] Generate preconditioner BJ MaxBlockSize 1
[OGL LOG][Proc: 0]Ux: init_precond: 0.581 [ms]
[OGL LOG][StoppingCriterion.H:373] Creating stopping criterion with minIter 14 frequency 1
[OGL LOG][Proc: 0]Ux: generate_solver: 0.002 [ms]
[OGL LOG][Proc: 0]Ux: solve: 64.916 [ms]
[OGL LOG][Proc: 0]Ux: copy_x_back: 2.066 [ms]
[OGL LOG][lduLduBase.H:336] 
Statistics:
	Time per iteration: 6491 [mu s]
	Time per residual norm calculation: 8558.000000 [mu s]
	Time per iteration and DOF: 1.029152 [ns]
	Retrieve results bandwidth 3.045000 [GByte/s]
[OGL LOG][Proc: 0]Ux: solve_multi_gpu: 77.819 [ms]
BJhipGKOBiCGStab:  Solving for Ux, Initial residual = 0.01470289142618059, Final residual = 0.001332586454936496, No Iterations 10
[OGL LOG][Proc: 0]: global_index_init: 0.869 [ms]
[OGL LOG][Proc: 0]Uy_local_coeffs: call_update: 0 [ms]
[OGL LOG][Proc: 0]Uy_non_local_coeffs: call_update: 0 [ms]
[OGL LOG][Proc: 0]Uy: update_local_matrix_data: 15.722 [ms]
[OGL LOG][Proc: 0]Uy: update_non_local_matrix_data: 0.068 [ms]
[OGL LOG][Proc: 0]Uy_matrix: call_update: 11.373 [ms]
[OGL LOG][Proc: 0]Uy_rhs: call_update: 0.8320000000000001 [ms]
[OGL LOG][Preconditioner.H:121] Generate preconditioner BJ MaxBlockSize 1
[OGL LOG][Proc: 0]Uy: init_precond: 0.432 [ms]
[OGL LOG][StoppingCriterion.H:373] Creating stopping criterion with minIter 13 frequency 1
[OGL LOG][Proc: 0]Uy: generate_solver: 0.002 [ms]
[OGL LOG][Proc: 0]Uy: solve: 67.626 [ms]
[OGL LOG][Proc: 0]Uy: copy_x_back: 2.099 [ms]
[OGL LOG][lduLduBase.H:336] 
Statistics:
	Time per iteration: 4226 [mu s]
	Time per residual norm calculation: 298.000000 [mu s]
	Time per iteration and DOF: 0.670035 [ns]
	Retrieve results bandwidth 2.998000 [GByte/s]
[OGL LOG][Proc: 0]Uy: solve_multi_gpu: 83.538 [ms]
BJhipGKOBiCGStab:  Solving for Uy, Initial residual = 0.07124253267764144, Final residual = 0.003185725829236889, No Iterations 16
[OGL LOG][Proc: 0]: global_index_init: 1.019 [ms]
[OGL LOG][Proc: 0]Uz_local_coeffs: call_update: 0 [ms]
[OGL LOG][Proc: 0]Uz_non_local_coeffs: call_update: 0 [ms]
[OGL LOG][Proc: 0]Uz: update_local_matrix_data: 15.626 [ms]
[OGL LOG][Proc: 0]Uz: update_non_local_matrix_data: 0.07100000000000001 [ms]
[OGL LOG][Proc: 0]Uz_matrix: call_update: 9.481 [ms]
[OGL LOG][Proc: 0]Uz_rhs: call_update: 2.4 [ms]
[OGL LOG][Preconditioner.H:121] Generate preconditioner BJ MaxBlockSize 1
[OGL LOG][Proc: 0]Uz: init_precond: 0.461 [ms]
[OGL LOG][StoppingCriterion.H:373] Creating stopping criterion with minIter 13 frequency 1
[OGL LOG][Proc: 0]Uz: generate_solver: 0.002 [ms]
[OGL LOG][Proc: 0]Uz: solve: 56.893 [ms]
[OGL LOG][Proc: 0]Uz: copy_x_back: 2.052 [ms]
[OGL LOG][lduLduBase.H:336] 
Statistics:
	Time per iteration: 5689 [mu s]
	Time per residual norm calculation: 261.000000 [mu s]
	Time per iteration and DOF: 0.901994 [ns]
	Retrieve results bandwidth 3.066000 [GByte/s]
[OGL LOG][Proc: 0]Uz: solve_multi_gpu: 72.45 [ms]
BJhipGKOBiCGStab:  Solving for Uz, Initial residual = 0.08441258242930073, Final residual = 0.008239660461544909, No Iterations 10
[INFO] MomentumPredictor: 333.124 [ms]
[INFO] MatrixAssemblyPI: 119.174 [ms]
[INFO] MatrixAssemblyPII: 57.414 [ms]
GAMG:  Solving for p, Initial residual = 0.06392409923205851, Final residual = 0.0004895601518277255, No Iterations 5
[INFO] SolveP: 410.327 [ms]
time step continuity errors : sum local = 0.005686618568366328, global = 1.286801620872364e-05, cumulative = 0.0001047811959653872
[INFO] postSolveP: 31.554 [ms]
[OGL LOG][Proc: 0]: global_index_init: 0.205 [ms]
[OGL LOG][Proc: 0]nuTilda_local_coeffs: call_update: 0 [ms]
[OGL LOG][Proc: 0]nuTilda_non_local_coeffs: call_update: 0 [ms]
[OGL LOG][Proc: 0]nuTilda: update_local_matrix_data: 15.563 [ms]
[OGL LOG][Proc: 0]nuTilda: update_non_local_matrix_data: 0.075 [ms]
[OGL LOG][Proc: 0]nuTilda_matrix: call_update: 7.033 [ms]
[OGL LOG][Proc: 0]nuTilda_rhs: call_update: 3.091 [ms]
[OGL LOG][Preconditioner.H:121] Generate preconditioner BJ MaxBlockSize 1
[OGL LOG][Proc: 0]nuTilda: init_precond: 0.445 [ms]
[OGL LOG][StoppingCriterion.H:373] Creating stopping criterion with minIter 3 frequency 1
[OGL LOG][Proc: 0]nuTilda: generate_solver: 0.002 [ms]
[OGL LOG][Proc: 0]nuTilda: solve: 43.74 [ms]
[OGL LOG][Proc: 0]nuTilda: copy_x_back: 2.098 [ms]
[OGL LOG][lduLduBase.H:336] 
Statistics:
	Time per iteration: 21870 [mu s]
	Time per residual norm calculation: 249.000000 [mu s]
	Time per iteration and DOF: 3.467501 [ns]
	Retrieve results bandwidth 2.999000 [GByte/s]
[OGL LOG][Proc: 0]nuTilda: solve_multi_gpu: 57.541 [ms]
BJhipGKOBiCGStab:  Solving for nuTilda, Initial residual = 0.01512990708137221, Final residual = 0.0009264036884909066, No Iterations 2
bounding nuTilda, min: -4.041157685649119e-05 max: 0.007044251896411926 average: 0.0003618893807734353
[INFO] TimeStep: 2276.16 [ms]
ExecutionTime = 161.2 s  ClockTime = 161 s

Time = 49

velocityDampingConstraint velocityDamping damped 0 (0%) of cells, with max limit 300
[INFO] MatrixAssemblyU: 810.972 [ms]
[OGL LOG][Proc: 0]: global_index_init: 0.023 [ms]
[OGL LOG][Proc: 0]Ux_local_coeffs: call_update: 0 [ms]
[OGL LOG][Proc: 0]Ux_non_local_coeffs: call_update: 0 [ms]
[OGL LOG][Proc: 0]Ux: update_local_matrix_data: 15.304 [ms]
[OGL LOG][Proc: 0]Ux: update_non_local_matrix_data: 0.077 [ms]
[OGL LOG][Proc: 0]Ux_matrix: call_update: 6.607 [ms]
[OGL LOG][Proc: 0]Ux_rhs: call_update: 2.643 [ms]
[OGL LOG][Preconditioner.H:121] Generate preconditioner BJ MaxBlockSize 1
[OGL LOG][Proc: 0]Ux: init_precond: 0.504 [ms]
[OGL LOG][StoppingCriterion.H:373] Creating stopping criterion with minIter 0 frequency 1
[OGL LOG][Proc: 0]Ux: generate_solver: 0.002 [ms]
[OGL LOG][Proc: 0]Ux: solve: 71.91 [ms]
[OGL LOG][Proc: 0]Ux: copy_x_back: 2.102 [ms]
[OGL LOG][lduLduBase.H:336] 
Statistics:
	Time per iteration: 4794 [mu s]
	Time per residual norm calculation: 261.000000 [mu s]
	Time per iteration and DOF: 0.760091 [ns]
	Retrieve results bandwidth 2.993000 [GByte/s]
[OGL LOG][Proc: 0]Ux: solve_multi_gpu: 84.881 [ms]
BJhipGKOBiCGStab:  Solving for Ux, Initial residual = 0.01378229497880909, Final residual = 0.001157214578646454, No Iterations 15
[OGL LOG][Proc: 0]: global_index_init: 0.906 [ms]
[OGL LOG][Proc: 0]Uy_local_coeffs: call_update: 0 [ms]
[OGL LOG][Proc: 0]Uy_non_local_coeffs: call_update: 0 [ms]
[OGL LOG][Proc: 0]Uy: update_local_matrix_data: 15.853 [ms]
[OGL LOG][Proc: 0]Uy: update_non_local_matrix_data: 0.065 [ms]
[OGL LOG][Proc: 0]Uy_matrix: call_update: 10.135 [ms]
[OGL LOG][Proc: 0]Uy_rhs: call_update: 0.964 [ms]
[OGL LOG][Preconditioner.H:121] Generate preconditioner BJ MaxBlockSize 1
[OGL LOG][Proc: 0]Uy: init_precond: 0.462 [ms]
[OGL LOG][StoppingCriterion.H:373] Creating stopping criterion with minIter 19 frequency 1
[OGL LOG][Proc: 0]Uy: generate_solver: 0.002 [ms]
[OGL LOG][Proc: 0]Uy: solve: 66.932 [ms]
[OGL LOG][Proc: 0]Uy: copy_x_back: 2.067 [ms]
[OGL LOG][lduLduBase.H:336] 
Statistics:
	Time per iteration: 5148 [mu s]
	Time per residual norm calculation: 248.000000 [mu s]
	Time per iteration and DOF: 0.816218 [ns]
	Retrieve results bandwidth 3.044000 [GByte/s]
[OGL LOG][Proc: 0]Uy: solve_multi_gpu: 81.729 [ms]
BJhipGKOBiCGStab:  Solving for Uy, Initial residual = 0.0758702706264086, Final residual = 0.006271990320723302, No Iterations 13
[OGL LOG][Proc: 0]: global_index_init: 1.019 [ms]
[OGL LOG][Proc: 0]Uz_local_coeffs: call_update: 0 [ms]
[OGL LOG][Proc: 0]Uz_non_local_coeffs: call_update: 0 [ms]
[OGL LOG][Proc: 0]Uz: update_local_matrix_data: 15.617 [ms]
[OGL LOG][Proc: 0]Uz: update_non_local_matrix_data: 0.07000000000000001 [ms]
[OGL LOG][Proc: 0]Uz_matrix: call_update: 10.772 [ms]
[OGL LOG][Proc: 0]Uz_rhs: call_update: 2.831 [ms]
[OGL LOG][Preconditioner.H:121] Generate preconditioner BJ MaxBlockSize 1
[OGL LOG][Proc: 0]Uz: init_precond: 0.511 [ms]
[OGL LOG][StoppingCriterion.H:373] Creating stopping criterion with minIter 12 frequency 1
[OGL LOG][Proc: 0]Uz: generate_solver: 0.002 [ms]
[OGL LOG][Proc: 0]Uz: solve: 67.595 [ms]
[OGL LOG][Proc: 0]Uz: copy_x_back: 2.118 [ms]
[OGL LOG][lduLduBase.H:336] 
Statistics:
	Time per iteration: 4224 [mu s]
	Time per residual norm calculation: 245.000000 [mu s]
	Time per iteration and DOF: 0.669718 [ns]
	Retrieve results bandwidth 2.971000 [GByte/s]
[OGL LOG][Proc: 0]Uz: solve_multi_gpu: 84.986 [ms]
BJhipGKOBiCGStab:  Solving for Uz, Initial residual = 0.07882831422667491, Final residual = 0.007421057789489606, No Iterations 16
[INFO] MomentumPredictor: 350.544 [ms]
[INFO] MatrixAssemblyPI: 114.248 [ms]
[INFO] MatrixAssemblyPII: 57.248 [ms]
GAMG:  Solving for p, Initial residual = 0.06171312006568527, Final residual = 0.0005323302649449295, No Iterations 5
[INFO] SolveP: 407.859 [ms]
time step continuity errors : sum local = 0.006044653914084715, global = -2.717180045212922e-05, cumulative = 7.760939551325795e-05
[INFO] postSolveP: 31.607 [ms]
[OGL LOG][Proc: 0]: global_index_init: 1.641 [ms]
[OGL LOG][Proc: 0]nuTilda_local_coeffs: call_update: 0 [ms]
[OGL LOG][Proc: 0]nuTilda_non_local_coeffs: call_update: 0 [ms]
[OGL LOG][Proc: 0]nuTilda: update_local_matrix_data: 15.601 [ms]
[OGL LOG][Proc: 0]nuTilda: update_non_local_matrix_data: 0.07100000000000001 [ms]
[OGL LOG][Proc: 0]nuTilda_matrix: call_update: 7.156000000000001 [ms]
[OGL LOG][Proc: 0]nuTilda_rhs: call_update: 2.086 [ms]
[OGL LOG][Preconditioner.H:121] Generate preconditioner BJ MaxBlockSize 1
[OGL LOG][Proc: 0]nuTilda: init_precond: 0.587 [ms]
[OGL LOG][StoppingCriterion.H:373] Creating stopping criterion with minIter 3 frequency 1
[OGL LOG][Proc: 0]nuTilda: generate_solver: 0.002 [ms]
[OGL LOG][Proc: 0]nuTilda: solve: 45.064 [ms]
[OGL LOG][Proc: 0]nuTilda: copy_x_back: 2.486 [ms]
[OGL LOG][lduLduBase.H:336] 
Statistics:
	Time per iteration: 22532 [mu s]
	Time per residual norm calculation: 244.000000 [mu s]
	Time per iteration and DOF: 3.572461 [ns]
	Retrieve results bandwidth 2.531000 [GByte/s]
[OGL LOG][Proc: 0]nuTilda: solve_multi_gpu: 58.548 [ms]
BJhipGKOBiCGStab:  Solving for nuTilda, Initial residual = 0.01130417109399534, Final residual = 0.0007582804475630236, No Iterations 2
bounding nuTilda, min: -6.155609521917656e-05 max: 0.007092355535173141 average: 0.0003721816784946829
[INFO] TimeStep: 2289.671 [ms]
ExecutionTime = 164.16 s  ClockTime = 164 s

Time = 50

velocityDampingConstraint velocityDamping damped 0 (0%) of cells, with max limit 300
[INFO] MatrixAssemblyU: 807.495 [ms]
[OGL LOG][Proc: 0]: global_index_init: 0.057 [ms]
[OGL LOG][Proc: 0]Ux_local_coeffs: call_update: 0 [ms]
[OGL LOG][Proc: 0]Ux_non_local_coeffs: call_update: 0 [ms]
[OGL LOG][Proc: 0]Ux: update_local_matrix_data: 15.344 [ms]
[OGL LOG][Proc: 0]Ux: update_non_local_matrix_data: 0.06900000000000001 [ms]
[OGL LOG][Proc: 0]Ux_matrix: call_update: 6.881 [ms]
[OGL LOG][Proc: 0]Ux_rhs: call_update: 2.584 [ms]
[OGL LOG][Preconditioner.H:121] Generate preconditioner BJ MaxBlockSize 1
[OGL LOG][Proc: 0]Ux: init_precond: 0.6 [ms]
[OGL LOG][StoppingCriterion.H:373] Creating stopping criterion with minIter 18 frequency 1
[OGL LOG][Proc: 0]Ux: generate_solver: 0.002 [ms]
[OGL LOG][Proc: 0]Ux: solve: 58.451 [ms]
[OGL LOG][Proc: 0]Ux: copy_x_back: 2.137 [ms]
[OGL LOG][lduLduBase.H:336] 
Statistics:
	Time per iteration: 4496 [mu s]
	Time per residual norm calculation: 294.000000 [mu s]
	Time per iteration and DOF: 0.712843 [ns]
	Retrieve results bandwidth 2.944000 [GByte/s]
[OGL LOG][Proc: 0]Ux: solve_multi_gpu: 71.749 [ms]
BJhipGKOBiCGStab:  Solving for Ux, Initial residual = 0.01354129718912295, Final residual = 0.001088016637573759, No Iterations 13
[OGL LOG][Proc: 0]: global_index_init: 0.539 [ms]
[OGL LOG][Proc: 0]Uy_local_coeffs: call_update: 0 [ms]
[OGL LOG][Proc: 0]Uy_non_local_coeffs: call_update: 0 [ms]
[OGL LOG][Proc: 0]Uy: update_local_matrix_data: 16 [ms]
[OGL LOG][Proc: 0]Uy: update_non_local_matrix_data: 0.067 [ms]
[OGL LOG][Proc: 0]Uy_matrix: call_update: 6.678 [ms]
[OGL LOG][Proc: 0]Uy_rhs: call_update: 2.08 [ms]
[OGL LOG][Preconditioner.H:121] Generate preconditioner BJ MaxBlockSize 1
[OGL LOG][Proc: 0]Uy: init_precond: 0.509 [ms]
[OGL LOG][StoppingCriterion.H:373] Creating stopping criterion with minIter 16 frequency 1
[OGL LOG][Proc: 0]Uy: generate_solver: 0.002 [ms]
[OGL LOG][Proc: 0]Uy: solve: 66.515 [ms]
[OGL LOG][Proc: 0]Uy: copy_x_back: 2.098 [ms]
[OGL LOG][lduLduBase.H:336] 
Statistics:
	Time per iteration: 5542 [mu s]
	Time per residual norm calculation: 295.000000 [mu s]
	Time per iteration and DOF: 0.878687 [ns]
	Retrieve results bandwidth 2.999000 [GByte/s]
[OGL LOG][Proc: 0]Uy: solve_multi_gpu: 79.041 [ms]
BJhipGKOBiCGStab:  Solving for Uy, Initial residual = 0.06869019881909603, Final residual = 0.006506477016083523, No Iterations 12
[OGL LOG][Proc: 0]: global_index_init: 0.772 [ms]
[OGL LOG][Proc: 0]Uz_local_coeffs: call_update: 0 [ms]
[OGL LOG][Proc: 0]Uz_non_local_coeffs: call_update: 0 [ms]
[OGL LOG][Proc: 0]Uz: update_local_matrix_data: 15.673 [ms]
[OGL LOG][Proc: 0]Uz: update_non_local_matrix_data: 0.073 [ms]
[OGL LOG][Proc: 0]Uz_matrix: call_update: 7.392 [ms]
[OGL LOG][Proc: 0]Uz_rhs: call_update: 1.754 [ms]
[OGL LOG][Preconditioner.H:121] Generate preconditioner BJ MaxBlockSize 1
[OGL LOG][Proc: 0]Uz: init_precond: 0.456 [ms]
[OGL LOG][StoppingCriterion.H:373] Creating stopping criterion with minIter 19 frequency 1
[OGL LOG][Proc: 0]Uz: generate_solver: 0.002 [ms]
[OGL LOG][Proc: 0]Uz: solve: 56.359 [ms]
[OGL LOG][Proc: 0]Uz: copy_x_back: 2.054 [ms]
[OGL LOG][lduLduBase.H:336] 
Statistics:
	Time per iteration: 5635 [mu s]
	Time per residual norm calculation: 250.000000 [mu s]
	Time per iteration and DOF: 0.893432 [ns]
	Retrieve results bandwidth 3.063000 [GByte/s]
[OGL LOG][Proc: 0]Uz: solve_multi_gpu: 69.098 [ms]
BJhipGKOBiCGStab:  Solving for Uz, Initial residual = 0.07433318896317688, Final residual = 0.006756820891877906, No Iterations 10
[INFO] MomentumPredictor: 319.007 [ms]
[INFO] MatrixAssemblyPI: 115.286 [ms]
[INFO] MatrixAssemblyPII: 57.467 [ms]
GAMG:  Solving for p, Initial residual = 0.06141008892566244, Final residual = 0.0005162100354352456, No Iterations 5
[INFO] SolveP: 409.782 [ms]
time step continuity errors : sum local = 0.005713668921654332, global = -2.44889396839631e-05, cumulative = 5.312045582929485e-05
[INFO] postSolveP: 31.594 [ms]
[OGL LOG][Proc: 0]: global_index_init: 0.648 [ms]
[OGL LOG][Proc: 0]nuTilda_local_coeffs: call_update: 0 [ms]
[OGL LOG][Proc: 0]nuTilda_non_local_coeffs: call_update: 0 [ms]
[OGL LOG][Proc: 0]nuTilda: update_local_matrix_data: 15.619 [ms]
[OGL LOG][Proc: 0]nuTilda: update_non_local_matrix_data: 0.07000000000000001 [ms]
[OGL LOG][Proc: 0]nuTilda_matrix: call_update: 9.98 [ms]
[OGL LOG][Proc: 0]nuTilda_rhs: call_update: 2.321 [ms]
[OGL LOG][Preconditioner.H:121] Generate preconditioner BJ MaxBlockSize 1
[OGL LOG][Proc: 0]nuTilda: init_precond: 0.529 [ms]
[OGL LOG][StoppingCriterion.H:373] Creating stopping criterion with minIter 3 frequency 1
[OGL LOG][Proc: 0]nuTilda: generate_solver: 0.002 [ms]
[OGL LOG][Proc: 0]nuTilda: solve: 45.708 [ms]
[OGL LOG][Proc: 0]nuTilda: copy_x_back: 2.07 [ms]
[OGL LOG][lduLduBase.H:336] 
Statistics:
	Time per iteration: 22854 [mu s]
	Time per residual norm calculation: 268.000000 [mu s]
	Time per iteration and DOF: 3.623515 [ns]
	Retrieve results bandwidth 3.040000 [GByte/s]
[OGL LOG][Proc: 0]nuTilda: solve_multi_gpu: 61.76 [ms]
BJhipGKOBiCGStab:  Solving for nuTilda, Initial residual = 0.01480227294699754, Final residual = 0.001468492552970573, No Iterations 2
bounding nuTilda, min: -0.0001575443562631383 max: 0.007124137116747808 average: 0.0003797330418422629
[INFO] TimeStep: 2259.529 [ms]
ExecutionTime = 167.08 s  ClockTime = 167 s

End

Finalising parallel run
