/*---------------------------------------------------------------------------*\
| =========                 |                                                 |
| \\      /  F ield         | OpenFOAM: The Open Source CFD Toolbox           |
|  \\    /   O peration     | Version:  2306                                  |
|   \\  /    A nd           | Website:  www.openfoam.com                      |
|    \\/     M anipulation  |                                                 |
\*---------------------------------------------------------------------------*/
Build  : c423ebec-20231012 OPENFOAM=2306 version=v2306
Arch   : "LSB;label=32;scalar=64"
Exec   : icoFoam -parallel -case /hkfs/work/workspace/scratch/eq4036-l3d/workspace/feab226d0b3c94ed4321838ca6df9217/case
Date   : Dec 30 2023
Time   : 09:52:45
Host   : hkn0815.localdomain
PID    : 3186035
I/O    : uncollated
Case   : /hkfs/work/workspace/scratch/eq4036-l3d/workspace/feab226d0b3c94ed4321838ca6df9217/case
nProcs : 16
Hosts  :
(
    (hkn0815.localdomain 16)
)
Pstream initialized with:
    floatTransfer      : false
    nProcsSimpleSum    : 0
    nonBlockingExchange: 0 (tuning: 0)
    exchange algorithm : -1
    commsType          : nonBlocking
    polling iterations : 0
trapFpe: Floating point exception trapping enabled (FOAM_SIGFPE).
fileModificationChecking : Monitoring run-time modified files using timeStampMaster (fileModificationSkew 5, maxFileModificationPolls 20)
allowSystemOperations : Allowing user-supplied system call operations

// * * * * * * * * * * * * * * * * * * * * * * * * * * * * * * * * * * * * * //
Create time

--> FOAM Warning : 
    From void* Foam::dlLibraryTable::openLibrary(const Foam::fileName&, bool)
    in file db/dynamicLibrary/dlLibraryTable/dlLibraryTable.C at line 188
    Could not load "libpetscFoam.so"
libpetscFoam.so: cannot open shared object file: No such file or directory
Create mesh for time = 0


PISO: Operating solver in PISO mode

Reading transportProperties

Reading field p

Reading field U

Reading/calculating face flux field phi


Starting time loop

Time = 0.0005

Courant Number mean: 8.62851e-18 max: 8.67362e-15
[INFO] MatrixAssemblyU: 17.652 [ms]
DILUPBiCGStab:  Solving for Ux, Initial residual = 1, Final residual = 0.00283431, No Iterations 5
DILUPBiCGStab:  Solving for Uy:  solution singularity
DILUPBiCGStab:  Solving for Uz:  solution singularity
[INFO] MomentumPredictor: 51.034 [ms]
[INFO] MatrixAssemblyPI: 13.067 [ms]
[INFO] AdjustPhi: 0.595 [ms]
[INFO] ConstrainPressure: 0.004 [ms]
[INFO] MatrixAssemblyPII: 4.049 [ms]
[OGL LOG][lduLduBase.H:119] Initialising OGL
	OGL commit:  a2fc0ff+
	Branch: feat/on_device_permute 
	Build type: Release
	Ginkgo version: 1.7.0 ( develop)
	Ginkgo commit: sparse-communicator
	MPI is GPU aware: 1
	Forces host buffer based communication: 0
	CPU ranks per GPU: 1
	Matrix format: Ell
	End OGL_INFO
[OGL LOG][Proc: 0]: global_index_init: 18.926 [ms]
[OGL LOG][Proc: 0]p_local_cols: call_init: 1.309 [ms]
[OGL LOG][Proc: 0]p_local_rows: call_init: 0.099 [ms]
[OGL LOG][Proc: 0]p_local_ldu_map: call_init: 0.137 [ms]
[OGL LOG][Proc: 0]p_local_coeffs: call_init: 4.256 [ms]
[OGL LOG][Proc: 0]p_non_local_cols: call_init: 0.206 [ms]
[OGL LOG][Proc: 0]p_non_local_rows: call_init: 0.384 [ms]
[OGL LOG][Proc: 0]p_non_local_ldu_map: call_init: 0.253 [ms]
[OGL LOG][Proc: 0]p_non_local_coeffs: call_init: 0.234 [ms]
[OGL LOG][Proc: 0]p: init_local_sparsity_pattern: 18.624 [ms]
[OGL LOG][Proc: 0]p: init_non_local_sparsity_pattern: 0.408 [ms]
[OGL LOG][Proc: 0]p: update_local_matrix_data: 69.835 [ms]
[OGL LOG][Proc: 0]p: update_non_local_matrix_data: 0.06 [ms]
[OGL LOG][Proc: 0]device_partition: call_init: 0.075 [ms]
[OGL LOG][Proc: 0]p_matrix: call_init: 12.369 [ms]
[OGL LOG][Proc: 0]p_rhs: call_init: 0.325 [ms]
[OGL LOG][Proc: 0]p_solution: call_init: 0.379 [ms]
[OGL LOG][Proc: 0]p: init_precond: 0.215 [ms]
[OGL LOG][StoppingCriterion.H:237] Creating stopping criterion with minIter 0 frequency 1
[OGL LOG][Proc: 0]p: generate_solver: 0.032 [ms]
[OGL LOG][Proc: 0]p: solve: 8360.07 [ms]
[OGL LOG][Proc: 0]p: copy_x_back: 0.3 [ms]
[OGL LOG][lduLduBase.H:330] 
Statistics:
	Time per iteration: 10542 [mu s]
	Time per residual norm calculation: 8790.000000 [mu s]
	Time per iteration and DOF: 10.542000 [ns]
	Retrieve results bandwidth 1.666000 [GByte/s]
[OGL LOG][Proc: 0]p: solve_multi_gpu: 8376.09 [ms]
nonecudaGKOCG:  Solving for p, Initial residual = 1, Final residual = 9.96527e-05, No Iterations 793
[INFO] SolveP: 11543.8 [ms]
time step continuity errors : sum local = 2.14107e-08, global = -2.90767e-21, cumulative = -2.90767e-21
[INFO] ContinuityError: 1.784 [ms]
[INFO] CorrectBoundary: 0.078 [ms]
[INFO] PISOStep: 11569.8 [ms]
[INFO] MatrixAssemblyPI: 13.741 [ms]
[INFO] AdjustPhi: 0.505 [ms]
[INFO] ConstrainPressure: 0.003 [ms]
[INFO] MatrixAssemblyPII: 4.521 [ms]
[OGL LOG][Proc: 0]: global_index_init: 0.014 [ms]
[OGL LOG][Proc: 0]p_local_coeffs: call_update: 0.001 [ms]
[OGL LOG][Proc: 0]p_non_local_coeffs: call_update: 0 [ms]
[OGL LOG][Proc: 0]p: update_local_matrix_data: 6.196 [ms]
[OGL LOG][Proc: 0]p: update_non_local_matrix_data: 0.052 [ms]
[OGL LOG][Proc: 0]p: regenerate_distributed_matrix: 12.865 [ms]
[OGL LOG][Proc: 0]p_matrix: call_update: 27.506 [ms]
[OGL LOG][Proc: 0]p_rhs: call_update: 0.105 [ms]
[OGL LOG][Proc: 0]p: init_precond: 0.037 [ms]
[OGL LOG][StoppingCriterion.H:237] Creating stopping criterion with minIter 475 frequency 17
[OGL LOG][Proc: 0]p: generate_solver: 0.001 [ms]
[OGL LOG][Proc: 0]p: solve: 6296.79 [ms]
[OGL LOG][Proc: 0]p: copy_x_back: 0.296 [ms]
[OGL LOG][lduLduBase.H:330] 
Statistics:
	Time per iteration: 8041 [mu s]
	Time per residual norm calculation: 2465.000000 [mu s]
	Time per iteration and DOF: 8.041000 [ns]
	Retrieve results bandwidth 1.689000 [GByte/s]
[OGL LOG][Proc: 0]p: solve_multi_gpu: 6326.49 [ms]
nonecudaGKOCG:  Solving for p, Initial residual = 0.731148, Final residual = 9.51609e-05, No Iterations 783
[INFO] SolveP: 6333.7 [ms]
time step continuity errors : sum local = 2.69968e-08, global = 1.67863e-21, cumulative = -1.22904e-21
[INFO] ContinuityError: 1.795 [ms]
[INFO] CorrectBoundary: 0.075 [ms]
[INFO] PISOStep: 6361.58 [ms]
[INFO] TimeStep: 18002.5 [ms]
ExecutionTime = 16.14 s  ClockTime = 19 s

Time = 0.001

Courant Number mean: 0.0215183 max: 0.377124
[INFO] MatrixAssemblyU: 13.399 [ms]
DILUPBiCGStab:  Solving for Ux, Initial residual = 0.150306, Final residual = 0.00127595, No Iterations 5
DILUPBiCGStab:  Solving for Uy, Initial residual = 0.368267, Final residual = 0.00250958, No Iterations 5
DILUPBiCGStab:  Solving for Uz, Initial residual = 0.986408, Final residual = 0.0061277, No Iterations 5
[INFO] MomentumPredictor: 90.692 [ms]
[INFO] MatrixAssemblyPI: 12.84 [ms]
[INFO] AdjustPhi: 0.579 [ms]
[INFO] ConstrainPressure: 0.002 [ms]
[INFO] MatrixAssemblyPII: 3.947 [ms]
[OGL LOG][Proc: 0]: global_index_init: 0.022 [ms]
[OGL LOG][Proc: 0]p_local_coeffs: call_update: 0 [ms]
[OGL LOG][Proc: 0]p_non_local_coeffs: call_update: 0 [ms]
[OGL LOG][Proc: 0]p: update_local_matrix_data: 6.636 [ms]
[OGL LOG][Proc: 0]p: update_non_local_matrix_data: 0.052 [ms]
[OGL LOG][Proc: 0]p: regenerate_distributed_matrix: 13.128 [ms]
[OGL LOG][Proc: 0]p_matrix: call_update: 14.67 [ms]
[OGL LOG][Proc: 0]p_rhs: call_update: 1.927 [ms]
[OGL LOG][Proc: 0]p: init_precond: 0.031 [ms]
[OGL LOG][StoppingCriterion.H:237] Creating stopping criterion with minIter 469 frequency 10
[OGL LOG][Proc: 0]p: generate_solver: 0.001 [ms]
[OGL LOG][Proc: 0]p: solve: 6311.19 [ms]
[OGL LOG][Proc: 0]p: copy_x_back: 0.372 [ms]
[OGL LOG][lduLduBase.H:330] 
Statistics:
	Time per iteration: 8080 [mu s]
	Time per residual norm calculation: 2463.000000 [mu s]
	Time per iteration and DOF: 8.080000 [ns]
	Retrieve results bandwidth 1.344000 [GByte/s]
[OGL LOG][Proc: 0]p: solve_multi_gpu: 6329.19 [ms]
nonecudaGKOCG:  Solving for p, Initial residual = 0.691557, Final residual = 7.50766e-05, No Iterations 781
[INFO] SolveP: 6337.19 [ms]
time step continuity errors : sum local = 2.38941e-08, global = 1.48316e-21, cumulative = 2.54125e-22
[INFO] ContinuityError: 1.89 [ms]
[INFO] CorrectBoundary: 0.266 [ms]
[INFO] PISOStep: 6363.74 [ms]
[INFO] MatrixAssemblyPI: 13.218 [ms]
[INFO] AdjustPhi: 0.82 [ms]
[INFO] ConstrainPressure: 0.002 [ms]
[INFO] MatrixAssemblyPII: 4.485 [ms]
[OGL LOG][Proc: 0]: global_index_init: 0.011 [ms]
[OGL LOG][Proc: 0]p_local_coeffs: call_update: 0 [ms]
[OGL LOG][Proc: 0]p_non_local_coeffs: call_update: 0 [ms]
[OGL LOG][Proc: 0]p: update_local_matrix_data: 5.909 [ms]
[OGL LOG][Proc: 0]p: update_non_local_matrix_data: 0.053 [ms]
[OGL LOG][Proc: 0]p: regenerate_distributed_matrix: 12.818 [ms]
[OGL LOG][Proc: 0]p_matrix: call_update: 14.764 [ms]
[OGL LOG][Proc: 0]p_rhs: call_update: 0.315 [ms]
[OGL LOG][Proc: 0]p: init_precond: 0.025 [ms]
[OGL LOG][StoppingCriterion.H:237] Creating stopping criterion with minIter 468 frequency 10
[OGL LOG][Proc: 0]p: generate_solver: 0.002 [ms]
[OGL LOG][Proc: 0]p: solve: 6310.66 [ms]
[OGL LOG][Proc: 0]p: copy_x_back: 0.368 [ms]
[OGL LOG][lduLduBase.H:330] 
Statistics:
	Time per iteration: 8080 [mu s]
	Time per residual norm calculation: 2460.000000 [mu s]
	Time per iteration and DOF: 8.080000 [ns]
	Retrieve results bandwidth 1.358000 [GByte/s]
[OGL LOG][Proc: 0]p: solve_multi_gpu: 6328.39 [ms]
nonecudaGKOCG:  Solving for p, Initial residual = 0.620746, Final residual = 6.69348e-05, No Iterations 781
[INFO] SolveP: 6335.24 [ms]
time step continuity errors : sum local = 2.17271e-08, global = -1.36286e-21, cumulative = -1.10873e-21
[INFO] ContinuityError: 2.503 [ms]
[INFO] CorrectBoundary: 0.149 [ms]
[INFO] PISOStep: 6363.56 [ms]
[INFO] TimeStep: 12833.6 [ms]
ExecutionTime = 28.96 s  ClockTime = 32 s

Time = 0.0015

Courant Number mean: 0.0324765 max: 0.441237
[INFO] MatrixAssemblyU: 12.641 [ms]
DILUPBiCGStab:  Solving for Ux, Initial residual = 0.0531252, Final residual = 0.00037961, No Iterations 5
DILUPBiCGStab:  Solving for Uy, Initial residual = 0.124771, Final residual = 0.000649551, No Iterations 5
DILUPBiCGStab:  Solving for Uz, Initial residual = 0.580594, Final residual = 0.00342797, No Iterations 5
[INFO] MomentumPredictor: 91.524 [ms]
[INFO] MatrixAssemblyPI: 12.812 [ms]
[INFO] AdjustPhi: 0.486 [ms]
[INFO] ConstrainPressure: 0.001 [ms]
[INFO] MatrixAssemblyPII: 3.946 [ms]
[OGL LOG][Proc: 0]: global_index_init: 0.015 [ms]
[OGL LOG][Proc: 0]p_local_coeffs: call_update: 0 [ms]
[OGL LOG][Proc: 0]p_non_local_coeffs: call_update: 0 [ms]
[OGL LOG][Proc: 0]p: update_local_matrix_data: 6.129 [ms]
[OGL LOG][Proc: 0]p: update_non_local_matrix_data: 0.054 [ms]
[OGL LOG][Proc: 0]p: regenerate_distributed_matrix: 13.094 [ms]
[OGL LOG][Proc: 0]p_matrix: call_update: 15.099 [ms]
[OGL LOG][Proc: 0]p_rhs: call_update: 0.229 [ms]
[OGL LOG][Proc: 0]p: init_precond: 0.026 [ms]
[OGL LOG][StoppingCriterion.H:237] Creating stopping criterion with minIter 468 frequency 10
[OGL LOG][Proc: 0]p: generate_solver: 0.001 [ms]
[OGL LOG][Proc: 0]p: solve: 6229.57 [ms]
[OGL LOG][Proc: 0]p: copy_x_back: 0.19 [ms]
[OGL LOG][lduLduBase.H:330] 
Statistics:
	Time per iteration: 8079 [mu s]
	Time per residual norm calculation: 2461.000000 [mu s]
	Time per iteration and DOF: 8.079000 [ns]
	Retrieve results bandwidth 2.631000 [GByte/s]
[OGL LOG][Proc: 0]p: solve_multi_gpu: 6246.72 [ms]
nonecudaGKOCG:  Solving for p, Initial residual = 0.633186, Final residual = 8.04216e-05, No Iterations 771
[INFO] SolveP: 6254.06 [ms]
time step continuity errors : sum local = 1.84536e-08, global = 7.5223e-22, cumulative = -3.56502e-22
[INFO] ContinuityError: 2.855 [ms]
[INFO] CorrectBoundary: 0.451 [ms]
[INFO] PISOStep: 6280.08 [ms]
[INFO] MatrixAssemblyPI: 12.65 [ms]
[INFO] AdjustPhi: 1.15 [ms]
[INFO] ConstrainPressure: 0.002 [ms]
[INFO] MatrixAssemblyPII: 3.535 [ms]
[OGL LOG][Proc: 0]: global_index_init: 0.021 [ms]
[OGL LOG][Proc: 0]p_local_coeffs: call_update: 0 [ms]
[OGL LOG][Proc: 0]p_non_local_coeffs: call_update: 0 [ms]
[OGL LOG][Proc: 0]p: update_local_matrix_data: 4.506 [ms]
[OGL LOG][Proc: 0]p: update_non_local_matrix_data: 0.039 [ms]
[OGL LOG][Proc: 0]p: regenerate_distributed_matrix: 10.501 [ms]
[OGL LOG][Proc: 0]p_matrix: call_update: 11.793 [ms]
[OGL LOG][Proc: 0]p_rhs: call_update: 2.772 [ms]
[OGL LOG][Proc: 0]p: init_precond: 0.025 [ms]
[OGL LOG][StoppingCriterion.H:237] Creating stopping criterion with minIter 462 frequency 10
[OGL LOG][Proc: 0]p: generate_solver: 0.001 [ms]
[OGL LOG][Proc: 0]p: solve: 6229.8 [ms]
[OGL LOG][Proc: 0]p: copy_x_back: 0.38 [ms]
[OGL LOG][lduLduBase.H:330] 
Statistics:
	Time per iteration: 8080 [mu s]
	Time per residual norm calculation: 2168.000000 [mu s]
	Time per iteration and DOF: 8.080000 [ns]
	Retrieve results bandwidth 1.315000 [GByte/s]
[OGL LOG][Proc: 0]p: solve_multi_gpu: 6247.73 [ms]
nonecudaGKOCG:  Solving for p, Initial residual = 0.580497, Final residual = 6.97055e-05, No Iterations 771
[INFO] SolveP: 6253.15 [ms]
time step continuity errors : sum local = 1.55705e-08, global = 3.63779e-22, cumulative = 7.2766e-24
[INFO] ContinuityError: 2.602 [ms]
[INFO] CorrectBoundary: 0.29 [ms]
[INFO] PISOStep: 6281.48 [ms]
[INFO] TimeStep: 12667.8 [ms]
ExecutionTime = 41.61 s  ClockTime = 44 s

Time = 0.002

Courant Number mean: 0.0388747 max: 0.452919
[INFO] MatrixAssemblyU: 12.764 [ms]
DILUPBiCGStab:  Solving for Ux, Initial residual = 0.031912, Final residual = 0.000197609, No Iterations 5
DILUPBiCGStab:  Solving for Uy, Initial residual = 0.0814138, Final residual = 0.00042916, No Iterations 5
DILUPBiCGStab:  Solving for Uz, Initial residual = 0.278826, Final residual = 0.00130156, No Iterations 5
[INFO] MomentumPredictor: 91.7 [ms]
[INFO] MatrixAssemblyPI: 13.088 [ms]
[INFO] AdjustPhi: 0.498 [ms]
[INFO] ConstrainPressure: 0.002 [ms]
[INFO] MatrixAssemblyPII: 3.944 [ms]
[OGL LOG][Proc: 0]: global_index_init: 0.012 [ms]
[OGL LOG][Proc: 0]p_local_coeffs: call_update: 0 [ms]
[OGL LOG][Proc: 0]p_non_local_coeffs: call_update: 0 [ms]
[OGL LOG][Proc: 0]p: update_local_matrix_data: 6.372 [ms]
[OGL LOG][Proc: 0]p: update_non_local_matrix_data: 0.055 [ms]
[OGL LOG][Proc: 0]p: regenerate_distributed_matrix: 16.148 [ms]
[OGL LOG][Proc: 0]p_matrix: call_update: 18.133 [ms]
[OGL LOG][Proc: 0]p_rhs: call_update: 0.076 [ms]
[OGL LOG][Proc: 0]p: init_precond: 0.024 [ms]
[OGL LOG][StoppingCriterion.H:237] Creating stopping criterion with minIter 462 frequency 10
[OGL LOG][Proc: 0]p: generate_solver: 0.001 [ms]
[OGL LOG][Proc: 0]p: solve: 6227.88 [ms]
[OGL LOG][Proc: 0]p: copy_x_back: 0.185 [ms]
[OGL LOG][lduLduBase.H:330] 
Statistics:
	Time per iteration: 8077 [mu s]
	Time per residual norm calculation: 2467.000000 [mu s]
	Time per iteration and DOF: 8.077000 [ns]
	Retrieve results bandwidth 2.702000 [GByte/s]
[OGL LOG][Proc: 0]p: solve_multi_gpu: 6247.48 [ms]
nonecudaGKOCG:  Solving for p, Initial residual = 0.413253, Final residual = 4.53271e-05, No Iterations 771
[INFO] SolveP: 6255.04 [ms]
time step continuity errors : sum local = 8.87641e-09, global = -2.07198e-21, cumulative = -2.06471e-21
[INFO] ContinuityError: 2.849 [ms]
[INFO] CorrectBoundary: 0.475 [ms]
[INFO] PISOStep: 6281.38 [ms]
[INFO] MatrixAssemblyPI: 12.546 [ms]
[INFO] AdjustPhi: 0.983 [ms]
[INFO] ConstrainPressure: 0.002 [ms]
[INFO] MatrixAssemblyPII: 3.733 [ms]
[OGL LOG][Proc: 0]: global_index_init: 0.009 [ms]
[OGL LOG][Proc: 0]p_local_coeffs: call_update: 0 [ms]
[OGL LOG][Proc: 0]p_non_local_coeffs: call_update: 0 [ms]
[OGL LOG][Proc: 0]p: update_local_matrix_data: 6.208 [ms]
[OGL LOG][Proc: 0]p: update_non_local_matrix_data: 0.036 [ms]
[OGL LOG][Proc: 0]p: regenerate_distributed_matrix: 11.899 [ms]
[OGL LOG][Proc: 0]p_matrix: call_update: 13.732 [ms]
[OGL LOG][Proc: 0]p_rhs: call_update: 0.446 [ms]
[OGL LOG][Proc: 0]p: init_precond: 0.029 [ms]
[OGL LOG][StoppingCriterion.H:237] Creating stopping criterion with minIter 462 frequency 10
[OGL LOG][Proc: 0]p: generate_solver: 0.001 [ms]
[OGL LOG][Proc: 0]p: solve: 6148.72 [ms]
[OGL LOG][Proc: 0]p: copy_x_back: 0.388 [ms]
[OGL LOG][lduLduBase.H:330] 
Statistics:
	Time per iteration: 8079 [mu s]
	Time per residual norm calculation: 2157.000000 [mu s]
	Time per iteration and DOF: 8.079000 [ns]
	Retrieve results bandwidth 1.288000 [GByte/s]
[OGL LOG][Proc: 0]p: solve_multi_gpu: 6164.78 [ms]
nonecudaGKOCG:  Solving for p, Initial residual = 0.351348, Final residual = 9.06067e-05, No Iterations 761
[INFO] SolveP: 6171.9 [ms]
time step continuity errors : sum local = 1.79203e-08, global = 1.95891e-21, cumulative = -1.05802e-22
[INFO] ContinuityError: 3.158 [ms]
[INFO] CorrectBoundary: 0.078 [ms]
[INFO] PISOStep: 6200.67 [ms]
[INFO] TimeStep: 12589.4 [ms]
ExecutionTime = 54.17 s  ClockTime = 57 s

Time = 0.0025

Courant Number mean: 0.0439264 max: 0.459604
[INFO] MatrixAssemblyU: 12.773 [ms]
DILUPBiCGStab:  Solving for Ux, Initial residual = 0.0235187, Final residual = 0.000127015, No Iterations 5
DILUPBiCGStab:  Solving for Uy, Initial residual = 0.0515592, Final residual = 0.000259195, No Iterations 5
DILUPBiCGStab:  Solving for Uz, Initial residual = 0.0998615, Final residual = 0.000507624, No Iterations 5
[INFO] MomentumPredictor: 91.709 [ms]
[INFO] MatrixAssemblyPI: 13.242 [ms]
[INFO] AdjustPhi: 0.495 [ms]
[INFO] ConstrainPressure: 0.002 [ms]
[INFO] MatrixAssemblyPII: 4.045 [ms]
[OGL LOG][Proc: 0]: global_index_init: 0.011 [ms]
[OGL LOG][Proc: 0]p_local_coeffs: call_update: 0 [ms]
[OGL LOG][Proc: 0]p_non_local_coeffs: call_update: 0 [ms]
[OGL LOG][Proc: 0]p: update_local_matrix_data: 5.886 [ms]
[OGL LOG][Proc: 0]p: update_non_local_matrix_data: 0.058 [ms]
[OGL LOG][Proc: 0]p: regenerate_distributed_matrix: 13.683 [ms]
[OGL LOG][Proc: 0]p_matrix: call_update: 15.779 [ms]
[OGL LOG][Proc: 0]p_rhs: call_update: 0.117 [ms]
[OGL LOG][Proc: 0]p: init_precond: 0.031 [ms]
[OGL LOG][StoppingCriterion.H:237] Creating stopping criterion with minIter 456 frequency 10
[OGL LOG][Proc: 0]p: generate_solver: 0.001 [ms]
[OGL LOG][Proc: 0]p: solve: 5903.63 [ms]
[OGL LOG][Proc: 0]p: copy_x_back: 0.186 [ms]
[OGL LOG][lduLduBase.H:330] 
Statistics:
	Time per iteration: 8076 [mu s]
	Time per residual norm calculation: 2460.000000 [mu s]
	Time per iteration and DOF: 8.076000 [ns]
	Retrieve results bandwidth 2.688000 [GByte/s]
[OGL LOG][Proc: 0]p: solve_multi_gpu: 5922.12 [ms]
nonecudaGKOCG:  Solving for p, Initial residual = 0.315359, Final residual = 8.68769e-05, No Iterations 731
[INFO] SolveP: 5929.28 [ms]
time step continuity errors : sum local = 1.40411e-08, global = 3.00614e-21, cumulative = 2.90033e-21
[INFO] ContinuityError: 3.111 [ms]
[INFO] CorrectBoundary: 0.602 [ms]
[INFO] PISOStep: 5956.14 [ms]
[INFO] MatrixAssemblyPI: 12.92 [ms]
[INFO] AdjustPhi: 1.235 [ms]
[INFO] ConstrainPressure: 0.002 [ms]
[INFO] MatrixAssemblyPII: 3.73 [ms]
[OGL LOG][Proc: 0]: global_index_init: 0.022 [ms]
[OGL LOG][Proc: 0]p_local_coeffs: call_update: 0 [ms]
[OGL LOG][Proc: 0]p_non_local_coeffs: call_update: 0 [ms]
[OGL LOG][Proc: 0]p: update_local_matrix_data: 4.56 [ms]
[OGL LOG][Proc: 0]p: update_non_local_matrix_data: 0.036 [ms]
[OGL LOG][Proc: 0]p: regenerate_distributed_matrix: 12.914 [ms]
[OGL LOG][Proc: 0]p_matrix: call_update: 14.768 [ms]
[OGL LOG][Proc: 0]p_rhs: call_update: 1.012 [ms]
[OGL LOG][Proc: 0]p: init_precond: 0.025 [ms]
[OGL LOG][StoppingCriterion.H:237] Creating stopping criterion with minIter 438 frequency 9
[OGL LOG][Proc: 0]p: generate_solver: 0.001 [ms]
[OGL LOG][Proc: 0]p: solve: 5906.72 [ms]
[OGL LOG][Proc: 0]p: copy_x_back: 0.387 [ms]
[OGL LOG][lduLduBase.H:330] 
Statistics:
	Time per iteration: 8091 [mu s]
	Time per residual norm calculation: 2168.000000 [mu s]
	Time per iteration and DOF: 8.091000 [ns]
	Retrieve results bandwidth 1.291000 [GByte/s]
[OGL LOG][Proc: 0]p: solve_multi_gpu: 5925.95 [ms]
nonecudaGKOCG:  Solving for p, Initial residual = 0.269791, Final residual = 8.49527e-05, No Iterations 730
[INFO] SolveP: 5931.48 [ms]
time step continuity errors : sum local = 1.3628e-08, global = -2.62294e-21, cumulative = 2.77396e-22
[INFO] ContinuityError: 3.108 [ms]
[INFO] CorrectBoundary: 0.076 [ms]
[INFO] PISOStep: 5960.38 [ms]
[INFO] TimeStep: 12023.5 [ms]
ExecutionTime = 66.18 s  ClockTime = 69 s

Time = 0.003

Courant Number mean: 0.0479663 max: 0.463844
[INFO] MatrixAssemblyU: 13.222 [ms]
DILUPBiCGStab:  Solving for Ux, Initial residual = 0.0178989, Final residual = 9.39215e-05, No Iterations 5
DILUPBiCGStab:  Solving for Uy, Initial residual = 0.040156, Final residual = 0.000138747, No Iterations 5
DILUPBiCGStab:  Solving for Uz, Initial residual = 0.0865603, Final residual = 0.000416678, No Iterations 5
[INFO] MomentumPredictor: 91.311 [ms]
[INFO] MatrixAssemblyPI: 12.832 [ms]
[INFO] AdjustPhi: 0.483 [ms]
[INFO] ConstrainPressure: 0.002 [ms]
[INFO] MatrixAssemblyPII: 3.986 [ms]
[OGL LOG][Proc: 0]: global_index_init: 0.011 [ms]
[OGL LOG][Proc: 0]p_local_coeffs: call_update: 0 [ms]
[OGL LOG][Proc: 0]p_non_local_coeffs: call_update: 0 [ms]
[OGL LOG][Proc: 0]p: update_local_matrix_data: 6.245 [ms]
[OGL LOG][Proc: 0]p: update_non_local_matrix_data: 0.049 [ms]
[OGL LOG][Proc: 0]p: regenerate_distributed_matrix: 13.37 [ms]
[OGL LOG][Proc: 0]p_matrix: call_update: 15.248 [ms]
[OGL LOG][Proc: 0]p_rhs: call_update: 1.28 [ms]
[OGL LOG][Proc: 0]p: init_precond: 0.025 [ms]
[OGL LOG][StoppingCriterion.H:237] Creating stopping criterion with minIter 438 frequency 9
[OGL LOG][Proc: 0]p: generate_solver: 0.002 [ms]
[OGL LOG][Proc: 0]p: solve: 5910.85 [ms]
[OGL LOG][Proc: 0]p: copy_x_back: 0.192 [ms]
[OGL LOG][lduLduBase.H:330] 
Statistics:
	Time per iteration: 8097 [mu s]
	Time per residual norm calculation: 2165.000000 [mu s]
	Time per iteration and DOF: 8.097000 [ns]
	Retrieve results bandwidth 2.604000 [GByte/s]
[OGL LOG][Proc: 0]p: solve_multi_gpu: 5928.31 [ms]
nonecudaGKOCG:  Solving for p, Initial residual = 0.197157, Final residual = 8.39649e-05, No Iterations 730
[INFO] SolveP: 5936.26 [ms]
time step continuity errors : sum local = 1.30986e-08, global = 4.74216e-21, cumulative = 5.01956e-21
[INFO] ContinuityError: 2.726 [ms]
[INFO] CorrectBoundary: 0.458 [ms]
[INFO] PISOStep: 5962.25 [ms]
[INFO] MatrixAssemblyPI: 13.067 [ms]
[INFO] AdjustPhi: 0.537 [ms]
[INFO] ConstrainPressure: 0.001 [ms]
[INFO] MatrixAssemblyPII: 4.146 [ms]
[OGL LOG][Proc: 0]: global_index_init: 0.046 [ms]
[OGL LOG][Proc: 0]p_local_coeffs: call_update: 0 [ms]
[OGL LOG][Proc: 0]p_non_local_coeffs: call_update: 0 [ms]
[OGL LOG][Proc: 0]p: update_local_matrix_data: 5.802 [ms]
[OGL LOG][Proc: 0]p: update_non_local_matrix_data: 0.038 [ms]
[OGL LOG][Proc: 0]p: regenerate_distributed_matrix: 12.664 [ms]
[OGL LOG][Proc: 0]p_matrix: call_update: 14.471 [ms]
[OGL LOG][Proc: 0]p_rhs: call_update: 1.438 [ms]
[OGL LOG][Proc: 0]p: init_precond: 0.033 [ms]
[OGL LOG][StoppingCriterion.H:237] Creating stopping criterion with minIter 438 frequency 9
[OGL LOG][Proc: 0]p: generate_solver: 0.001 [ms]
[OGL LOG][Proc: 0]p: solve: 5832.74 [ms]
[OGL LOG][Proc: 0]p: copy_x_back: 0.196 [ms]
[OGL LOG][lduLduBase.H:330] 
Statistics:
	Time per iteration: 8089 [mu s]
	Time per residual norm calculation: 2149.000000 [mu s]
	Time per iteration and DOF: 8.089000 [ns]
	Retrieve results bandwidth 2.551000 [GByte/s]
[OGL LOG][Proc: 0]p: solve_multi_gpu: 5850.36 [ms]
nonecudaGKOCG:  Solving for p, Initial residual = 0.163925, Final residual = 9.08401e-05, No Iterations 721
[INFO] SolveP: 5857.1 [ms]
time step continuity errors : sum local = 1.41839e-08, global = 1.95799e-21, cumulative = 6.97755e-21
[INFO] ContinuityError: 2.301 [ms]
[INFO] CorrectBoundary: 0.687 [ms]
[INFO] PISOStep: 5884.8 [ms]
[INFO] TimeStep: 11954.9 [ms]
ExecutionTime = 78.12 s  ClockTime = 81 s

Time = 0.0035

Courant Number mean: 0.0513755 max: 0.466722
[INFO] MatrixAssemblyU: 12.723 [ms]
DILUPBiCGStab:  Solving for Ux, Initial residual = 0.0146427, Final residual = 6.72249e-05, No Iterations 5
DILUPBiCGStab:  Solving for Uy, Initial residual = 0.0317843, Final residual = 0.00011968, No Iterations 5
DILUPBiCGStab:  Solving for Uz, Initial residual = 0.0573403, Final residual = 0.000253247, No Iterations 5
[INFO] MomentumPredictor: 91.24 [ms]
[INFO] MatrixAssemblyPI: 12.703 [ms]
[INFO] AdjustPhi: 0.492 [ms]
[INFO] ConstrainPressure: 0.002 [ms]
[INFO] MatrixAssemblyPII: 3.958 [ms]
[OGL LOG][Proc: 0]: global_index_init: 0.017 [ms]
[OGL LOG][Proc: 0]p_local_coeffs: call_update: 0 [ms]
[OGL LOG][Proc: 0]p_non_local_coeffs: call_update: 0 [ms]
[OGL LOG][Proc: 0]p: update_local_matrix_data: 6.131 [ms]
[OGL LOG][Proc: 0]p: update_non_local_matrix_data: 0.041 [ms]
[OGL LOG][Proc: 0]p: regenerate_distributed_matrix: 12.727 [ms]
[OGL LOG][Proc: 0]p_matrix: call_update: 14.661 [ms]
[OGL LOG][Proc: 0]p_rhs: call_update: 0.748 [ms]
[OGL LOG][Proc: 0]p: init_precond: 0.026 [ms]
[OGL LOG][StoppingCriterion.H:237] Creating stopping criterion with minIter 432 frequency 9
[OGL LOG][Proc: 0]p: generate_solver: 0.001 [ms]
[OGL LOG][Proc: 0]p: solve: 3690.03 [ms]
[OGL LOG][Proc: 0]p: copy_x_back: 0.401 [ms]
[OGL LOG][lduLduBase.H:330] 
Statistics:
	Time per iteration: 8021 [mu s]
	Time per residual norm calculation: 2463.000000 [mu s]
	Time per iteration and DOF: 8.021000 [ns]
	Retrieve results bandwidth 1.246000 [GByte/s]
[OGL LOG][Proc: 0]p: solve_multi_gpu: 3707.27 [ms]
nonecudaGKOCG:  Solving for p, Initial residual = 0.139397, Final residual = 9.27674e-05, No Iterations 460
[INFO] SolveP: 3714.33 [ms]
time step continuity errors : sum local = 1.50286e-08, global = -5.89159e-21, cumulative = 1.08595e-21
[INFO] ContinuityError: 1.29 [ms]
[INFO] CorrectBoundary: 0.085 [ms]
[INFO] PISOStep: 3740.46 [ms]
[INFO] MatrixAssemblyPI: 12.856 [ms]
[INFO] AdjustPhi: 0.858 [ms]
[INFO] ConstrainPressure: 0.001 [ms]
[INFO] MatrixAssemblyPII: 4.646 [ms]
[OGL LOG][Proc: 0]: global_index_init: 0.011 [ms]
[OGL LOG][Proc: 0]p_local_coeffs: call_update: 0 [ms]
[OGL LOG][Proc: 0]p_non_local_coeffs: call_update: 0 [ms]
[OGL LOG][Proc: 0]p: update_local_matrix_data: 6.043 [ms]
[OGL LOG][Proc: 0]p: update_non_local_matrix_data: 0.053 [ms]
[OGL LOG][Proc: 0]p: regenerate_distributed_matrix: 12.586 [ms]
[OGL LOG][Proc: 0]p_matrix: call_update: 14.323 [ms]
[OGL LOG][Proc: 0]p_rhs: call_update: 1.04 [ms]
[OGL LOG][Proc: 0]p: init_precond: 0.026 [ms]
[OGL LOG][StoppingCriterion.H:237] Creating stopping criterion with minIter 276 frequency 7
[OGL LOG][Proc: 0]p: generate_solver: 0.001 [ms]
[OGL LOG][Proc: 0]p: solve: 2666.91 [ms]
[OGL LOG][Proc: 0]p: copy_x_back: 0.171 [ms]
[OGL LOG][lduLduBase.H:330] 
Statistics:
	Time per iteration: 8081 [mu s]
	Time per residual norm calculation: 2162.000000 [mu s]
	Time per iteration and DOF: 8.081000 [ns]
	Retrieve results bandwidth 2.923000 [GByte/s]
[OGL LOG][Proc: 0]p: solve_multi_gpu: 2683.26 [ms]
nonecudaGKOCG:  Solving for p, Initial residual = 0.11652, Final residual = 9.65827e-05, No Iterations 330
[INFO] SolveP: 2690.46 [ms]
time step continuity errors : sum local = 1.46786e-08, global = -6.47496e-21, cumulative = -5.38901e-21
[INFO] ContinuityError: 3.377 [ms]
[INFO] CorrectBoundary: 0.448 [ms]
[INFO] PISOStep: 2719.3 [ms]
[INFO] TimeStep: 6566.34 [ms]
ExecutionTime = 84.68 s  ClockTime = 87 s

Time = 0.004

Courant Number mean: 0.0543148 max: 0.468932
[INFO] MatrixAssemblyU: 11.652 [ms]
DILUPBiCGStab:  Solving for Ux, Initial residual = 0.0122828, Final residual = 5.12852e-05, No Iterations 5
DILUPBiCGStab:  Solving for Uy, Initial residual = 0.0265446, Final residual = 7.80239e-05, No Iterations 5
DILUPBiCGStab:  Solving for Uz, Initial residual = 0.0518571, Final residual = 0.000176796, No Iterations 5
[INFO] MomentumPredictor: 93.07 [ms]
[INFO] MatrixAssemblyPI: 12.509 [ms]
[INFO] AdjustPhi: 0.702 [ms]
[INFO] ConstrainPressure: 0.002 [ms]
[INFO] MatrixAssemblyPII: 3.864 [ms]
[OGL LOG][Proc: 0]: global_index_init: 0.019 [ms]
[OGL LOG][Proc: 0]p_local_coeffs: call_update: 0 [ms]
[OGL LOG][Proc: 0]p_non_local_coeffs: call_update: 0 [ms]
[OGL LOG][Proc: 0]p: update_local_matrix_data: 6.23 [ms]
[OGL LOG][Proc: 0]p: update_non_local_matrix_data: 0.036 [ms]
[OGL LOG][Proc: 0]p: regenerate_distributed_matrix: 13.128 [ms]
[OGL LOG][Proc: 0]p_matrix: call_update: 15.226 [ms]
[OGL LOG][Proc: 0]p_rhs: call_update: 0.263 [ms]
[OGL LOG][Proc: 0]p: init_precond: 0.027 [ms]
[OGL LOG][StoppingCriterion.H:237] Creating stopping criterion with minIter 198 frequency 6
[OGL LOG][Proc: 0]p: generate_solver: 0.002 [ms]
[OGL LOG][Proc: 0]p: solve: 2660.33 [ms]
[OGL LOG][Proc: 0]p: copy_x_back: 0.194 [ms]
[OGL LOG][lduLduBase.H:330] 
Statistics:
	Time per iteration: 8185 [mu s]
	Time per residual norm calculation: 2165.000000 [mu s]
	Time per iteration and DOF: 8.185000 [ns]
	Retrieve results bandwidth 2.577000 [GByte/s]
[OGL LOG][Proc: 0]p: solve_multi_gpu: 2676.99 [ms]
nonecudaGKOCG:  Solving for p, Initial residual = 0.0908022, Final residual = 9.43835e-05, No Iterations 325
[INFO] SolveP: 2684.12 [ms]
time step continuity errors : sum local = 1.37224e-08, global = -4.57022e-21, cumulative = -9.95924e-21
[INFO] ContinuityError: 3.018 [ms]
[INFO] CorrectBoundary: 1.122 [ms]
[INFO] PISOStep: 2710.28 [ms]
[INFO] MatrixAssemblyPI: 12.087 [ms]
[INFO] AdjustPhi: 1.344 [ms]
[INFO] ConstrainPressure: 0.002 [ms]
[INFO] MatrixAssemblyPII: 3.874 [ms]
[OGL LOG][Proc: 0]: global_index_init: 0.015 [ms]
[OGL LOG][Proc: 0]p_local_coeffs: call_update: 0 [ms]
[OGL LOG][Proc: 0]p_non_local_coeffs: call_update: 0 [ms]
[OGL LOG][Proc: 0]p: update_local_matrix_data: 5.95 [ms]
[OGL LOG][Proc: 0]p: update_non_local_matrix_data: 0.034 [ms]
[OGL LOG][Proc: 0]p: regenerate_distributed_matrix: 12.803 [ms]
[OGL LOG][Proc: 0]p_matrix: call_update: 14.809 [ms]
[OGL LOG][Proc: 0]p_rhs: call_update: 0.17 [ms]
[OGL LOG][Proc: 0]p: init_precond: 0.025 [ms]
[OGL LOG][StoppingCriterion.H:237] Creating stopping criterion with minIter 195 frequency 6
[OGL LOG][Proc: 0]p: generate_solver: 0.001 [ms]
[OGL LOG][Proc: 0]p: solve: 2657.73 [ms]
[OGL LOG][Proc: 0]p: copy_x_back: 0.192 [ms]
[OGL LOG][lduLduBase.H:330] 
Statistics:
	Time per iteration: 8177 [mu s]
	Time per residual norm calculation: 2601.000000 [mu s]
	Time per iteration and DOF: 8.177000 [ns]
	Retrieve results bandwidth 2.604000 [GByte/s]
[OGL LOG][Proc: 0]p: solve_multi_gpu: 2675.05 [ms]
nonecudaGKOCG:  Solving for p, Initial residual = 0.0751049, Final residual = 8.6282e-05, No Iterations 325
[INFO] SolveP: 2681.71 [ms]
time step continuity errors : sum local = 1.25583e-08, global = -3.97905e-21, cumulative = -1.39383e-20
[INFO] ContinuityError: 1.987 [ms]
[INFO] CorrectBoundary: 0.626 [ms]
[INFO] PISOStep: 2710.04 [ms]
[INFO] TimeStep: 5527.65 [ms]
ExecutionTime = 90.19 s  ClockTime = 93 s

Time = 0.0045

Courant Number mean: 0.0568923 max: 0.470635
[INFO] MatrixAssemblyU: 11.956 [ms]
DILUPBiCGStab:  Solving for Ux, Initial residual = 0.0105346, Final residual = 3.97956e-05, No Iterations 5
DILUPBiCGStab:  Solving for Uy, Initial residual = 0.0226905, Final residual = 6.80797e-05, No Iterations 5
DILUPBiCGStab:  Solving for Uz, Initial residual = 0.0434024, Final residual = 0.000129085, No Iterations 5
[INFO] MomentumPredictor: 92.636 [ms]
[INFO] MatrixAssemblyPI: 12.654 [ms]
[INFO] AdjustPhi: 0.487 [ms]
[INFO] ConstrainPressure: 0.002 [ms]
[INFO] MatrixAssemblyPII: 3.924 [ms]
[OGL LOG][Proc: 0]: global_index_init: 0.015 [ms]
[OGL LOG][Proc: 0]p_local_coeffs: call_update: 0 [ms]
[OGL LOG][Proc: 0]p_non_local_coeffs: call_update: 0 [ms]
[OGL LOG][Proc: 0]p: update_local_matrix_data: 6.25 [ms]
[OGL LOG][Proc: 0]p: update_non_local_matrix_data: 0.037 [ms]
[OGL LOG][Proc: 0]p: regenerate_distributed_matrix: 13.824 [ms]
[OGL LOG][Proc: 0]p_matrix: call_update: 15.785 [ms]
[OGL LOG][Proc: 0]p_rhs: call_update: 0.252 [ms]
[OGL LOG][Proc: 0]p: init_precond: 0.028 [ms]
[OGL LOG][StoppingCriterion.H:237] Creating stopping criterion with minIter 195 frequency 6
[OGL LOG][Proc: 0]p: generate_solver: 0.001 [ms]
[OGL LOG][Proc: 0]p: solve: 2660.49 [ms]
[OGL LOG][Proc: 0]p: copy_x_back: 0.193 [ms]
[OGL LOG][lduLduBase.H:330] 
Statistics:
	Time per iteration: 8186 [mu s]
	Time per residual norm calculation: 2457.000000 [mu s]
	Time per iteration and DOF: 8.186000 [ns]
	Retrieve results bandwidth 2.590000 [GByte/s]
[OGL LOG][Proc: 0]p: solve_multi_gpu: 2677.38 [ms]
nonecudaGKOCG:  Solving for p, Initial residual = 0.0666713, Final residual = 9.94164e-05, No Iterations 325
[INFO] SolveP: 2685.58 [ms]
time step continuity errors : sum local = 1.58912e-08, global = 1.85392e-22, cumulative = -1.37529e-20
[INFO] ContinuityError: 2.573 [ms]
[INFO] CorrectBoundary: 0.489 [ms]
[INFO] PISOStep: 2711.36 [ms]
[INFO] MatrixAssemblyPI: 12.906 [ms]
[INFO] AdjustPhi: 1.321 [ms]
[INFO] ConstrainPressure: 0.002 [ms]
[INFO] MatrixAssemblyPII: 3.971 [ms]
[OGL LOG][Proc: 0]: global_index_init: 0.012 [ms]
[OGL LOG][Proc: 0]p_local_coeffs: call_update: 0 [ms]
[OGL LOG][Proc: 0]p_non_local_coeffs: call_update: 0 [ms]
[OGL LOG][Proc: 0]p: update_local_matrix_data: 6.261 [ms]
[OGL LOG][Proc: 0]p: update_non_local_matrix_data: 0.036 [ms]
[OGL LOG][Proc: 0]p: regenerate_distributed_matrix: 12.804 [ms]
[OGL LOG][Proc: 0]p_matrix: call_update: 14.924 [ms]
[OGL LOG][Proc: 0]p_rhs: call_update: 1.063 [ms]
[OGL LOG][Proc: 0]p: init_precond: 0.025 [ms]
[OGL LOG][StoppingCriterion.H:237] Creating stopping criterion with minIter 195 frequency 6
[OGL LOG][Proc: 0]p: generate_solver: 0.002 [ms]
[OGL LOG][Proc: 0]p: solve: 2610.31 [ms]
[OGL LOG][Proc: 0]p: copy_x_back: 0.182 [ms]
[OGL LOG][lduLduBase.H:330] 
Statistics:
	Time per iteration: 8182 [mu s]
	Time per residual norm calculation: 2162.000000 [mu s]
	Time per iteration and DOF: 8.182000 [ns]
	Retrieve results bandwidth 2.747000 [GByte/s]
[OGL LOG][Proc: 0]p: solve_multi_gpu: 2627.38 [ms]
nonecudaGKOCG:  Solving for p, Initial residual = 0.0556045, Final residual = 9.62001e-05, No Iterations 319
[INFO] SolveP: 2634.74 [ms]
time step continuity errors : sum local = 1.43381e-08, global = 8.4177e-21, cumulative = -5.33519e-21
[INFO] ContinuityError: 2.376 [ms]
[INFO] CorrectBoundary: 0.708 [ms]
[INFO] PISOStep: 2664.04 [ms]
[INFO] TimeStep: 5483.1 [ms]
ExecutionTime = 95.67 s  ClockTime = 99 s

Time = 0.005

Courant Number mean: 0.059188 max: 0.47203
[INFO] MatrixAssemblyU: 11.782 [ms]
DILUPBiCGStab:  Solving for Ux, Initial residual = 0.00921625, Final residual = 3.32166e-05, No Iterations 5
DILUPBiCGStab:  Solving for Uy, Initial residual = 0.0197569, Final residual = 5.13593e-05, No Iterations 5
DILUPBiCGStab:  Solving for Uz, Initial residual = 0.0385788, Final residual = 0.00010444, No Iterations 5
[INFO] MomentumPredictor: 93.114 [ms]
[INFO] MatrixAssemblyPI: 12.567 [ms]
[INFO] AdjustPhi: 0.613 [ms]
[INFO] ConstrainPressure: 0.002 [ms]
[INFO] MatrixAssemblyPII: 3.888 [ms]
[OGL LOG][Proc: 0]: global_index_init: 0.026 [ms]
[OGL LOG][Proc: 0]p_local_coeffs: call_update: 0 [ms]
[OGL LOG][Proc: 0]p_non_local_coeffs: call_update: 0 [ms]
[OGL LOG][Proc: 0]p: update_local_matrix_data: 5.98 [ms]
[OGL LOG][Proc: 0]p: update_non_local_matrix_data: 0.035 [ms]
[OGL LOG][Proc: 0]p: regenerate_distributed_matrix: 12.712 [ms]
[OGL LOG][Proc: 0]p_matrix: call_update: 14.626 [ms]
[OGL LOG][Proc: 0]p_rhs: call_update: 0.803 [ms]
[OGL LOG][Proc: 0]p: init_precond: 0.026 [ms]
[OGL LOG][StoppingCriterion.H:237] Creating stopping criterion with minIter 191 frequency 6
[OGL LOG][Proc: 0]p: generate_solver: 0.002 [ms]
[OGL LOG][Proc: 0]p: solve: 2661.02 [ms]
[OGL LOG][Proc: 0]p: copy_x_back: 0.201 [ms]
[OGL LOG][lduLduBase.H:330] 
Statistics:
	Time per iteration: 8187 [mu s]
	Time per residual norm calculation: 2460.000000 [mu s]
	Time per iteration and DOF: 8.187000 [ns]
	Retrieve results bandwidth 2.487000 [GByte/s]
[OGL LOG][Proc: 0]p: solve_multi_gpu: 2677.61 [ms]
nonecudaGKOCG:  Solving for p, Initial residual = 0.0445853, Final residual = 8.81999e-05, No Iterations 325
[INFO] SolveP: 2684.76 [ms]
time step continuity errors : sum local = 1.3166e-08, global = -2.38693e-21, cumulative = -7.72213e-21
[INFO] ContinuityError: 1.702 [ms]
[INFO] CorrectBoundary: 0.058 [ms]
[INFO] PISOStep: 2708.59 [ms]
[INFO] MatrixAssemblyPI: 12.091 [ms]
[INFO] AdjustPhi: 0.688 [ms]
[INFO] ConstrainPressure: 0.002 [ms]
[INFO] MatrixAssemblyPII: 3.916 [ms]
[OGL LOG][Proc: 0]: global_index_init: 0.008 [ms]
[OGL LOG][Proc: 0]p_local_coeffs: call_update: 0 [ms]
[OGL LOG][Proc: 0]p_non_local_coeffs: call_update: 0 [ms]
[OGL LOG][Proc: 0]p: update_local_matrix_data: 6.216 [ms]
[OGL LOG][Proc: 0]p: update_non_local_matrix_data: 0.037 [ms]
[OGL LOG][Proc: 0]p: regenerate_distributed_matrix: 10.557 [ms]
[OGL LOG][Proc: 0]p_matrix: call_update: 12.493 [ms]
[OGL LOG][Proc: 0]p_rhs: call_update: 0.59 [ms]
[OGL LOG][Proc: 0]p: init_precond: 0.029 [ms]
[OGL LOG][StoppingCriterion.H:237] Creating stopping criterion with minIter 195 frequency 6
[OGL LOG][Proc: 0]p: generate_solver: 0.001 [ms]
[OGL LOG][Proc: 0]p: solve: 2609.9 [ms]
[OGL LOG][Proc: 0]p: copy_x_back: 0.368 [ms]
[OGL LOG][lduLduBase.H:330] 
Statistics:
	Time per iteration: 8181 [mu s]
	Time per residual norm calculation: 2451.000000 [mu s]
	Time per iteration and DOF: 8.181000 [ns]
	Retrieve results bandwidth 1.358000 [GByte/s]
[OGL LOG][Proc: 0]p: solve_multi_gpu: 2625.19 [ms]
nonecudaGKOCG:  Solving for p, Initial residual = 0.0376409, Final residual = 9.22184e-05, No Iterations 319
[INFO] SolveP: 2632.37 [ms]
time step continuity errors : sum local = 1.31244e-08, global = 1.40241e-21, cumulative = -6.31972e-21
[INFO] ContinuityError: 1.407 [ms]
[INFO] CorrectBoundary: 0.086 [ms]
[INFO] PISOStep: 2659.41 [ms]
[INFO] TimeStep: 5475.83 [ms]
ExecutionTime = 101.13 s  ClockTime = 104 s

Time = 0.0055

Courant Number mean: 0.061248 max: 0.473178
[INFO] MatrixAssemblyU: 14.024 [ms]
DILUPBiCGStab:  Solving for Ux, Initial residual = 0.00814507, Final residual = 2.76014e-05, No Iterations 5
DILUPBiCGStab:  Solving for Uy, Initial residual = 0.0174598, Final residual = 4.57633e-05, No Iterations 5
DILUPBiCGStab:  Solving for Uz, Initial residual = 0.034705, Final residual = 8.85331e-05, No Iterations 5
[INFO] MomentumPredictor: 90.96 [ms]
[INFO] MatrixAssemblyPI: 12.793 [ms]
[INFO] AdjustPhi: 0.491 [ms]
[INFO] ConstrainPressure: 0.002 [ms]
[INFO] MatrixAssemblyPII: 3.941 [ms]
[OGL LOG][Proc: 0]: global_index_init: 0.01 [ms]
[OGL LOG][Proc: 0]p_local_coeffs: call_update: 0 [ms]
[OGL LOG][Proc: 0]p_non_local_coeffs: call_update: 0 [ms]
[OGL LOG][Proc: 0]p: update_local_matrix_data: 6.393 [ms]
[OGL LOG][Proc: 0]p: update_non_local_matrix_data: 0.054 [ms]
[OGL LOG][Proc: 0]p: regenerate_distributed_matrix: 13.396 [ms]
[OGL LOG][Proc: 0]p_matrix: call_update: 15.168 [ms]
[OGL LOG][Proc: 0]p_rhs: call_update: 1.224 [ms]
[OGL LOG][Proc: 0]p: init_precond: 0.025 [ms]
[OGL LOG][StoppingCriterion.H:237] Creating stopping criterion with minIter 191 frequency 6
[OGL LOG][Proc: 0]p: generate_solver: 0.001 [ms]
[OGL LOG][Proc: 0]p: solve: 2811.01 [ms]
[OGL LOG][Proc: 0]p: copy_x_back: 0.216 [ms]
[OGL LOG][lduLduBase.H:330] 
Statistics:
	Time per iteration: 8195 [mu s]
	Time per residual norm calculation: 2163.000000 [mu s]
	Time per iteration and DOF: 8.195000 [ns]
	Retrieve results bandwidth 2.314000 [GByte/s]
[OGL LOG][Proc: 0]p: solve_multi_gpu: 2828.78 [ms]
nonecudaGKOCG:  Solving for p, Initial residual = 0.0349496, Final residual = 9.87995e-05, No Iterations 343
[INFO] SolveP: 2836.18 [ms]
time step continuity errors : sum local = 1.6305e-08, global = -4.05277e-21, cumulative = -1.03725e-20
[INFO] ContinuityError: 2.53 [ms]
[INFO] CorrectBoundary: 0.476 [ms]
[INFO] PISOStep: 2862.12 [ms]
[INFO] MatrixAssemblyPI: 12.41 [ms]
[INFO] AdjustPhi: 0.708 [ms]
[INFO] ConstrainPressure: 0.001 [ms]
[INFO] MatrixAssemblyPII: 3.951 [ms]
[OGL LOG][Proc: 0]: global_index_init: 0.023 [ms]
[OGL LOG][Proc: 0]p_local_coeffs: call_update: 0 [ms]
[OGL LOG][Proc: 0]p_non_local_coeffs: call_update: 0 [ms]
[OGL LOG][Proc: 0]p: update_local_matrix_data: 6.045 [ms]
[OGL LOG][Proc: 0]p: update_non_local_matrix_data: 0.034 [ms]
[OGL LOG][Proc: 0]p: regenerate_distributed_matrix: 11.694 [ms]
[OGL LOG][Proc: 0]p_matrix: call_update: 13.245 [ms]
[OGL LOG][Proc: 0]p_rhs: call_update: 0.823 [ms]
[OGL LOG][Proc: 0]p: init_precond: 0.033 [ms]
[OGL LOG][StoppingCriterion.H:237] Creating stopping criterion with minIter 205 frequency 6
[OGL LOG][Proc: 0]p: generate_solver: 0.002 [ms]
[OGL LOG][Proc: 0]p: solve: 2605.21 [ms]
[OGL LOG][Proc: 0]p: copy_x_back: 0.194 [ms]
[OGL LOG][lduLduBase.H:330] 
Statistics:
	Time per iteration: 8166 [mu s]
	Time per residual norm calculation: 2165.000000 [mu s]
	Time per iteration and DOF: 8.166000 [ns]
	Retrieve results bandwidth 2.577000 [GByte/s]
[OGL LOG][Proc: 0]p: solve_multi_gpu: 2620.44 [ms]
nonecudaGKOCG:  Solving for p, Initial residual = 0.0296886, Final residual = 9.07747e-05, No Iterations 319
[INFO] SolveP: 2627.34 [ms]
time step continuity errors : sum local = 1.36464e-08, global = 2.82658e-21, cumulative = -7.54591e-21
[INFO] ContinuityError: 3.297 [ms]
[INFO] CorrectBoundary: 0.829 [ms]
[INFO] PISOStep: 2655.4 [ms]
[INFO] TimeStep: 5624.55 [ms]
ExecutionTime = 106.75 s  ClockTime = 110 s

Time = 0.006

Courant Number mean: 0.06312 max: 0.474157
[INFO] MatrixAssemblyU: 13.063 [ms]
DILUPBiCGStab:  Solving for Ux, Initial residual = 0.00728572, Final residual = 2.41088e-05, No Iterations 5
DILUPBiCGStab:  Solving for Uy, Initial residual = 0.0156065, Final residual = 3.93914e-05, No Iterations 5
DILUPBiCGStab:  Solving for Uz, Initial residual = 0.0313254, Final residual = 8.46921e-05, No Iterations 5
[INFO] MomentumPredictor: 92.768 [ms]
[INFO] MatrixAssemblyPI: 12.845 [ms]
[INFO] AdjustPhi: 0.504 [ms]
[INFO] ConstrainPressure: 0.002 [ms]
[INFO] MatrixAssemblyPII: 3.936 [ms]
[OGL LOG][Proc: 0]: global_index_init: 0.02 [ms]
[OGL LOG][Proc: 0]p_local_coeffs: call_update: 0 [ms]
[OGL LOG][Proc: 0]p_non_local_coeffs: call_update: 0 [ms]
[OGL LOG][Proc: 0]p: update_local_matrix_data: 6.064 [ms]
[OGL LOG][Proc: 0]p: update_non_local_matrix_data: 0.038 [ms]
[OGL LOG][Proc: 0]p: regenerate_distributed_matrix: 13.356 [ms]
[OGL LOG][Proc: 0]p_matrix: call_update: 15.285 [ms]
[OGL LOG][Proc: 0]p_rhs: call_update: 0.212 [ms]
[OGL LOG][Proc: 0]p: init_precond: 0.027 [ms]
[OGL LOG][StoppingCriterion.H:237] Creating stopping criterion with minIter 191 frequency 6
[OGL LOG][Proc: 0]p: generate_solver: 0.001 [ms]
[OGL LOG][Proc: 0]p: solve: 2712.1 [ms]
[OGL LOG][Proc: 0]p: copy_x_back: 0.172 [ms]
[OGL LOG][lduLduBase.H:330] 
Statistics:
	Time per iteration: 8193 [mu s]
	Time per residual norm calculation: 2161.000000 [mu s]
	Time per iteration and DOF: 8.193000 [ns]
	Retrieve results bandwidth 2.906000 [GByte/s]
[OGL LOG][Proc: 0]p: solve_multi_gpu: 2728.89 [ms]
nonecudaGKOCG:  Solving for p, Initial residual = 0.0250929, Final residual = 9.3933e-05, No Iterations 331
[INFO] SolveP: 2735.95 [ms]
time step continuity errors : sum local = 1.49019e-08, global = -8.85497e-21, cumulative = -1.64009e-20
[INFO] ContinuityError: 1.592 [ms]
[INFO] CorrectBoundary: 0.14 [ms]
[INFO] PISOStep: 2760.37 [ms]
[INFO] MatrixAssemblyPI: 11.927 [ms]
[INFO] AdjustPhi: 0.489 [ms]
[INFO] ConstrainPressure: 0.002 [ms]
[INFO] MatrixAssemblyPII: 3.894 [ms]
[OGL LOG][Proc: 0]: global_index_init: 0.022 [ms]
[OGL LOG][Proc: 0]p_local_coeffs: call_update: 0 [ms]
[OGL LOG][Proc: 0]p_non_local_coeffs: call_update: 0 [ms]
[OGL LOG][Proc: 0]p: update_local_matrix_data: 5.869 [ms]
[OGL LOG][Proc: 0]p: update_non_local_matrix_data: 0.036 [ms]
[OGL LOG][Proc: 0]p: regenerate_distributed_matrix: 10.699 [ms]
[OGL LOG][Proc: 0]p_matrix: call_update: 12.717 [ms]
[OGL LOG][Proc: 0]p_rhs: call_update: 0.251 [ms]
[OGL LOG][Proc: 0]p: init_precond: 0.025 [ms]
[OGL LOG][StoppingCriterion.H:237] Creating stopping criterion with minIter 198 frequency 6
[OGL LOG][Proc: 0]p: generate_solver: 0.001 [ms]
[OGL LOG][Proc: 0]p: solve: 2608.83 [ms]
[OGL LOG][Proc: 0]p: copy_x_back: 0.188 [ms]
[OGL LOG][lduLduBase.H:330] 
Statistics:
	Time per iteration: 8178 [mu s]
	Time per residual norm calculation: 2457.000000 [mu s]
	Time per iteration and DOF: 8.178000 [ns]
	Retrieve results bandwidth 2.659000 [GByte/s]
[OGL LOG][Proc: 0]p: solve_multi_gpu: 2622.98 [ms]
nonecudaGKOCG:  Solving for p, Initial residual = 0.0218989, Final residual = 8.49678e-05, No Iterations 319
[INFO] SolveP: 2629.95 [ms]
time step continuity errors : sum local = 1.22482e-08, global = -6.36631e-21, cumulative = -2.27672e-20
[INFO] ContinuityError: 4.602 [ms]
[INFO] CorrectBoundary: 0.155 [ms]
[INFO] PISOStep: 2656 [ms]
[INFO] TimeStep: 5525.1 [ms]
ExecutionTime = 112.27 s  ClockTime = 115 s

Time = 0.0065

Courant Number mean: 0.0648242 max: 0.474993
[INFO] MatrixAssemblyU: 12.626 [ms]
DILUPBiCGStab:  Solving for Ux, Initial residual = 0.00656989, Final residual = 2.09507e-05, No Iterations 5
DILUPBiCGStab:  Solving for Uy, Initial residual = 0.0140597, Final residual = 3.55797e-05, No Iterations 5
DILUPBiCGStab:  Solving for Uz, Initial residual = 0.0290048, Final residual = 8.07399e-05, No Iterations 5
[INFO] MomentumPredictor: 91.802 [ms]
[INFO] MatrixAssemblyPI: 12.607 [ms]
[INFO] AdjustPhi: 0.537 [ms]
[INFO] ConstrainPressure: 0.002 [ms]
[INFO] MatrixAssemblyPII: 3.866 [ms]
[OGL LOG][Proc: 0]: global_index_init: 0.017 [ms]
[OGL LOG][Proc: 0]p_local_coeffs: call_update: 0 [ms]
[OGL LOG][Proc: 0]p_non_local_coeffs: call_update: 0 [ms]
[OGL LOG][Proc: 0]p: update_local_matrix_data: 5.981 [ms]
[OGL LOG][Proc: 0]p: update_non_local_matrix_data: 0.037 [ms]
[OGL LOG][Proc: 0]p: regenerate_distributed_matrix: 13.87 [ms]
[OGL LOG][Proc: 0]p_matrix: call_update: 15.909 [ms]
[OGL LOG][Proc: 0]p_rhs: call_update: 0.141 [ms]
[OGL LOG][Proc: 0]p: init_precond: 0.027 [ms]
[OGL LOG][StoppingCriterion.H:237] Creating stopping criterion with minIter 191 frequency 6
[OGL LOG][Proc: 0]p: generate_solver: 0.001 [ms]
[OGL LOG][Proc: 0]p: solve: 5776.11 [ms]
[OGL LOG][Proc: 0]p: copy_x_back: 0.2 [ms]
[OGL LOG][lduLduBase.H:330] 
Statistics:
	Time per iteration: 8287 [mu s]
	Time per residual norm calculation: 2463.000000 [mu s]
	Time per iteration and DOF: 8.287000 [ns]
	Retrieve results bandwidth 2.500000 [GByte/s]
[OGL LOG][Proc: 0]p: solve_multi_gpu: 5793.32 [ms]
nonecudaGKOCG:  Solving for p, Initial residual = 0.0208285, Final residual = 8.83243e-05, No Iterations 697
[INFO] SolveP: 5800.48 [ms]
time step continuity errors : sum local = 1.23649e-08, global = -3.73357e-21, cumulative = -2.65008e-20
[INFO] ContinuityError: 3.256 [ms]
[INFO] CorrectBoundary: 0.535 [ms]
[INFO] PISOStep: 5826.68 [ms]
[INFO] MatrixAssemblyPI: 12.736 [ms]
[INFO] AdjustPhi: 0.801 [ms]
[INFO] ConstrainPressure: 0.002 [ms]
[INFO] MatrixAssemblyPII: 3.743 [ms]
[OGL LOG][Proc: 0]: global_index_init: 0.017 [ms]
[OGL LOG][Proc: 0]p_local_coeffs: call_update: 0 [ms]
[OGL LOG][Proc: 0]p_non_local_coeffs: call_update: 0 [ms]
[OGL LOG][Proc: 0]p: update_local_matrix_data: 5.781 [ms]
[OGL LOG][Proc: 0]p: update_non_local_matrix_data: 0.037 [ms]
[OGL LOG][Proc: 0]p: regenerate_distributed_matrix: 11.61 [ms]
[OGL LOG][Proc: 0]p_matrix: call_update: 13.605 [ms]
[OGL LOG][Proc: 0]p_rhs: call_update: 0.288 [ms]
[OGL LOG][Proc: 0]p: init_precond: 0.03 [ms]
[OGL LOG][StoppingCriterion.H:237] Creating stopping criterion with minIter 418 frequency 9
[OGL LOG][Proc: 0]p: generate_solver: 0.001 [ms]
[OGL LOG][Proc: 0]p: solve: 5616.49 [ms]
[OGL LOG][Proc: 0]p: copy_x_back: 0.174 [ms]
[OGL LOG][lduLduBase.H:330] 
Statistics:
	Time per iteration: 8092 [mu s]
	Time per residual norm calculation: 2747.000000 [mu s]
	Time per iteration and DOF: 8.092000 [ns]
	Retrieve results bandwidth 2.873000 [GByte/s]
[OGL LOG][Proc: 0]p: solve_multi_gpu: 5632.52 [ms]
nonecudaGKOCG:  Solving for p, Initial residual = 0.0183482, Final residual = 9.04437e-05, No Iterations 694
[INFO] SolveP: 5639.32 [ms]
time step continuity errors : sum local = 1.26671e-08, global = 1.04251e-22, cumulative = -2.63965e-20
[INFO] ContinuityError: 4.028 [ms]
[INFO] CorrectBoundary: 0.465 [ms]
[INFO] PISOStep: 5667.22 [ms]
[INFO] TimeStep: 11600.6 [ms]
ExecutionTime = 123.86 s  ClockTime = 127 s

Time = 0.007

Courant Number mean: 0.0663921 max: 0.475725
[INFO] MatrixAssemblyU: 12.678 [ms]
DILUPBiCGStab:  Solving for Ux, Initial residual = 0.00596506, Final residual = 1.87171e-05, No Iterations 5
DILUPBiCGStab:  Solving for Uy, Initial residual = 0.0127666, Final residual = 3.18317e-05, No Iterations 5
DILUPBiCGStab:  Solving for Uz, Initial residual = 0.0258916, Final residual = 5.93629e-05, No Iterations 5
[INFO] MomentumPredictor: 92.091 [ms]
[INFO] MatrixAssemblyPI: 12.481 [ms]
[INFO] AdjustPhi: 0.666 [ms]
[INFO] ConstrainPressure: 0.001 [ms]
[INFO] MatrixAssemblyPII: 3.921 [ms]
[OGL LOG][Proc: 0]: global_index_init: 0.044 [ms]
[OGL LOG][Proc: 0]p_local_coeffs: call_update: 0 [ms]
[OGL LOG][Proc: 0]p_non_local_coeffs: call_update: 0 [ms]
[OGL LOG][Proc: 0]p: update_local_matrix_data: 6.171 [ms]
[OGL LOG][Proc: 0]p: update_non_local_matrix_data: 0.038 [ms]
[OGL LOG][Proc: 0]p: regenerate_distributed_matrix: 13.397 [ms]
[OGL LOG][Proc: 0]p_matrix: call_update: 15.425 [ms]
[OGL LOG][Proc: 0]p_rhs: call_update: 0.075 [ms]
[OGL LOG][Proc: 0]p: init_precond: 0.028 [ms]
[OGL LOG][StoppingCriterion.H:237] Creating stopping criterion with minIter 416 frequency 11
[OGL LOG][Proc: 0]p: generate_solver: 0.001 [ms]
[OGL LOG][Proc: 0]p: solve: 5604.1 [ms]
[OGL LOG][Proc: 0]p: copy_x_back: 0.403 [ms]
[OGL LOG][lduLduBase.H:330] 
Statistics:
	Time per iteration: 8075 [mu s]
	Time per residual norm calculation: 2163.000000 [mu s]
	Time per iteration and DOF: 8.075000 [ns]
	Retrieve results bandwidth 1.240000 [GByte/s]
[OGL LOG][Proc: 0]p: solve_multi_gpu: 5621.64 [ms]
nonecudaGKOCG:  Solving for p, Initial residual = 0.0163147, Final residual = 8.55183e-05, No Iterations 694
[INFO] SolveP: 5628.77 [ms]
time step continuity errors : sum local = 1.19632e-08, global = 6.05031e-22, cumulative = -2.57915e-20
[INFO] ContinuityError: 1.435 [ms]
[INFO] CorrectBoundary: 0.086 [ms]
[INFO] PISOStep: 5654.26 [ms]
[INFO] MatrixAssemblyPI: 13.036 [ms]
[INFO] AdjustPhi: 0.532 [ms]
[INFO] ConstrainPressure: 0.002 [ms]
[INFO] MatrixAssemblyPII: 4.486 [ms]
[OGL LOG][Proc: 0]: global_index_init: 0.012 [ms]
[OGL LOG][Proc: 0]p_local_coeffs: call_update: 0 [ms]
[OGL LOG][Proc: 0]p_non_local_coeffs: call_update: 0 [ms]
[OGL LOG][Proc: 0]p: update_local_matrix_data: 6.141 [ms]
[OGL LOG][Proc: 0]p: update_non_local_matrix_data: 0.053 [ms]
[OGL LOG][Proc: 0]p: regenerate_distributed_matrix: 11.723 [ms]
[OGL LOG][Proc: 0]p_matrix: call_update: 13.701 [ms]
[OGL LOG][Proc: 0]p_rhs: call_update: 0.208 [ms]
[OGL LOG][Proc: 0]p: init_precond: 0.027 [ms]
[OGL LOG][StoppingCriterion.H:237] Creating stopping criterion with minIter 416 frequency 9
[OGL LOG][Proc: 0]p: generate_solver: 0.002 [ms]
[OGL LOG][Proc: 0]p: solve: 3394.84 [ms]
[OGL LOG][Proc: 0]p: copy_x_back: 0.198 [ms]
[OGL LOG][lduLduBase.H:330] 
Statistics:
	Time per iteration: 8006 [mu s]
	Time per residual norm calculation: 2462.000000 [mu s]
	Time per iteration and DOF: 8.006000 [ns]
	Retrieve results bandwidth 2.525000 [GByte/s]
[OGL LOG][Proc: 0]p: solve_multi_gpu: 3409.74 [ms]
nonecudaGKOCG:  Solving for p, Initial residual = 0.0147761, Final residual = 8.96715e-05, No Iterations 424
[INFO] SolveP: 3417.39 [ms]
time step continuity errors : sum local = 1.32444e-08, global = -1.98712e-21, cumulative = -2.77786e-20
[INFO] ContinuityError: 4.367 [ms]
[INFO] CorrectBoundary: 0.387 [ms]
[INFO] PISOStep: 3446.05 [ms]
[INFO] TimeStep: 9206.86 [ms]
ExecutionTime = 133.05 s  ClockTime = 136 s

Time = 0.0075

Courant Number mean: 0.0678393 max: 0.476365
[INFO] MatrixAssemblyU: 12.509 [ms]
DILUPBiCGStab:  Solving for Ux, Initial residual = 0.00544225, Final residual = 1.66698e-05, No Iterations 5
DILUPBiCGStab:  Solving for Uy, Initial residual = 0.011667, Final residual = 2.89066e-05, No Iterations 5
DILUPBiCGStab:  Solving for Uz, Initial residual = 0.0238442, Final residual = 5.67904e-05, No Iterations 5
[INFO] MomentumPredictor: 92.276 [ms]
[INFO] MatrixAssemblyPI: 12.656 [ms]
[INFO] AdjustPhi: 0.548 [ms]
[INFO] ConstrainPressure: 0.002 [ms]
[INFO] MatrixAssemblyPII: 3.996 [ms]
[OGL LOG][Proc: 0]: global_index_init: 0.015 [ms]
[OGL LOG][Proc: 0]p_local_coeffs: call_update: 0 [ms]
[OGL LOG][Proc: 0]p_non_local_coeffs: call_update: 0 [ms]
[OGL LOG][Proc: 0]p: update_local_matrix_data: 6.237 [ms]
[OGL LOG][Proc: 0]p: update_non_local_matrix_data: 0.038 [ms]
[OGL LOG][Proc: 0]p: regenerate_distributed_matrix: 13.206 [ms]
[OGL LOG][Proc: 0]p_matrix: call_update: 15.076 [ms]
[OGL LOG][Proc: 0]p_rhs: call_update: 1.488 [ms]
[OGL LOG][Proc: 0]p: init_precond: 0.028 [ms]
[OGL LOG][StoppingCriterion.H:237] Creating stopping criterion with minIter 254 frequency 7
[OGL LOG][Proc: 0]p: generate_solver: 0.001 [ms]
[OGL LOG][Proc: 0]p: solve: 5694.32 [ms]
[OGL LOG][Proc: 0]p: copy_x_back: 0.183 [ms]
[OGL LOG][lduLduBase.H:330] 
Statistics:
	Time per iteration: 8205 [mu s]
	Time per residual norm calculation: 2464.000000 [mu s]
	Time per iteration and DOF: 8.205000 [ns]
	Retrieve results bandwidth 2.732000 [GByte/s]
[OGL LOG][Proc: 0]p: solve_multi_gpu: 5712.6 [ms]
nonecudaGKOCG:  Solving for p, Initial residual = 0.0140001, Final residual = 7.96646e-05, No Iterations 694
[INFO] SolveP: 5719.55 [ms]
time step continuity errors : sum local = 1.11325e-08, global = 2.73926e-22, cumulative = -2.75047e-20
[INFO] ContinuityError: 2.784 [ms]
[INFO] CorrectBoundary: 0.85 [ms]
[INFO] PISOStep: 5745.24 [ms]
[INFO] MatrixAssemblyPI: 12.149 [ms]
[INFO] AdjustPhi: 1.57 [ms]
[INFO] ConstrainPressure: 0.002 [ms]
[INFO] MatrixAssemblyPII: 3.86 [ms]
[OGL LOG][Proc: 0]: global_index_init: 0.017 [ms]
[OGL LOG][Proc: 0]p_local_coeffs: call_update: 0 [ms]
[OGL LOG][Proc: 0]p_non_local_coeffs: call_update: 0 [ms]
[OGL LOG][Proc: 0]p: update_local_matrix_data: 5.941 [ms]
[OGL LOG][Proc: 0]p: update_non_local_matrix_data: 0.034 [ms]
[OGL LOG][Proc: 0]p: regenerate_distributed_matrix: 11.942 [ms]
[OGL LOG][Proc: 0]p_matrix: call_update: 13.948 [ms]
[OGL LOG][Proc: 0]p_rhs: call_update: 0.075 [ms]
[OGL LOG][Proc: 0]p: init_precond: 0.028 [ms]
[OGL LOG][StoppingCriterion.H:237] Creating stopping criterion with minIter 416 frequency 9
[OGL LOG][Proc: 0]p: generate_solver: 0.001 [ms]
[OGL LOG][Proc: 0]p: solve: 5618.66 [ms]
[OGL LOG][Proc: 0]p: copy_x_back: 0.181 [ms]
[OGL LOG][lduLduBase.H:330] 
Statistics:
	Time per iteration: 8096 [mu s]
	Time per residual norm calculation: 2463.000000 [mu s]
	Time per iteration and DOF: 8.096000 [ns]
	Retrieve results bandwidth 2.762000 [GByte/s]
[OGL LOG][Proc: 0]p: solve_multi_gpu: 5634.49 [ms]
nonecudaGKOCG:  Solving for p, Initial residual = 0.0127597, Final residual = 7.04975e-05, No Iterations 694
[INFO] SolveP: 5641.14 [ms]
time step continuity errors : sum local = 9.85495e-09, global = 1.82346e-21, cumulative = -2.56812e-20
[INFO] ContinuityError: 4.995 [ms]
[INFO] CorrectBoundary: 0.635 [ms]
[INFO] PISOStep: 5669.79 [ms]
[INFO] TimeStep: 11521.5 [ms]
ExecutionTime = 144.56 s  ClockTime = 147 s

Time = 0.008

Courant Number mean: 0.0691766 max: 0.476935
[INFO] MatrixAssemblyU: 11.958 [ms]
DILUPBiCGStab:  Solving for Ux, Initial residual = 0.00499536, Final residual = 1.50953e-05, No Iterations 5
DILUPBiCGStab:  Solving for Uy, Initial residual = 0.0107171, Final residual = 2.63995e-05, No Iterations 5
DILUPBiCGStab:  Solving for Uz, Initial residual = 0.0218153, Final residual = 4.76734e-05, No Iterations 5
[INFO] MomentumPredictor: 92.741 [ms]
[INFO] MatrixAssemblyPI: 12.49 [ms]
[INFO] AdjustPhi: 0.648 [ms]
[INFO] ConstrainPressure: 0.002 [ms]
[INFO] MatrixAssemblyPII: 3.953 [ms]
[OGL LOG][Proc: 0]: global_index_init: 0.019 [ms]
[OGL LOG][Proc: 0]p_local_coeffs: call_update: 0 [ms]
[OGL LOG][Proc: 0]p_non_local_coeffs: call_update: 0 [ms]
[OGL LOG][Proc: 0]p: update_local_matrix_data: 5.904 [ms]
[OGL LOG][Proc: 0]p: update_non_local_matrix_data: 0.036 [ms]
[OGL LOG][Proc: 0]p: regenerate_distributed_matrix: 13.779 [ms]
[OGL LOG][Proc: 0]p_matrix: call_update: 15.794 [ms]
[OGL LOG][Proc: 0]p_rhs: call_update: 0.254 [ms]
[OGL LOG][Proc: 0]p: init_precond: 0.028 [ms]
[OGL LOG][StoppingCriterion.H:237] Creating stopping criterion with minIter 416 frequency 9
[OGL LOG][Proc: 0]p: generate_solver: 0.001 [ms]
[OGL LOG][Proc: 0]p: solve: 3393.65 [ms]
[OGL LOG][Proc: 0]p: copy_x_back: 0.198 [ms]
[OGL LOG][lduLduBase.H:330] 
Statistics:
	Time per iteration: 8003 [mu s]
	Time per residual norm calculation: 2448.000000 [mu s]
	Time per iteration and DOF: 8.003000 [ns]
	Retrieve results bandwidth 2.525000 [GByte/s]
[OGL LOG][Proc: 0]p: solve_multi_gpu: 3411 [ms]
nonecudaGKOCG:  Solving for p, Initial residual = 0.012002, Final residual = 5.11011e-05, No Iterations 424
[INFO] SolveP: 3418.09 [ms]
time step continuity errors : sum local = 7.57204e-09, global = 5.39485e-21, cumulative = -2.02864e-20
[INFO] ContinuityError: 3.172 [ms]
[INFO] CorrectBoundary: 0.62 [ms]
[INFO] PISOStep: 3444.5 [ms]
[INFO] MatrixAssemblyPI: 12.449 [ms]
[INFO] AdjustPhi: 1.334 [ms]
[INFO] ConstrainPressure: 0.003 [ms]
[INFO] MatrixAssemblyPII: 3.769 [ms]
[OGL LOG][Proc: 0]: global_index_init: 0.014 [ms]
[OGL LOG][Proc: 0]p_local_coeffs: call_update: 0 [ms]
[OGL LOG][Proc: 0]p_non_local_coeffs: call_update: 0 [ms]
[OGL LOG][Proc: 0]p: update_local_matrix_data: 5.958 [ms]
[OGL LOG][Proc: 0]p: update_non_local_matrix_data: 0.036 [ms]
[OGL LOG][Proc: 0]p: regenerate_distributed_matrix: 11.629 [ms]
[OGL LOG][Proc: 0]p_matrix: call_update: 13.457 [ms]
[OGL LOG][Proc: 0]p_rhs: call_update: 0.407 [ms]
[OGL LOG][Proc: 0]p: init_precond: 0.025 [ms]
[OGL LOG][StoppingCriterion.H:237] Creating stopping criterion with minIter 254 frequency 7
[OGL LOG][Proc: 0]p: generate_solver: 0.001 [ms]
[OGL LOG][Proc: 0]p: solve: 2382.75 [ms]
[OGL LOG][Proc: 0]p: copy_x_back: 0.198 [ms]
[OGL LOG][lduLduBase.H:330] 
Statistics:
	Time per iteration: 8077 [mu s]
	Time per residual norm calculation: 2459.000000 [mu s]
	Time per iteration and DOF: 8.077000 [ns]
	Retrieve results bandwidth 2.525000 [GByte/s]
[OGL LOG][Proc: 0]p: solve_multi_gpu: 2397.65 [ms]
nonecudaGKOCG:  Solving for p, Initial residual = 0.0111351, Final residual = 9.64055e-05, No Iterations 295
[INFO] SolveP: 2405.35 [ms]
time step continuity errors : sum local = 1.36901e-08, global = -6.86683e-21, cumulative = -2.71532e-20
[INFO] ContinuityError: 4.853 [ms]
[INFO] CorrectBoundary: 0.417 [ms]
[INFO] PISOStep: 2434.48 [ms]
[INFO] TimeStep: 5986 [ms]
ExecutionTime = 150.54 s  ClockTime = 153 s

Time = 0.0085

Courant Number mean: 0.0704222 max: 0.477443
[INFO] MatrixAssemblyU: 12.602 [ms]
DILUPBiCGStab:  Solving for Ux, Initial residual = 0.0046008, Final residual = 1.3663e-05, No Iterations 5
DILUPBiCGStab:  Solving for Uy, Initial residual = 0.00989445, Final residual = 2.42726e-05, No Iterations 5
DILUPBiCGStab:  Solving for Uz, Initial residual = 0.0201509, Final residual = 4.42577e-05, No Iterations 5
[INFO] MomentumPredictor: 92.539 [ms]
[INFO] MatrixAssemblyPI: 12.583 [ms]
[INFO] AdjustPhi: 0.572 [ms]
[INFO] ConstrainPressure: 0.002 [ms]
[INFO] MatrixAssemblyPII: 3.7 [ms]
[OGL LOG][Proc: 0]: global_index_init: 0.011 [ms]
[OGL LOG][Proc: 0]p_local_coeffs: call_update: 0 [ms]
[OGL LOG][Proc: 0]p_non_local_coeffs: call_update: 0 [ms]
[OGL LOG][Proc: 0]p: update_local_matrix_data: 6.108 [ms]
[OGL LOG][Proc: 0]p: update_non_local_matrix_data: 0.037 [ms]
[OGL LOG][Proc: 0]p: regenerate_distributed_matrix: 13.222 [ms]
[OGL LOG][Proc: 0]p_matrix: call_update: 15.207 [ms]
[OGL LOG][Proc: 0]p_rhs: call_update: 1.206 [ms]
[OGL LOG][Proc: 0]p: init_precond: 0.028 [ms]
[OGL LOG][StoppingCriterion.H:237] Creating stopping criterion with minIter 177 frequency 6
[OGL LOG][Proc: 0]p: generate_solver: 0.001 [ms]
[OGL LOG][Proc: 0]p: solve: 2415.39 [ms]
[OGL LOG][Proc: 0]p: copy_x_back: 0.192 [ms]
[OGL LOG][lduLduBase.H:330] 
Statistics:
	Time per iteration: 8187 [mu s]
	Time per residual norm calculation: 2166.000000 [mu s]
	Time per iteration and DOF: 8.187000 [ns]
	Retrieve results bandwidth 2.604000 [GByte/s]
[OGL LOG][Proc: 0]p: solve_multi_gpu: 2432.97 [ms]
nonecudaGKOCG:  Solving for p, Initial residual = 0.0105378, Final residual = 9.21887e-05, No Iterations 295
[INFO] SolveP: 2440.3 [ms]
time step continuity errors : sum local = 1.35992e-08, global = -1.77446e-21, cumulative = -2.89276e-20
[INFO] ContinuityError: 1.574 [ms]
[INFO] CorrectBoundary: 0.061 [ms]
[INFO] PISOStep: 2464.3 [ms]
[INFO] MatrixAssemblyPI: 12.017 [ms]
[INFO] AdjustPhi: 0.807 [ms]
[INFO] ConstrainPressure: 0.002 [ms]
[INFO] MatrixAssemblyPII: 3.943 [ms]
[OGL LOG][Proc: 0]: global_index_init: 0.028 [ms]
[OGL LOG][Proc: 0]p_local_coeffs: call_update: 0 [ms]
[OGL LOG][Proc: 0]p_non_local_coeffs: call_update: 0 [ms]
[OGL LOG][Proc: 0]p: update_local_matrix_data: 6.967 [ms]
[OGL LOG][Proc: 0]p: update_non_local_matrix_data: 0.045 [ms]
[OGL LOG][Proc: 0]p: regenerate_distributed_matrix: 10.783 [ms]
[OGL LOG][Proc: 0]p_matrix: call_update: 12.569 [ms]
[OGL LOG][Proc: 0]p_rhs: call_update: 1.009 [ms]
[OGL LOG][Proc: 0]p: init_precond: 0.031 [ms]
[OGL LOG][StoppingCriterion.H:237] Creating stopping criterion with minIter 177 frequency 6
[OGL LOG][Proc: 0]p: generate_solver: 0.001 [ms]
[OGL LOG][Proc: 0]p: solve: 2365.09 [ms]
[OGL LOG][Proc: 0]p: copy_x_back: 0.403 [ms]
[OGL LOG][lduLduBase.H:330] 
Statistics:
	Time per iteration: 8183 [mu s]
	Time per residual norm calculation: 2462.000000 [mu s]
	Time per iteration and DOF: 8.183000 [ns]
	Retrieve results bandwidth 1.240000 [GByte/s]
[OGL LOG][Proc: 0]p: solve_multi_gpu: 2380.58 [ms]
nonecudaGKOCG:  Solving for p, Initial residual = 0.00984654, Final residual = 9.71533e-05, No Iterations 289
[INFO] SolveP: 2388.49 [ms]
time step continuity errors : sum local = 1.3722e-08, global = 6.4838e-22, cumulative = -2.82793e-20
[INFO] ContinuityError: 1.468 [ms]
[INFO] CorrectBoundary: 0.084 [ms]
[INFO] PISOStep: 2415.71 [ms]
[INFO] TimeStep: 4986.83 [ms]
ExecutionTime = 155.51 s  ClockTime = 158 s

Time = 0.009

Courant Number mean: 0.0715856 max: 0.477901
[INFO] MatrixAssemblyU: 13.59 [ms]
DILUPBiCGStab:  Solving for Ux, Initial residual = 0.00425643, Final residual = 1.24955e-05, No Iterations 5
DILUPBiCGStab:  Solving for Uy, Initial residual = 0.00917264, Final residual = 2.24486e-05, No Iterations 5
DILUPBiCGStab:  Solving for Uz, Initial residual = 0.018706, Final residual = 4.27826e-05, No Iterations 5
[INFO] MomentumPredictor: 91.059 [ms]
[INFO] MatrixAssemblyPI: 12.767 [ms]
[INFO] AdjustPhi: 0.491 [ms]
[INFO] ConstrainPressure: 0.001 [ms]
[INFO] MatrixAssemblyPII: 3.78 [ms]
[OGL LOG][Proc: 0]: global_index_init: 0.012 [ms]
[OGL LOG][Proc: 0]p_local_coeffs: call_update: 0 [ms]
[OGL LOG][Proc: 0]p_non_local_coeffs: call_update: 0 [ms]
[OGL LOG][Proc: 0]p: update_local_matrix_data: 6.287 [ms]
[OGL LOG][Proc: 0]p: update_non_local_matrix_data: 0.053 [ms]
[OGL LOG][Proc: 0]p: regenerate_distributed_matrix: 13.589 [ms]
[OGL LOG][Proc: 0]p_matrix: call_update: 15.414 [ms]
[OGL LOG][Proc: 0]p_rhs: call_update: 1.435 [ms]
[OGL LOG][Proc: 0]p: init_precond: 0.027 [ms]
[OGL LOG][StoppingCriterion.H:237] Creating stopping criterion with minIter 173 frequency 6
[OGL LOG][Proc: 0]p: generate_solver: 0.001 [ms]
[OGL LOG][Proc: 0]p: solve: 2366.94 [ms]
[OGL LOG][Proc: 0]p: copy_x_back: 0.186 [ms]
[OGL LOG][lduLduBase.H:330] 
Statistics:
	Time per iteration: 8190 [mu s]
	Time per residual norm calculation: 2457.000000 [mu s]
	Time per iteration and DOF: 8.190000 [ns]
	Retrieve results bandwidth 2.688000 [GByte/s]
[OGL LOG][Proc: 0]p: solve_multi_gpu: 2384.93 [ms]
nonecudaGKOCG:  Solving for p, Initial residual = 0.00953785, Final residual = 9.59594e-05, No Iterations 289
[INFO] SolveP: 2392.15 [ms]
time step continuity errors : sum local = 1.41813e-08, global = 3.44702e-21, cumulative = -2.48323e-20
[INFO] ContinuityError: 1.681 [ms]
[INFO] CorrectBoundary: 0.063 [ms]
[INFO] PISOStep: 2416.2 [ms]
[INFO] MatrixAssemblyPI: 11.779 [ms]
[INFO] AdjustPhi: 1.472 [ms]
[INFO] ConstrainPressure: 0.002 [ms]
[INFO] MatrixAssemblyPII: 3.901 [ms]
[OGL LOG][Proc: 0]: global_index_init: 0.017 [ms]
[OGL LOG][Proc: 0]p_local_coeffs: call_update: 0 [ms]
[OGL LOG][Proc: 0]p_non_local_coeffs: call_update: 0 [ms]
[OGL LOG][Proc: 0]p: update_local_matrix_data: 5.502 [ms]
[OGL LOG][Proc: 0]p: update_non_local_matrix_data: 0.041 [ms]
[OGL LOG][Proc: 0]p: regenerate_distributed_matrix: 13.126 [ms]
[OGL LOG][Proc: 0]p_matrix: call_update: 15.092 [ms]
[OGL LOG][Proc: 0]p_rhs: call_update: 0.086 [ms]
[OGL LOG][Proc: 0]p: init_precond: 0.025 [ms]
[OGL LOG][StoppingCriterion.H:237] Creating stopping criterion with minIter 173 frequency 6
[OGL LOG][Proc: 0]p: generate_solver: 0.001 [ms]
[OGL LOG][Proc: 0]p: solve: 2369.77 [ms]
[OGL LOG][Proc: 0]p: copy_x_back: 0.185 [ms]
[OGL LOG][lduLduBase.H:330] 
Statistics:
	Time per iteration: 8199 [mu s]
	Time per residual norm calculation: 2456.000000 [mu s]
	Time per iteration and DOF: 8.199000 [ns]
	Retrieve results bandwidth 2.702000 [GByte/s]
[OGL LOG][Proc: 0]p: solve_multi_gpu: 2386.19 [ms]
nonecudaGKOCG:  Solving for p, Initial residual = 0.00899018, Final residual = 8.51714e-05, No Iterations 289
[INFO] SolveP: 2393.21 [ms]
time step continuity errors : sum local = 1.2195e-08, global = 4.22495e-22, cumulative = -2.44098e-20
[INFO] ContinuityError: 4.391 [ms]
[INFO] CorrectBoundary: 0.469 [ms]
[INFO] PISOStep: 2421.18 [ms]
[INFO] TimeStep: 4944.11 [ms]
ExecutionTime = 160.45 s  ClockTime = 163 s

Time = 0.0095

Courant Number mean: 0.0726727 max: 0.478315
[INFO] MatrixAssemblyU: 13.026 [ms]
DILUPBiCGStab:  Solving for Ux, Initial residual = 0.00395368, Final residual = 1.14477e-05, No Iterations 5
DILUPBiCGStab:  Solving for Uy, Initial residual = 0.00852315, Final residual = 2.08731e-05, No Iterations 5
DILUPBiCGStab:  Solving for Uz, Initial residual = 0.0176676, Final residual = 4.12547e-05, No Iterations 5
[INFO] MomentumPredictor: 91.551 [ms]
[INFO] MatrixAssemblyPI: 12.66 [ms]
[INFO] AdjustPhi: 0.61 [ms]
[INFO] ConstrainPressure: 0.002 [ms]
[INFO] MatrixAssemblyPII: 3.999 [ms]
[OGL LOG][Proc: 0]: global_index_init: 0.009 [ms]
[OGL LOG][Proc: 0]p_local_coeffs: call_update: 0 [ms]
[OGL LOG][Proc: 0]p_non_local_coeffs: call_update: 0 [ms]
[OGL LOG][Proc: 0]p: update_local_matrix_data: 6.317 [ms]
[OGL LOG][Proc: 0]p: update_non_local_matrix_data: 0.035 [ms]
[OGL LOG][Proc: 0]p: regenerate_distributed_matrix: 14.192 [ms]
[OGL LOG][Proc: 0]p_matrix: call_update: 15.206 [ms]
[OGL LOG][Proc: 0]p_rhs: call_update: 0.832 [ms]
[OGL LOG][Proc: 0]p: init_precond: 0.03 [ms]
[OGL LOG][StoppingCriterion.H:237] Creating stopping criterion with minIter 173 frequency 6
[OGL LOG][Proc: 0]p: generate_solver: 0.002 [ms]
[OGL LOG][Proc: 0]p: solve: 2468.68 [ms]
[OGL LOG][Proc: 0]p: copy_x_back: 0.171 [ms]
[OGL LOG][lduLduBase.H:330] 
Statistics:
	Time per iteration: 8201 [mu s]
	Time per residual norm calculation: 2757.000000 [mu s]
	Time per iteration and DOF: 8.201000 [ns]
	Retrieve results bandwidth 2.923000 [GByte/s]
[OGL LOG][Proc: 0]p: solve_multi_gpu: 2486.4 [ms]
nonecudaGKOCG:  Solving for p, Initial residual = 0.00870427, Final residual = 9.75378e-05, No Iterations 301
[INFO] SolveP: 2493.43 [ms]
time step continuity errors : sum local = 1.4867e-08, global = 2.44246e-21, cumulative = -2.19673e-20
[INFO] ContinuityError: 2.676 [ms]
[INFO] CorrectBoundary: 0.064 [ms]
[INFO] PISOStep: 2518.4 [ms]
[INFO] MatrixAssemblyPI: 12.662 [ms]
[INFO] AdjustPhi: 1.866 [ms]
[INFO] ConstrainPressure: 0.002 [ms]
[INFO] MatrixAssemblyPII: 3.809 [ms]
[OGL LOG][Proc: 0]: global_index_init: 0.011 [ms]
[OGL LOG][Proc: 0]p_local_coeffs: call_update: 0 [ms]
[OGL LOG][Proc: 0]p_non_local_coeffs: call_update: 0 [ms]
[OGL LOG][Proc: 0]p: update_local_matrix_data: 5.93 [ms]
[OGL LOG][Proc: 0]p: update_non_local_matrix_data: 0.037 [ms]
[OGL LOG][Proc: 0]p: regenerate_distributed_matrix: 13.079 [ms]
[OGL LOG][Proc: 0]p_matrix: call_update: 15.055 [ms]
[OGL LOG][Proc: 0]p_rhs: call_update: 0.092 [ms]
[OGL LOG][Proc: 0]p: init_precond: 0.025 [ms]
[OGL LOG][StoppingCriterion.H:237] Creating stopping criterion with minIter 180 frequency 7
[OGL LOG][Proc: 0]p: generate_solver: 0.001 [ms]
[OGL LOG][Proc: 0]p: solve: 2410.28 [ms]
[OGL LOG][Proc: 0]p: copy_x_back: 0.181 [ms]
[OGL LOG][lduLduBase.H:330] 
Statistics:
	Time per iteration: 8170 [mu s]
	Time per residual norm calculation: 2163.000000 [mu s]
	Time per iteration and DOF: 8.170000 [ns]
	Retrieve results bandwidth 2.762000 [GByte/s]
[OGL LOG][Proc: 0]p: solve_multi_gpu: 2426.83 [ms]
nonecudaGKOCG:  Solving for p, Initial residual = 0.0082326, Final residual = 9.2117e-05, No Iterations 295
[INFO] SolveP: 2433.61 [ms]
time step continuity errors : sum local = 1.31996e-08, global = -3.14582e-21, cumulative = -2.51131e-20
[INFO] ContinuityError: 4.884 [ms]
[INFO] CorrectBoundary: 0.561 [ms]
[INFO] PISOStep: 2463.15 [ms]
[INFO] TimeStep: 5087.94 [ms]
ExecutionTime = 165.53 s  ClockTime = 168 s

Time = 0.01

Courant Number mean: 0.0736902 max: 0.478692
[INFO] MatrixAssemblyU: 12.312 [ms]
DILUPBiCGStab:  Solving for Ux, Initial residual = 0.00367856, Final residual = 1.05649e-05, No Iterations 5
DILUPBiCGStab:  Solving for Uy, Initial residual = 0.00796196, Final residual = 1.94998e-05, No Iterations 5
DILUPBiCGStab:  Solving for Uz, Initial residual = 0.0165348, Final residual = 4.17115e-05, No Iterations 5
[INFO] MomentumPredictor: 92.855 [ms]
[INFO] MatrixAssemblyPI: 12.726 [ms]
[INFO] AdjustPhi: 0.506 [ms]
[INFO] ConstrainPressure: 0.001 [ms]
[INFO] MatrixAssemblyPII: 3.861 [ms]
[OGL LOG][Proc: 0]: global_index_init: 0.022 [ms]
[OGL LOG][Proc: 0]p_local_coeffs: call_update: 0 [ms]
[OGL LOG][Proc: 0]p_non_local_coeffs: call_update: 0 [ms]
[OGL LOG][Proc: 0]p: update_local_matrix_data: 5.956 [ms]
[OGL LOG][Proc: 0]p: update_non_local_matrix_data: 0.036 [ms]
[OGL LOG][Proc: 0]p: regenerate_distributed_matrix: 13.418 [ms]
[OGL LOG][Proc: 0]p_matrix: call_update: 15.469 [ms]
[OGL LOG][Proc: 0]p_rhs: call_update: 0.097 [ms]
[OGL LOG][Proc: 0]p: init_precond: 0.025 [ms]
[OGL LOG][StoppingCriterion.H:237] Creating stopping criterion with minIter 177 frequency 6
[OGL LOG][Proc: 0]p: generate_solver: 0.001 [ms]
[OGL LOG][Proc: 0]p: solve: 2517.7 [ms]
[OGL LOG][Proc: 0]p: copy_x_back: 0.174 [ms]
[OGL LOG][lduLduBase.H:330] 
Statistics:
	Time per iteration: 8200 [mu s]
	Time per residual norm calculation: 2161.000000 [mu s]
	Time per iteration and DOF: 8.200000 [ns]
	Retrieve results bandwidth 2.873000 [GByte/s]
[OGL LOG][Proc: 0]p: solve_multi_gpu: 2534.7 [ms]
nonecudaGKOCG:  Solving for p, Initial residual = 0.00824559, Final residual = 9.18051e-05, No Iterations 307
[INFO] SolveP: 2541.61 [ms]
time step continuity errors : sum local = 1.4276e-08, global = 8.74743e-23, cumulative = -2.50256e-20
[INFO] ContinuityError: 1.637 [ms]
[INFO] CorrectBoundary: 0.085 [ms]
[INFO] PISOStep: 2565.46 [ms]
[INFO] MatrixAssemblyPI: 11.87 [ms]
[INFO] AdjustPhi: 2.292 [ms]
[INFO] ConstrainPressure: 0.002 [ms]
[INFO] MatrixAssemblyPII: 3.865 [ms]
[OGL LOG][Proc: 0]: global_index_init: 0.015 [ms]
[OGL LOG][Proc: 0]p_local_coeffs: call_update: 0 [ms]
[OGL LOG][Proc: 0]p_non_local_coeffs: call_update: 0 [ms]
[OGL LOG][Proc: 0]p: update_local_matrix_data: 6.161 [ms]
[OGL LOG][Proc: 0]p: update_non_local_matrix_data: 0.039 [ms]
[OGL LOG][Proc: 0]p: regenerate_distributed_matrix: 12.939 [ms]
[OGL LOG][Proc: 0]p_matrix: call_update: 14.809 [ms]
[OGL LOG][Proc: 0]p_rhs: call_update: 0.315 [ms]
[OGL LOG][Proc: 0]p: init_precond: 0.026 [ms]
[OGL LOG][StoppingCriterion.H:237] Creating stopping criterion with minIter 184 frequency 6
[OGL LOG][Proc: 0]p: generate_solver: 0.001 [ms]
[OGL LOG][Proc: 0]p: solve: 2464.52 [ms]
[OGL LOG][Proc: 0]p: copy_x_back: 0.189 [ms]
[OGL LOG][lduLduBase.H:330] 
Statistics:
	Time per iteration: 8187 [mu s]
	Time per residual norm calculation: 2160.000000 [mu s]
	Time per iteration and DOF: 8.187000 [ns]
	Retrieve results bandwidth 2.645000 [GByte/s]
[OGL LOG][Proc: 0]p: solve_multi_gpu: 2480.78 [ms]
nonecudaGKOCG:  Solving for p, Initial residual = 0.00782587, Final residual = 8.54844e-05, No Iterations 301
[INFO] SolveP: 2487.91 [ms]
time step continuity errors : sum local = 1.24186e-08, global = -4.58271e-21, cumulative = -2.96084e-20
[INFO] ContinuityError: 5.02 [ms]
[INFO] CorrectBoundary: 0.175 [ms]
[INFO] PISOStep: 2516.42 [ms]
[INFO] TimeStep: 5189.88 [ms]
ExecutionTime = 170.71 s  ClockTime = 174 s

End

Finalising parallel run
