/*---------------------------------------------------------------------------*\
| =========                 |                                                 |
| \\      /  F ield         | OpenFOAM: The Open Source CFD Toolbox           |
|  \\    /   O peration     | Version:  2306                                  |
|   \\  /    A nd           | Website:  www.openfoam.com                      |
|    \\/     M anipulation  |                                                 |
\*---------------------------------------------------------------------------*/
Build  : a6e826bd55-20230630 OPENFOAM=2306 version=v2306
Arch   : "LSB;label=32;scalar=64"
Exec   : simpleFoam -parallel -case /home/greole/data/code/exasim_project/micro_benchmarks/WindsorBody/workspace/bc433b913bdb47897f7eaa6b9300d64f/case
Date   : Aug 02 2023
Time   : 10:21:22
Host   : nla-gpu2.ianm.kit.edu
PID    : 75077
I/O    : uncollated
Case   : /home/greole/data/code/exasim_project/micro_benchmarks/WindsorBody/workspace/bc433b913bdb47897f7eaa6b9300d64f/case
nProcs : 16
Hosts  :
(
    (nla-gpu2.ianm.kit.edu 16)
)
Pstream initialized with:
    floatTransfer      : false
    nProcsSimpleSum    : 0
    nonBlockingExchange: 0 (tuning: 0)
    exchange algorithm : -1
    commsType          : nonBlocking
    polling iterations : 0
trapFpe: Floating point exception trapping enabled (FOAM_SIGFPE).
fileModificationChecking : Monitoring run-time modified files using timeStampMaster (fileModificationSkew 5, maxFileModificationPolls 20)
allowSystemOperations : Allowing user-supplied system call operations

// * * * * * * * * * * * * * * * * * * * * * * * * * * * * * * * * * * * * * //
Create time

--> FOAM Warning : 
    From void* Foam::dlLibraryTable::openLibrary(const Foam::fileName&, bool)
    in file db/dynamicLibrary/dlLibraryTable/dlLibraryTable.C at line 188
    Could not load "libpetscFoam.so"
libpetscFoam.so: cannot open shared object file: No such file or directory
Create mesh for time = 0


SIMPLE: convergence criteria
    field p	 tolerance 1e-08
    field U	 tolerance 1e-08
    field k	 tolerance 1e-08
    field omega	 tolerance 1e-08
    field nuTilda	 tolerance 1e-08

Reading field p

Reading field U

Reading/calculating face flux field phi

Selecting incompressible transport model Newtonian
Selecting turbulence model type RAS
Selecting RAS turbulence model SpalartAllmaras
Selecting patchDistMethod meshWave
ft2 term: inactive
RAS
{
    RASModel        SpalartAllmaras;
    turbulence      on;
    printCoeffs     on;
    sigmaNut        0.66666;
    kappa           0.41;
    Cb1             0.1355;
    Cb2             0.622;
    Cw2             0.3;
    Cw3             2;
    Cv1             7.1;
    Cs              0.3;
    ck              0.07000000000000001;
    ft2             false;
    Ct3             1.2;
    Ct4             0.5;
}

No MRF models present

Creating finite volume options from "system/fvOptions"

Selecting finite volume options type velocityDampingConstraint
    Source: velocityDamping
    - selecting all cells
    - selected 6307136 cell(s) with volume 27.82583051608782

Starting time loop

--> FOAM Warning : 
    From bool Foam::functionObjectList::read()
    in file db/functionObjects/functionObjectList/functionObjectList.C at line 1035
    Reading "system/controlDict" at line 2 to 41
    Entry 'lref' is not a dictionary
--> FOAM Warning : 
    From bool Foam::functionObjectList::read()
    in file db/functionObjects/functionObjectList/functionObjectList.C at line 1035
    Reading "system/controlDict" at line 2 to 41
    Entry 'Aref' is not a dictionary
--> FOAM Warning : 
    From bool Foam::functionObjectList::read()
    in file db/functionObjects/functionObjectList/functionObjectList.C at line 1035
    Reading "system/controlDict" at line 2 to 41
    Entry 'yawAngle' is not a dictionary
--> FOAM Warning : 
    From bool Foam::functionObjectList::read()
    in file db/functionObjects/functionObjectList/functionObjectList.C at line 1035
    Reading "system/controlDict" at line 2 to 41
    Entry 'lDomain' is not a dictionary
--> FOAM Warning : 
    From bool Foam::functionObjectList::read()
    in file db/functionObjects/functionObjectList/functionObjectList.C at line 1035
    Reading "system/controlDict" at line 2 to 41
    Entry 'bDomain' is not a dictionary
--> FOAM Warning : 
    From bool Foam::functionObjectList::read()
    in file db/functionObjects/functionObjectList/functionObjectList.C at line 1035
    Reading "system/controlDict" at line 2 to 41
    Entry 'hDomain' is not a dictionary
--> FOAM Warning : 
    From bool Foam::functionObjectList::read()
    in file db/functionObjects/functionObjectList/functionObjectList.C at line 1035
    Reading "system/controlDict" at line 2 to 41
    Entry 'xCenter' is not a dictionary
--> FOAM Warning : 
    From bool Foam::functionObjectList::read()
    in file db/functionObjects/functionObjectList/functionObjectList.C at line 1035
    Reading "system/controlDict" at line 2 to 41
    Entry 'yCenter' is not a dictionary
--> FOAM Warning : 
    From bool Foam::functionObjectList::read()
    in file db/functionObjects/functionObjectList/functionObjectList.C at line 1035
    Reading "system/controlDict" at line 2 to 41
    Entry 'zCenter' is not a dictionary
--> FOAM Warning : 
    From bool Foam::functionObjectList::read()
    in file db/functionObjects/functionObjectList/functionObjectList.C at line 1035
    Reading "system/controlDict" at line 2 to 41
    Entry 'inletPatch' is not a dictionary
--> FOAM Warning : 
    From bool Foam::functionObjectList::read()
    in file db/functionObjects/functionObjectList/functionObjectList.C at line 1035
    Reading "system/controlDict" at line 2 to 41
    Entry 'outletPatch' is not a dictionary
--> FOAM Warning : 
    From bool Foam::functionObjectList::read()
    in file db/functionObjects/functionObjectList/functionObjectList.C at line 1035
    Reading "system/controlDict" at line 2 to 41
    Entry 'wallPatches' is not a dictionary
--> FOAM Warning : 
    From bool Foam::functionObjectList::read()
    in file db/functionObjects/functionObjectList/functionObjectList.C at line 1035
    Reading "system/controlDict" at line 2 to 41
    Entry 'forcesWallPatches' is not a dictionary
--> FOAM Warning : 
    From bool Foam::functionObjectList::read()
    in file db/functionObjects/functionObjectList/functionObjectList.C at line 1035
    Reading "system/controlDict" at line 2 to 41
    Entry 'symmPatches' is not a dictionary
--> FOAM Warning : 
    From bool Foam::functionObjectList::read()
    in file db/functionObjects/functionObjectList/functionObjectList.C at line 1035
    Reading "system/controlDict" at line 2 to 41
    Entry 'Uinf' is not a dictionary
--> FOAM Warning : 
    From bool Foam::functionObjectList::read()
    in file db/functionObjects/functionObjectList/functionObjectList.C at line 1035
    Reading "system/controlDict" at line 2 to 41
    Entry 'UinfMag' is not a dictionary
--> FOAM Warning : 
    From bool Foam::functionObjectList::read()
    in file db/functionObjects/functionObjectList/functionObjectList.C at line 1035
    Reading "system/controlDict" at line 2 to 41
    Entry 'nu' is not a dictionary
--> FOAM Warning : 
    From bool Foam::functionObjectList::read()
    in file db/functionObjects/functionObjectList/functionObjectList.C at line 1035
    Reading "system/controlDict" at line 2 to 41
    Entry 'pref' is not a dictionary
--> FOAM Warning : 
    From bool Foam::functionObjectList::read()
    in file db/functionObjects/functionObjectList/functionObjectList.C at line 1035
    Reading "system/controlDict" at line 2 to 41
    Entry 'viscRatio' is not a dictionary
--> FOAM Warning : 
    From bool Foam::functionObjectList::read()
    in file db/functionObjects/functionObjectList/functionObjectList.C at line 1035
    Reading "system/controlDict" at line 2 to 41
    Entry 'Tu' is not a dictionary
--> FOAM Warning : 
    From bool Foam::functionObjectList::read()
    in file db/functionObjects/functionObjectList/functionObjectList.C at line 1035
    Reading "system/controlDict" at line 2 to 41
    Entry 'LESturbModel' is not a dictionary
--> FOAM Warning : 
    From bool Foam::functionObjectList::read()
    in file db/functionObjects/functionObjectList/functionObjectList.C at line 1035
    Reading "system/controlDict" at line 2 to 41
    Entry 'RASturbModel' is not a dictionary
--> FOAM Warning : 
    From bool Foam::functionObjectList::read()
    in file db/functionObjects/functionObjectList/functionObjectList.C at line 1035
    Reading "system/controlDict" at line 2 to 41
    Entry 'deltaTurb' is not a dictionary
--> FOAM Warning : 
    From bool Foam::functionObjectList::read()
    in file db/functionObjects/functionObjectList/functionObjectList.C at line 1035
    Reading "system/controlDict" at line 2 to 41
    Entry 'dt' is not a dictionary
--> FOAM Warning : 
    From bool Foam::functionObjectList::read()
    in file db/functionObjects/functionObjectList/functionObjectList.C at line 1035
    Reading "system/controlDict" at line 2 to 41
    Entry 'tAvg' is not a dictionary
--> FOAM Warning : 
    From bool Foam::functionObjectList::read()
    in file db/functionObjects/functionObjectList/functionObjectList.C at line 1035
    Reading "system/controlDict" at line 2 to 41
    Entry 'tEnd' is not a dictionary
--> FOAM Warning : 
    From bool Foam::functionObjectList::read()
    in file db/functionObjects/functionObjectList/functionObjectList.C at line 1035
    Reading "system/controlDict" at line 2 to 41
    Entry 'writeInterval_' is not a dictionary
--> FOAM Warning : 
    From bool Foam::functionObjectList::read()
    in file db/functionObjects/functionObjectList/functionObjectList.C at line 1035
    Reading "system/controlDict" at line 2 to 41
    Entry 'nCores' is not a dictionary
--> FOAM Warning : 
    From bool Foam::functionObjectList::read()
    in file db/functionObjects/functionObjectList/functionObjectList.C at line 1035
    Reading "system/controlDict" at line 2 to 41
    Entry 'interpScheme' is not a dictionary
--> FOAM Warning : 
    From bool Foam::functionObjectList::read()
    in file db/functionObjects/functionObjectList/functionObjectList.C at line 1035
    Reading "system/controlDict" at line 2 to 41
    Entry 'probeField' is not a dictionary
wallShearStress wallShearStress:
    processing wall patches: 
        Windsor_Body
        CFDWT_Floor
        Windsor_Pins
        Windsor_Base

pressure calc_cp:
    Operating mode: staticCoeff
    Not including hydrostatic effects

forceCoeffs forceCoeffsAll:
    rho: rhoInf
    Freestream density (rhoInf) set to 1
    Not including porosity effects
    magUInf: 40
    lRef   : 0.6375
    Aref   : 0.1124
    rhoInf : 1
    Selecting all coefficients
    - Drag force: Cd
    - Drag force front: Cd(f)
    - Drag force rear: Cd(r)
    - Lift force: Cl
    - Lift force front: Cl(f)
    - Lift force rear: Cl(r)
    - Pitch moment: CmPitch
    - Roll moment: CmRoll
    - Yaw moment: CmYaw
    - Side force: Cs
    - Side force front: Cs(f)
    - Side force rear: Cs(r)


forceCoeffs dragCoeffBase:
    rho: rhoInf
    Freestream density (rhoInf) set to 1
    Not including porosity effects
    magUInf: 40
    lRef   : 0.6375
    Aref   : 0.1124
    rhoInf : 1
    Selecting coefficients:
    - Drag force: Cd


Time = 1

velocityDampingConstraint velocityDamping damped 0 (0%) of cells, with max limit 300
[INFO] MatrixAssemblyU: 570.448 [ms]
[OGL LOG][lduLduBase.H:119] Initialising OGL
	OGL commit:  a97448d+
	Branch: PersistentDeviceIdGuard 
	Build type: Release
	Ginkgo version: 1.5.0 ( develop)
	Ginkgo commit: 4292ffdee
	MPI is GPU aware: 1
	Forces host buffer based communication: 0
	CPU ranks per GPU: 1
	Matrix format: Coo
	End OGL_INFO
[OGL LOG][Proc: 0]: global_index_init: 14.739 [ms]
[OGL LOG][Proc: 0]Ux_local_cols: call_init: 0.039 [ms]
[OGL LOG][Proc: 0]Ux_local_rows: call_init: 0.003 [ms]
[OGL LOG][Proc: 0]Ux_local_ldu_map: call_init: 0.002 [ms]
[OGL LOG][Proc: 0]Ux_local_coeffs: call_init: 0.011 [ms]
[OGL LOG][Proc: 0]Ux_non_local_cols: call_init: 0.003 [ms]
[OGL LOG][Proc: 0]Ux_non_local_rows: call_init: 0.003 [ms]
[OGL LOG][Proc: 0]Ux_non_local_ldu_map: call_init: 0.002 [ms]
[OGL LOG][Proc: 0]Ux_non_local_coeffs: call_init: 0.002 [ms]
[OGL LOG][Proc: 0]Ux: init_local_sparsity_pattern: 83.441 [ms]
[OGL LOG][Proc: 0]Ux: init_non_local_sparsity_pattern: 3.583 [ms]
[OGL LOG][Proc: 0]Ux: update_local_matrix_data: 10.526 [ms]
[OGL LOG][Proc: 0]Ux: update_non_local_matrix_data: 0.09 [ms]
[OGL LOG][Proc: 0]device_partition: call_init: 1.201 [ms]
[OGL LOG][Proc: 0]Ux_matrix: call_init: 71.601 [ms]
[OGL LOG][Proc: 0]Ux_rhs: call_init: 5.882000000000001 [ms]
[OGL LOG][Proc: 0]Ux_solution: call_init: 1.042 [ms]
[OGL LOG][Preconditioner.H:121] Generate preconditioner BJ MaxBlockSize 1
[OGL LOG][Proc: 0]Ux: init_precond: 4.947 [ms]
[OGL LOG][StoppingCriterion.H:373] Creating stopping criterion with minIter 0 frequency 1
[OGL LOG][Proc: 0]Ux: generate_solver: 0.017 [ms]
[OGL LOG][Proc: 0]Ux: solve: 1525.531 [ms]
[OGL LOG][Proc: 0]Ux: copy_x_back: 1.293 [ms]
[OGL LOG][lduLduBase.H:336] 
Statistics:
	Time per iteration: 63563 [mu s]
	Time per residual norm calculation: 1435.000000 [mu s]
	Time per iteration and DOF: 10.077950 [ns]
	Retrieve results bandwidth 2.948000 [GByte/s]
[OGL LOG][Proc: 0]Ux: solve_multi_gpu: 1612.351 [ms]
BJhipGKOBiCGStab:  Solving for Ux, Initial residual = 0.9999999999999023, Final residual = 0.05874875147961206, No Iterations 24
[OGL LOG][lduLduBase.H:119] Initialising OGL
	OGL commit:  a97448d+
	Branch: PersistentDeviceIdGuard 
	Build type: Release
	Ginkgo version: 1.5.0 ( develop)
	Ginkgo commit: 4292ffdee
	MPI is GPU aware: 1
	Forces host buffer based communication: 0
	CPU ranks per GPU: 1
	Matrix format: Coo
	End OGL_INFO
[OGL LOG][Proc: 0]: global_index_init: 1.352 [ms]
[OGL LOG][Proc: 0]Uy_local_cols: call_init: 0.009000000000000001 [ms]
[OGL LOG][Proc: 0]Uy_local_rows: call_init: 0.003 [ms]
[OGL LOG][Proc: 0]Uy_local_ldu_map: call_init: 0.004 [ms]
[OGL LOG][Proc: 0]Uy_local_coeffs: call_init: 0.004 [ms]
[OGL LOG][Proc: 0]Uy_non_local_cols: call_init: 0.004 [ms]
[OGL LOG][Proc: 0]Uy_non_local_rows: call_init: 0.003 [ms]
[OGL LOG][Proc: 0]Uy_non_local_ldu_map: call_init: 0.003 [ms]
[OGL LOG][Proc: 0]Uy_non_local_coeffs: call_init: 0.004 [ms]
[OGL LOG][Proc: 0]Uy: init_local_sparsity_pattern: 86.102 [ms]
[OGL LOG][Proc: 0]Uy: init_non_local_sparsity_pattern: 1.091 [ms]
[OGL LOG][Proc: 0]Uy: update_local_matrix_data: 11.747 [ms]
[OGL LOG][Proc: 0]Uy: update_non_local_matrix_data: 0.08700000000000001 [ms]
[OGL LOG][Proc: 0]Uy_matrix: call_init: 46.695 [ms]
[OGL LOG][Proc: 0]Uy_rhs: call_init: 5.494 [ms]
[OGL LOG][Proc: 0]Uy_solution: call_init: 0.854 [ms]
[OGL LOG][Preconditioner.H:121] Generate preconditioner BJ MaxBlockSize 1
[OGL LOG][Proc: 0]Uy: init_precond: 0.41 [ms]
[OGL LOG][StoppingCriterion.H:373] Creating stopping criterion with minIter 0 frequency 1
[OGL LOG][Proc: 0]Uy: generate_solver: 0.002 [ms]
[OGL LOG][Proc: 0]Uy: solve: 177.556 [ms]
[OGL LOG][Proc: 0]Uy: copy_x_back: 1.252 [ms]
[OGL LOG][lduLduBase.H:336] 
Statistics:
	Time per iteration: 3414 [mu s]
	Time per residual norm calculation: 5197.000000 [mu s]
	Time per iteration and DOF: 0.541292 [ns]
	Retrieve results bandwidth 3.045000 [GByte/s]
[OGL LOG][Proc: 0]Uy: solve_multi_gpu: 233.144 [ms]
BJhipGKOBiCGStab:  Solving for Uy, Initial residual = 1.000000000000004, Final residual = 0.06026153465609615, No Iterations 52
[OGL LOG][lduLduBase.H:119] Initialising OGL
	OGL commit:  a97448d+
	Branch: PersistentDeviceIdGuard 
	Build type: Release
	Ginkgo version: 1.5.0 ( develop)
	Ginkgo commit: 4292ffdee
	MPI is GPU aware: 1
	Forces host buffer based communication: 0
	CPU ranks per GPU: 1
	Matrix format: Coo
	End OGL_INFO
[OGL LOG][Proc: 0]: global_index_init: 0.5700000000000001 [ms]
[OGL LOG][Proc: 0]Uz_local_cols: call_init: 0.191 [ms]
[OGL LOG][Proc: 0]Uz_local_rows: call_init: 0.004 [ms]
[OGL LOG][Proc: 0]Uz_local_ldu_map: call_init: 0.004 [ms]
[OGL LOG][Proc: 0]Uz_local_coeffs: call_init: 0.004 [ms]
[OGL LOG][Proc: 0]Uz_non_local_cols: call_init: 0.004 [ms]
[OGL LOG][Proc: 0]Uz_non_local_rows: call_init: 0.003 [ms]
[OGL LOG][Proc: 0]Uz_non_local_ldu_map: call_init: 0.004 [ms]
[OGL LOG][Proc: 0]Uz_non_local_coeffs: call_init: 0.004 [ms]
[OGL LOG][Proc: 0]Uz: init_local_sparsity_pattern: 91.027 [ms]
[OGL LOG][Proc: 0]Uz: init_non_local_sparsity_pattern: 0.763 [ms]
[OGL LOG][Proc: 0]Uz: update_local_matrix_data: 13.327 [ms]
[OGL LOG][Proc: 0]Uz: update_non_local_matrix_data: 0.105 [ms]
[OGL LOG][Proc: 0]Uz_matrix: call_init: 43.206 [ms]
[OGL LOG][Proc: 0]Uz_rhs: call_init: 2.369 [ms]
[OGL LOG][Proc: 0]Uz_solution: call_init: 0.884 [ms]
[OGL LOG][Preconditioner.H:121] Generate preconditioner BJ MaxBlockSize 1
[OGL LOG][Proc: 0]Uz: init_precond: 0.376 [ms]
[OGL LOG][StoppingCriterion.H:373] Creating stopping criterion with minIter 0 frequency 1
[OGL LOG][Proc: 0]Uz: generate_solver: 0.003 [ms]
[OGL LOG][Proc: 0]Uz: solve: 35.93 [ms]
[OGL LOG][Proc: 0]Uz: copy_x_back: 1.258 [ms]
[OGL LOG][lduLduBase.H:336] 
Statistics:
	Time per iteration: 35930 [mu s]
	Time per residual norm calculation: 264.000000 [mu s]
	Time per iteration and DOF: 5.696722 [ns]
	Retrieve results bandwidth 3.030000 [GByte/s]
[OGL LOG][Proc: 0]Uz: solve_multi_gpu: 85.11199999999999 [ms]
BJhipGKOBiCGStab:  Solving for Uz, Initial residual = 1.000000000000019, Final residual = 0.09952964467305385, No Iterations 1
[INFO] MomentumPredictor: 2529.167 [ms]
[INFO] MatrixAssemblyPI: 86.251 [ms]
[INFO] MatrixAssemblyPII: 40.29 [ms]
GAMG:  Solving for p, Initial residual = 1, Final residual = 0.00956622769112063, No Iterations 24
[INFO] SolveP: 1328.146 [ms]
time step continuity errors : sum local = 0.003510162099370493, global = 5.925643329777566e-06, cumulative = 5.925643329777566e-06
[INFO] postSolveP: 22.228 [ms]
[OGL LOG][lduLduBase.H:119] Initialising OGL
	OGL commit:  a97448d+
	Branch: PersistentDeviceIdGuard 
	Build type: Release
	Ginkgo version: 1.5.0 ( develop)
	Ginkgo commit: 4292ffdee
	MPI is GPU aware: 1
	Forces host buffer based communication: 0
	CPU ranks per GPU: 1
	Matrix format: Coo
	End OGL_INFO
[OGL LOG][Proc: 0]: global_index_init: 0.472 [ms]
[OGL LOG][Proc: 0]nuTilda_local_cols: call_init: 0.008 [ms]
[OGL LOG][Proc: 0]nuTilda_local_rows: call_init: 0.004 [ms]
[OGL LOG][Proc: 0]nuTilda_local_ldu_map: call_init: 0.004 [ms]
[OGL LOG][Proc: 0]nuTilda_local_coeffs: call_init: 0.005 [ms]
[OGL LOG][Proc: 0]nuTilda_non_local_cols: call_init: 0.004 [ms]
[OGL LOG][Proc: 0]nuTilda_non_local_rows: call_init: 0.004 [ms]
[OGL LOG][Proc: 0]nuTilda_non_local_ldu_map: call_init: 0.004 [ms]
[OGL LOG][Proc: 0]nuTilda_non_local_coeffs: call_init: 0.004 [ms]
[OGL LOG][Proc: 0]nuTilda: init_local_sparsity_pattern: 86.785 [ms]
[OGL LOG][Proc: 0]nuTilda: init_non_local_sparsity_pattern: 1.725 [ms]
[OGL LOG][Proc: 0]nuTilda: update_local_matrix_data: 12.146 [ms]
[OGL LOG][Proc: 0]nuTilda: update_non_local_matrix_data: 0.07100000000000001 [ms]
[OGL LOG][Proc: 0]nuTilda_matrix: call_init: 39.127 [ms]
[OGL LOG][Proc: 0]nuTilda_rhs: call_init: 2.865 [ms]
[OGL LOG][Proc: 0]nuTilda_solution: call_init: 0.667 [ms]
[OGL LOG][Preconditioner.H:121] Generate preconditioner BJ MaxBlockSize 1
[OGL LOG][Proc: 0]nuTilda: init_precond: 0.446 [ms]
[OGL LOG][StoppingCriterion.H:373] Creating stopping criterion with minIter 0 frequency 1
[OGL LOG][Proc: 0]nuTilda: generate_solver: 0.003 [ms]
[OGL LOG][Proc: 0]nuTilda: solve: 37.185 [ms]
[OGL LOG][Proc: 0]nuTilda: copy_x_back: 1.28 [ms]
[OGL LOG][lduLduBase.H:336] 
Statistics:
	Time per iteration: 18592 [mu s]
	Time per residual norm calculation: 261.000000 [mu s]
	Time per iteration and DOF: 2.947772 [ns]
	Retrieve results bandwidth 2.978000 [GByte/s]
[OGL LOG][Proc: 0]nuTilda: solve_multi_gpu: 84.7 [ms]
BJhipGKOBiCGStab:  Solving for nuTilda, Initial residual = 0.9999999999971227, Final residual = 0.0940327924094084, No Iterations 2
[INFO] TimeStep: 5045.893 [ms]
ExecutionTime = 13.47 s  ClockTime = 13 s

--> FOAM Warning : 
    From virtual bool Foam::functionObjects::fieldSelection::checkSelection()
    in file functionObjects/fieldSelections/fieldSelection/fieldSelection.C at line 166
    Field k not found
--> FOAM Warning : 
    From virtual bool Foam::functionObjects::fieldSelection::checkSelection()
    in file functionObjects/fieldSelections/fieldSelection/fieldSelection.C at line 166
    Field gammaInt not found
--> FOAM Warning : 
    From virtual bool Foam::functionObjects::fieldSelection::checkSelection()
    in file functionObjects/fieldSelections/fieldSelection/fieldSelection.C at line 166
    Field omega not found
--> FOAM Warning : 
    From virtual bool Foam::functionObjects::fieldSelection::checkSelection()
    in file functionObjects/fieldSelections/fieldSelection/fieldSelection.C at line 166
    Field ReThetat not found
--> FOAM Warning : 
    From virtual bool Foam::functionObjects::fieldSelection::checkSelection()
    in file functionObjects/fieldSelections/fieldSelection/fieldSelection.C at line 166
    Field epsilon not found
--> FOAM Warning : 
    From virtual bool Foam::functionObjects::solverFieldSelection::updateSelection()
    in file functionObjects/fieldSelections/solverFieldSelection/solverFieldSelection.C at line 85
    Valid solver fields are: 3(U nuTilda p)Time = 2

velocityDampingConstraint velocityDamping damped 0 (0%) of cells, with max limit 300
[INFO] MatrixAssemblyU: 534.571 [ms]
[OGL LOG][Proc: 0]: global_index_init: 0.132 [ms]
[OGL LOG][Proc: 0]Ux_local_coeffs: call_update: 0.005 [ms]
[OGL LOG][Proc: 0]Ux_non_local_coeffs: call_update: 0 [ms]
[OGL LOG][Proc: 0]Ux: update_local_matrix_data: 11.141 [ms]
[OGL LOG][Proc: 0]Ux: update_non_local_matrix_data: 0.07000000000000001 [ms]
[OGL LOG][Proc: 0]Ux_matrix: call_update: 5.409 [ms]
[OGL LOG][Proc: 0]Ux_rhs: call_update: 0.881 [ms]
[OGL LOG][Preconditioner.H:121] Generate preconditioner BJ MaxBlockSize 1
[OGL LOG][Proc: 0]Ux: init_precond: 0.351 [ms]
[OGL LOG][StoppingCriterion.H:373] Creating stopping criterion with minIter 28 frequency 1
[OGL LOG][Proc: 0]Ux: generate_solver: 0.003 [ms]
[OGL LOG][Proc: 0]Ux: solve: 46.665 [ms]
[OGL LOG][Proc: 0]Ux: copy_x_back: 1.285 [ms]
[OGL LOG][lduLduBase.H:336] 
Statistics:
	Time per iteration: 3333 [mu s]
	Time per residual norm calculation: 262.000000 [mu s]
	Time per iteration and DOF: 0.528449 [ns]
	Retrieve results bandwidth 2.967000 [GByte/s]
[OGL LOG][Proc: 0]Ux: solve_multi_gpu: 55.452 [ms]
BJhipGKOBiCGStab:  Solving for Ux, Initial residual = 0.6033576688186132, Final residual = 0.03441710603480655, No Iterations 14
[OGL LOG][Proc: 0]: global_index_init: 0.386 [ms]
[OGL LOG][Proc: 0]Uy_local_coeffs: call_update: 0 [ms]
[OGL LOG][Proc: 0]Uy_non_local_coeffs: call_update: 0 [ms]
[OGL LOG][Proc: 0]Uy: update_local_matrix_data: 11.432 [ms]
[OGL LOG][Proc: 0]Uy: update_non_local_matrix_data: 0.078 [ms]
[OGL LOG][Proc: 0]Uy_matrix: call_update: 3.543 [ms]
[OGL LOG][Proc: 0]Uy_rhs: call_update: 2.03 [ms]
[OGL LOG][Preconditioner.H:121] Generate preconditioner BJ MaxBlockSize 1
[OGL LOG][Proc: 0]Uy: init_precond: 0.353 [ms]
[OGL LOG][StoppingCriterion.H:373] Creating stopping criterion with minIter 0 frequency 1
[OGL LOG][Proc: 0]Uy: generate_solver: 0.002 [ms]
[OGL LOG][Proc: 0]Uy: solve: 43.556 [ms]
[OGL LOG][Proc: 0]Uy: copy_x_back: 1.282 [ms]
[OGL LOG][lduLduBase.H:336] 
Statistics:
	Time per iteration: 4355 [mu s]
	Time per residual norm calculation: 263.000000 [mu s]
	Time per iteration and DOF: 0.690488 [ns]
	Retrieve results bandwidth 2.974000 [GByte/s]
[OGL LOG][Proc: 0]Uy: solve_multi_gpu: 51.631 [ms]
BJhipGKOBiCGStab:  Solving for Uy, Initial residual = 0.9970112619439866, Final residual = 0.07967213017095119, No Iterations 10
[OGL LOG][Proc: 0]: global_index_init: 0.331 [ms]
[OGL LOG][Proc: 0]Uz_local_coeffs: call_update: 0 [ms]
[OGL LOG][Proc: 0]Uz_non_local_coeffs: call_update: 0 [ms]
[OGL LOG][Proc: 0]Uz: update_local_matrix_data: 13.18 [ms]
[OGL LOG][Proc: 0]Uz: update_non_local_matrix_data: 0.076 [ms]
[OGL LOG][Proc: 0]Uz_matrix: call_update: 3.447 [ms]
[OGL LOG][Proc: 0]Uz_rhs: call_update: 0.752 [ms]
[OGL LOG][Preconditioner.H:121] Generate preconditioner BJ MaxBlockSize 1
[OGL LOG][Proc: 0]Uz: init_precond: 0.344 [ms]
[OGL LOG][StoppingCriterion.H:373] Creating stopping criterion with minIter 1 frequency 1
[OGL LOG][Proc: 0]Uz: generate_solver: 0.002 [ms]
[OGL LOG][Proc: 0]Uz: solve: 44.482 [ms]
[OGL LOG][Proc: 0]Uz: copy_x_back: 2.262 [ms]
[OGL LOG][lduLduBase.H:336] 
Statistics:
	Time per iteration: 4043 [mu s]
	Time per residual norm calculation: 267.000000 [mu s]
	Time per iteration and DOF: 0.641020 [ns]
	Retrieve results bandwidth 1.685000 [GByte/s]
[OGL LOG][Proc: 0]Uz: solve_multi_gpu: 52.14 [ms]
BJhipGKOBiCGStab:  Solving for Uz, Initial residual = 0.9999495702823811, Final residual = 0.07566946801321589, No Iterations 11
[INFO] MomentumPredictor: 237.022 [ms]
[INFO] MatrixAssemblyPI: 85.027 [ms]
[INFO] MatrixAssemblyPII: 40.396 [ms]
GAMG:  Solving for p, Initial residual = 0.2204560351174537, Final residual = 0.002117871567700688, No Iterations 13
[INFO] SolveP: 629.796 [ms]
time step continuity errors : sum local = 0.04361815367496492, global = -0.0002737439999675788, cumulative = -0.0002678183566378012
[INFO] postSolveP: 22.847 [ms]
[OGL LOG][Proc: 0]: global_index_init: 0.265 [ms]
[OGL LOG][Proc: 0]nuTilda_local_coeffs: call_update: 0 [ms]
[OGL LOG][Proc: 0]nuTilda_non_local_coeffs: call_update: 0 [ms]
[OGL LOG][Proc: 0]nuTilda: update_local_matrix_data: 11.594 [ms]
[OGL LOG][Proc: 0]nuTilda: update_non_local_matrix_data: 0.066 [ms]
[OGL LOG][Proc: 0]nuTilda_matrix: call_update: 3.849 [ms]
[OGL LOG][Proc: 0]nuTilda_rhs: call_update: 2.221 [ms]
[OGL LOG][Preconditioner.H:121] Generate preconditioner BJ MaxBlockSize 1
[OGL LOG][Proc: 0]nuTilda: init_precond: 0.352 [ms]
[OGL LOG][StoppingCriterion.H:373] Creating stopping criterion with minIter 3 frequency 1
[OGL LOG][Proc: 0]nuTilda: generate_solver: 0.002 [ms]
[OGL LOG][Proc: 0]nuTilda: solve: 27.308 [ms]
[OGL LOG][Proc: 0]nuTilda: copy_x_back: 1.286 [ms]
[OGL LOG][lduLduBase.H:336] 
Statistics:
	Time per iteration: 13654 [mu s]
	Time per residual norm calculation: 320.000000 [mu s]
	Time per iteration and DOF: 2.164849 [ns]
	Retrieve results bandwidth 2.964000 [GByte/s]
[OGL LOG][Proc: 0]nuTilda: solve_multi_gpu: 35.836 [ms]
BJhipGKOBiCGStab:  Solving for nuTilda, Initial residual = 0.403196709129492, Final residual = 0.006119374146844871, No Iterations 2
[INFO] TimeStep: 1890.207 [ms]
ExecutionTime = 15.79 s  ClockTime = 16 s

Time = 3

velocityDampingConstraint velocityDamping damped 894 (0.01%) of cells, with max limit 300
[INFO] MatrixAssemblyU: 550.487 [ms]
[OGL LOG][Proc: 0]: global_index_init: 0.109 [ms]
[OGL LOG][Proc: 0]Ux_local_coeffs: call_update: 0 [ms]
[OGL LOG][Proc: 0]Ux_non_local_coeffs: call_update: 0 [ms]
[OGL LOG][Proc: 0]Ux: update_local_matrix_data: 10.93 [ms]
[OGL LOG][Proc: 0]Ux: update_non_local_matrix_data: 0.074 [ms]
[OGL LOG][Proc: 0]Ux_matrix: call_update: 3.592 [ms]
[OGL LOG][Proc: 0]Ux_rhs: call_update: 1.815 [ms]
[OGL LOG][Preconditioner.H:121] Generate preconditioner BJ MaxBlockSize 1
[OGL LOG][Proc: 0]Ux: init_precond: 0.348 [ms]
[OGL LOG][StoppingCriterion.H:373] Creating stopping criterion with minIter 17 frequency 1
[OGL LOG][Proc: 0]Ux: generate_solver: 0.002 [ms]
[OGL LOG][Proc: 0]Ux: solve: 47.607 [ms]
[OGL LOG][Proc: 0]Ux: copy_x_back: 1.279 [ms]
[OGL LOG][lduLduBase.H:336] 
Statistics:
	Time per iteration: 3400 [mu s]
	Time per residual norm calculation: 306.000000 [mu s]
	Time per iteration and DOF: 0.539072 [ns]
	Retrieve results bandwidth 2.981000 [GByte/s]
[OGL LOG][Proc: 0]Ux: solve_multi_gpu: 55.469 [ms]
BJhipGKOBiCGStab:  Solving for Ux, Initial residual = 0.1281637921482955, Final residual = 0.006186355422316548, No Iterations 14
[OGL LOG][Proc: 0]: global_index_init: 0.5670000000000001 [ms]
[OGL LOG][Proc: 0]Uy_local_coeffs: call_update: 0 [ms]
[OGL LOG][Proc: 0]Uy_non_local_coeffs: call_update: 0 [ms]
[OGL LOG][Proc: 0]Uy: update_local_matrix_data: 10.956 [ms]
[OGL LOG][Proc: 0]Uy: update_non_local_matrix_data: 0.077 [ms]
[OGL LOG][Proc: 0]Uy_matrix: call_update: 4.277 [ms]
[OGL LOG][Proc: 0]Uy_rhs: call_update: 1.628 [ms]
[OGL LOG][Preconditioner.H:121] Generate preconditioner BJ MaxBlockSize 1
[OGL LOG][Proc: 0]Uy: init_precond: 0.345 [ms]
[OGL LOG][StoppingCriterion.H:373] Creating stopping criterion with minIter 12 frequency 1
[OGL LOG][Proc: 0]Uy: generate_solver: 0.002 [ms]
[OGL LOG][Proc: 0]Uy: solve: 44.489 [ms]
[OGL LOG][Proc: 0]Uy: copy_x_back: 1.257 [ms]
[OGL LOG][lduLduBase.H:336] 
Statistics:
	Time per iteration: 4044 [mu s]
	Time per residual norm calculation: 306.000000 [mu s]
	Time per iteration and DOF: 0.641179 [ns]
	Retrieve results bandwidth 3.033000 [GByte/s]
[OGL LOG][Proc: 0]Uy: solve_multi_gpu: 52.84 [ms]
BJhipGKOBiCGStab:  Solving for Uy, Initial residual = 0.2860715266917053, Final residual = 0.02626184541166473, No Iterations 11
[OGL LOG][Proc: 0]: global_index_init: 0.757 [ms]
[OGL LOG][Proc: 0]Uz_local_coeffs: call_update: 0 [ms]
[OGL LOG][Proc: 0]Uz_non_local_coeffs: call_update: 0 [ms]
[OGL LOG][Proc: 0]Uz: update_local_matrix_data: 11.09 [ms]
[OGL LOG][Proc: 0]Uz: update_non_local_matrix_data: 0.06900000000000001 [ms]
[OGL LOG][Proc: 0]Uz_matrix: call_update: 4.055 [ms]
[OGL LOG][Proc: 0]Uz_rhs: call_update: 1.513 [ms]
[OGL LOG][Preconditioner.H:121] Generate preconditioner BJ MaxBlockSize 1
[OGL LOG][Proc: 0]Uz: init_precond: 0.344 [ms]
[OGL LOG][StoppingCriterion.H:373] Creating stopping criterion with minIter 13 frequency 1
[OGL LOG][Proc: 0]Uz: generate_solver: 0.002 [ms]
[OGL LOG][Proc: 0]Uz: solve: 43.743 [ms]
[OGL LOG][Proc: 0]Uz: copy_x_back: 1.292 [ms]
[OGL LOG][lduLduBase.H:336] 
Statistics:
	Time per iteration: 3976 [mu s]
	Time per residual norm calculation: 252.000000 [mu s]
	Time per iteration and DOF: 0.630397 [ns]
	Retrieve results bandwidth 2.951000 [GByte/s]
[OGL LOG][Proc: 0]Uz: solve_multi_gpu: 51.76 [ms]
BJhipGKOBiCGStab:  Solving for Uz, Initial residual = 0.2627450799784831, Final residual = 0.02417733261505712, No Iterations 11
[INFO] MomentumPredictor: 233.542 [ms]
[INFO] MatrixAssemblyPI: 82.90000000000001 [ms]
[INFO] MatrixAssemblyPII: 40.429 [ms]
GAMG:  Solving for p, Initial residual = 0.1603834366541863, Final residual = 0.001577779775542687, No Iterations 12
[INFO] SolveP: 591.943 [ms]
time step continuity errors : sum local = 0.0195847212897291, global = -0.0001064182142302429, cumulative = -0.000374236570868044
[INFO] postSolveP: 22.276 [ms]
[OGL LOG][Proc: 0]: global_index_init: 0.287 [ms]
[OGL LOG][Proc: 0]nuTilda_local_coeffs: call_update: 0 [ms]
[OGL LOG][Proc: 0]nuTilda_non_local_coeffs: call_update: 0 [ms]
[OGL LOG][Proc: 0]nuTilda: update_local_matrix_data: 11.348 [ms]
[OGL LOG][Proc: 0]nuTilda: update_non_local_matrix_data: 0.078 [ms]
[OGL LOG][Proc: 0]nuTilda_matrix: call_update: 3.416 [ms]
[OGL LOG][Proc: 0]nuTilda_rhs: call_update: 2.576 [ms]
[OGL LOG][Preconditioner.H:121] Generate preconditioner BJ MaxBlockSize 1
[OGL LOG][Proc: 0]nuTilda: init_precond: 0.39 [ms]
[OGL LOG][StoppingCriterion.H:373] Creating stopping criterion with minIter 2 frequency 1
[OGL LOG][Proc: 0]nuTilda: generate_solver: 0.002 [ms]
[OGL LOG][Proc: 0]nuTilda: solve: 29.896 [ms]
[OGL LOG][Proc: 0]nuTilda: copy_x_back: 1.278 [ms]
[OGL LOG][lduLduBase.H:336] 
Statistics:
	Time per iteration: 14948 [mu s]
	Time per residual norm calculation: 322.000000 [mu s]
	Time per iteration and DOF: 2.370014 [ns]
	Retrieve results bandwidth 2.983000 [GByte/s]
[OGL LOG][Proc: 0]nuTilda: solve_multi_gpu: 38.389 [ms]
BJhipGKOBiCGStab:  Solving for nuTilda, Initial residual = 0.1866768254471082, Final residual = 0.01413217393627245, No Iterations 2
[INFO] TimeStep: 1862.69 [ms]
ExecutionTime = 18.1 s  ClockTime = 18 s

Time = 4

velocityDampingConstraint velocityDamping damped 55 (0%) of cells, with max limit 300
[INFO] MatrixAssemblyU: 566.6319999999999 [ms]
[OGL LOG][Proc: 0]: global_index_init: 0.115 [ms]
[OGL LOG][Proc: 0]Ux_local_coeffs: call_update: 0 [ms]
[OGL LOG][Proc: 0]Ux_non_local_coeffs: call_update: 0 [ms]
[OGL LOG][Proc: 0]Ux: update_local_matrix_data: 11.478 [ms]
[OGL LOG][Proc: 0]Ux: update_non_local_matrix_data: 0.07000000000000001 [ms]
[OGL LOG][Proc: 0]Ux_matrix: call_update: 3.466 [ms]
[OGL LOG][Proc: 0]Ux_rhs: call_update: 3.635 [ms]
[OGL LOG][Preconditioner.H:121] Generate preconditioner BJ MaxBlockSize 1
[OGL LOG][Proc: 0]Ux: init_precond: 0.442 [ms]
[OGL LOG][StoppingCriterion.H:373] Creating stopping criterion with minIter 16 frequency 1
[OGL LOG][Proc: 0]Ux: generate_solver: 0.002 [ms]
[OGL LOG][Proc: 0]Ux: solve: 49.619 [ms]
[OGL LOG][Proc: 0]Ux: copy_x_back: 1.304 [ms]
[OGL LOG][lduLduBase.H:336] 
Statistics:
	Time per iteration: 4961 [mu s]
	Time per residual norm calculation: 266.000000 [mu s]
	Time per iteration and DOF: 0.786569 [ns]
	Retrieve results bandwidth 2.923000 [GByte/s]
[OGL LOG][Proc: 0]Ux: solve_multi_gpu: 59.272 [ms]
BJhipGKOBiCGStab:  Solving for Ux, Initial residual = 0.1416110364409376, Final residual = 0.01110738962992158, No Iterations 10
[OGL LOG][Proc: 0]: global_index_init: 0.636 [ms]
[OGL LOG][Proc: 0]Uy_local_coeffs: call_update: 0 [ms]
[OGL LOG][Proc: 0]Uy_non_local_coeffs: call_update: 0 [ms]
[OGL LOG][Proc: 0]Uy: update_local_matrix_data: 11.716 [ms]
[OGL LOG][Proc: 0]Uy: update_non_local_matrix_data: 0.077 [ms]
[OGL LOG][Proc: 0]Uy_matrix: call_update: 3.68 [ms]
[OGL LOG][Proc: 0]Uy_rhs: call_update: 2.022 [ms]
[OGL LOG][Preconditioner.H:121] Generate preconditioner BJ MaxBlockSize 1
[OGL LOG][Proc: 0]Uy: init_precond: 0.441 [ms]
[OGL LOG][StoppingCriterion.H:373] Creating stopping criterion with minIter 13 frequency 1
[OGL LOG][Proc: 0]Uy: generate_solver: 0.002 [ms]
[OGL LOG][Proc: 0]Uy: solve: 47.112 [ms]
[OGL LOG][Proc: 0]Uy: copy_x_back: 1.267 [ms]
[OGL LOG][lduLduBase.H:336] 
Statistics:
	Time per iteration: 3624 [mu s]
	Time per residual norm calculation: 301.000000 [mu s]
	Time per iteration and DOF: 0.574587 [ns]
	Retrieve results bandwidth 3.009000 [GByte/s]
[OGL LOG][Proc: 0]Uy: solve_multi_gpu: 55.32 [ms]
BJhipGKOBiCGStab:  Solving for Uy, Initial residual = 0.17345827157484, Final residual = 0.01662092581631836, No Iterations 13
[OGL LOG][Proc: 0]: global_index_init: 0.7010000000000001 [ms]
[OGL LOG][Proc: 0]Uz_local_coeffs: call_update: 0 [ms]
[OGL LOG][Proc: 0]Uz_non_local_coeffs: call_update: 0 [ms]
[OGL LOG][Proc: 0]Uz: update_local_matrix_data: 13.237 [ms]
[OGL LOG][Proc: 0]Uz: update_non_local_matrix_data: 0.077 [ms]
[OGL LOG][Proc: 0]Uz_matrix: call_update: 6.141 [ms]
[OGL LOG][Proc: 0]Uz_rhs: call_update: 0.588 [ms]
[OGL LOG][Preconditioner.H:121] Generate preconditioner BJ MaxBlockSize 1
[OGL LOG][Proc: 0]Uz: init_precond: 0.342 [ms]
[OGL LOG][StoppingCriterion.H:373] Creating stopping criterion with minIter 13 frequency 1
[OGL LOG][Proc: 0]Uz: generate_solver: 0.002 [ms]
[OGL LOG][Proc: 0]Uz: solve: 42.599 [ms]
[OGL LOG][Proc: 0]Uz: copy_x_back: 1.27 [ms]
[OGL LOG][lduLduBase.H:336] 
Statistics:
	Time per iteration: 4259 [mu s]
	Time per residual norm calculation: 253.000000 [mu s]
	Time per iteration and DOF: 0.675267 [ns]
	Retrieve results bandwidth 3.002000 [GByte/s]
[OGL LOG][Proc: 0]Uz: solve_multi_gpu: 51.746 [ms]
BJhipGKOBiCGStab:  Solving for Uz, Initial residual = 0.1622790572014225, Final residual = 0.01602489008996053, No Iterations 10
[INFO] MomentumPredictor: 243.089 [ms]
[INFO] MatrixAssemblyPI: 82.241 [ms]
[INFO] MatrixAssemblyPII: 40.099 [ms]
GAMG:  Solving for p, Initial residual = 0.11962079707046, Final residual = 0.001008898236625672, No Iterations 10
[INFO] SolveP: 487.426 [ms]
time step continuity errors : sum local = 0.01276683578344201, global = -0.0001869470880219992, cumulative = -0.0005611836588900433
[INFO] postSolveP: 21.474 [ms]
[OGL LOG][Proc: 0]: global_index_init: 0.577 [ms]
[OGL LOG][Proc: 0]nuTilda_local_coeffs: call_update: 0 [ms]
[OGL LOG][Proc: 0]nuTilda_non_local_coeffs: call_update: 0 [ms]
[OGL LOG][Proc: 0]nuTilda: update_local_matrix_data: 12.055 [ms]
[OGL LOG][Proc: 0]nuTilda: update_non_local_matrix_data: 0.079 [ms]
[OGL LOG][Proc: 0]nuTilda_matrix: call_update: 4.339 [ms]
[OGL LOG][Proc: 0]nuTilda_rhs: call_update: 2.259 [ms]
[OGL LOG][Preconditioner.H:121] Generate preconditioner BJ MaxBlockSize 1
[OGL LOG][Proc: 0]nuTilda: init_precond: 0.369 [ms]
[OGL LOG][StoppingCriterion.H:373] Creating stopping criterion with minIter 2 frequency 1
[OGL LOG][Proc: 0]nuTilda: generate_solver: 0.002 [ms]
[OGL LOG][Proc: 0]nuTilda: solve: 31.063 [ms]
[OGL LOG][Proc: 0]nuTilda: copy_x_back: 1.292 [ms]
[OGL LOG][lduLduBase.H:336] 
Statistics:
	Time per iteration: 15531 [mu s]
	Time per residual norm calculation: 266.000000 [mu s]
	Time per iteration and DOF: 2.462449 [ns]
	Retrieve results bandwidth 2.951000 [GByte/s]
[OGL LOG][Proc: 0]nuTilda: solve_multi_gpu: 40.13 [ms]
BJhipGKOBiCGStab:  Solving for nuTilda, Initial residual = 0.1083916159087012, Final residual = 0.009733567953092765, No Iterations 2
bounding nuTilda, min: -2.357500885528314e-07 max: 0.001032417728090931 average: 8.535741620726168e-05
[INFO] TimeStep: 1799.628 [ms]
ExecutionTime = 20.35 s  ClockTime = 20 s

Time = 5

velocityDampingConstraint velocityDamping damped 59 (0%) of cells, with max limit 300
[INFO] MatrixAssemblyU: 560.84 [ms]
[OGL LOG][Proc: 0]: global_index_init: 1.608 [ms]
[OGL LOG][Proc: 0]Ux_local_coeffs: call_update: 0 [ms]
[OGL LOG][Proc: 0]Ux_non_local_coeffs: call_update: 0 [ms]
[OGL LOG][Proc: 0]Ux: update_local_matrix_data: 10.844 [ms]
[OGL LOG][Proc: 0]Ux: update_non_local_matrix_data: 0.064 [ms]
[OGL LOG][Proc: 0]Ux_matrix: call_update: 3.743 [ms]
[OGL LOG][Proc: 0]Ux_rhs: call_update: 7.724 [ms]
[OGL LOG][Preconditioner.H:121] Generate preconditioner BJ MaxBlockSize 1
[OGL LOG][Proc: 0]Ux: init_precond: 0.373 [ms]
[OGL LOG][StoppingCriterion.H:373] Creating stopping criterion with minIter 12 frequency 1
[OGL LOG][Proc: 0]Ux: generate_solver: 0.002 [ms]
[OGL LOG][Proc: 0]Ux: solve: 44.025 [ms]
[OGL LOG][Proc: 0]Ux: copy_x_back: 1.266 [ms]
[OGL LOG][lduLduBase.H:336] 
Statistics:
	Time per iteration: 4402 [mu s]
	Time per residual norm calculation: 250.000000 [mu s]
	Time per iteration and DOF: 0.697940 [ns]
	Retrieve results bandwidth 3.011000 [GByte/s]
[OGL LOG][Proc: 0]Ux: solve_multi_gpu: 57.926 [ms]
BJhipGKOBiCGStab:  Solving for Ux, Initial residual = 0.06102949764277729, Final residual = 0.00603557698252316, No Iterations 10
[OGL LOG][Proc: 0]: global_index_init: 0.6890000000000001 [ms]
[OGL LOG][Proc: 0]Uy_local_coeffs: call_update: 0 [ms]
[OGL LOG][Proc: 0]Uy_non_local_coeffs: call_update: 0 [ms]
[OGL LOG][Proc: 0]Uy: update_local_matrix_data: 11.084 [ms]
[OGL LOG][Proc: 0]Uy: update_non_local_matrix_data: 0.076 [ms]
[OGL LOG][Proc: 0]Uy_matrix: call_update: 5.789 [ms]
[OGL LOG][Proc: 0]Uy_rhs: call_update: 1.118 [ms]
[OGL LOG][Preconditioner.H:121] Generate preconditioner BJ MaxBlockSize 1
[OGL LOG][Proc: 0]Uy: init_precond: 0.389 [ms]
[OGL LOG][StoppingCriterion.H:373] Creating stopping criterion with minIter 15 frequency 1
[OGL LOG][Proc: 0]Uy: generate_solver: 0.002 [ms]
[OGL LOG][Proc: 0]Uy: solve: 45.328 [ms]
[OGL LOG][Proc: 0]Uy: copy_x_back: 1.29 [ms]
[OGL LOG][lduLduBase.H:336] 
Statistics:
	Time per iteration: 4532 [mu s]
	Time per residual norm calculation: 254.000000 [mu s]
	Time per iteration and DOF: 0.718551 [ns]
	Retrieve results bandwidth 2.955000 [GByte/s]
[OGL LOG][Proc: 0]Uy: solve_multi_gpu: 54.747 [ms]
BJhipGKOBiCGStab:  Solving for Uy, Initial residual = 0.1257312915141769, Final residual = 0.0116743156384646, No Iterations 10
[OGL LOG][Proc: 0]: global_index_init: 0.6970000000000001 [ms]
[OGL LOG][Proc: 0]Uz_local_coeffs: call_update: 0 [ms]
[OGL LOG][Proc: 0]Uz_non_local_coeffs: call_update: 0 [ms]
[OGL LOG][Proc: 0]Uz: update_local_matrix_data: 11.211 [ms]
[OGL LOG][Proc: 0]Uz: update_non_local_matrix_data: 0.075 [ms]
[OGL LOG][Proc: 0]Uz_matrix: call_update: 3.575 [ms]
[OGL LOG][Proc: 0]Uz_rhs: call_update: 2.954 [ms]
[OGL LOG][Preconditioner.H:121] Generate preconditioner BJ MaxBlockSize 1
[OGL LOG][Proc: 0]Uz: init_precond: 0.47 [ms]
[OGL LOG][StoppingCriterion.H:373] Creating stopping criterion with minIter 12 frequency 1
[OGL LOG][Proc: 0]Uz: generate_solver: 0.002 [ms]
[OGL LOG][Proc: 0]Uz: solve: 46.618 [ms]
[OGL LOG][Proc: 0]Uz: copy_x_back: 1.271 [ms]
[OGL LOG][lduLduBase.H:336] 
Statistics:
	Time per iteration: 3586 [mu s]
	Time per residual norm calculation: 305.000000 [mu s]
	Time per iteration and DOF: 0.568562 [ns]
	Retrieve results bandwidth 2.999000 [GByte/s]
[OGL LOG][Proc: 0]Uz: solve_multi_gpu: 55.708 [ms]
BJhipGKOBiCGStab:  Solving for Uz, Initial residual = 0.1276003940504909, Final residual = 0.006933428583638673, No Iterations 13
[INFO] MomentumPredictor: 243.513 [ms]
[INFO] MatrixAssemblyPI: 82.33199999999999 [ms]
[INFO] MatrixAssemblyPII: 40.725 [ms]
GAMG:  Solving for p, Initial residual = 0.1032841249522367, Final residual = 0.00090201041883548, No Iterations 10
[INFO] SolveP: 488.117 [ms]
time step continuity errors : sum local = 0.008213125582077376, global = 8.430235074455638e-06, cumulative = -0.0005527534238155877
[INFO] postSolveP: 21.514 [ms]
[OGL LOG][Proc: 0]: global_index_init: 0.752 [ms]
[OGL LOG][Proc: 0]nuTilda_local_coeffs: call_update: 0 [ms]
[OGL LOG][Proc: 0]nuTilda_non_local_coeffs: call_update: 0 [ms]
[OGL LOG][Proc: 0]nuTilda: update_local_matrix_data: 11.64 [ms]
[OGL LOG][Proc: 0]nuTilda: update_non_local_matrix_data: 0.065 [ms]
[OGL LOG][Proc: 0]nuTilda_matrix: call_update: 7.502 [ms]
[OGL LOG][Proc: 0]nuTilda_rhs: call_update: 0.5570000000000001 [ms]
[OGL LOG][Preconditioner.H:121] Generate preconditioner BJ MaxBlockSize 1
[OGL LOG][Proc: 0]nuTilda: init_precond: 0.353 [ms]
[OGL LOG][StoppingCriterion.H:373] Creating stopping criterion with minIter 2 frequency 1
[OGL LOG][Proc: 0]nuTilda: generate_solver: 0.002 [ms]
[OGL LOG][Proc: 0]nuTilda: solve: 49.271 [ms]
[OGL LOG][Proc: 0]nuTilda: copy_x_back: 1.263 [ms]
[OGL LOG][lduLduBase.H:336] 
Statistics:
	Time per iteration: 24635 [mu s]
	Time per residual norm calculation: 256.000000 [mu s]
	Time per iteration and DOF: 3.905893 [ns]
	Retrieve results bandwidth 3.018000 [GByte/s]
[OGL LOG][Proc: 0]nuTilda: solve_multi_gpu: 59.773 [ms]
BJhipGKOBiCGStab:  Solving for nuTilda, Initial residual = 0.05964572491522928, Final residual = 0.002670975998589816, No Iterations 2
[INFO] TimeStep: 1797.993 [ms]
ExecutionTime = 22.59 s  ClockTime = 23 s

Time = 6

velocityDampingConstraint velocityDamping damped 0 (0%) of cells, with max limit 300
[INFO] MatrixAssemblyU: 552.92 [ms]
[OGL LOG][Proc: 0]: global_index_init: 1.166 [ms]
[OGL LOG][Proc: 0]Ux_local_coeffs: call_update: 0 [ms]
[OGL LOG][Proc: 0]Ux_non_local_coeffs: call_update: 0 [ms]
[OGL LOG][Proc: 0]Ux: update_local_matrix_data: 11.031 [ms]
[OGL LOG][Proc: 0]Ux: update_non_local_matrix_data: 0.07200000000000001 [ms]
[OGL LOG][Proc: 0]Ux_matrix: call_update: 3.983 [ms]
[OGL LOG][Proc: 0]Ux_rhs: call_update: 2.909 [ms]
[OGL LOG][Preconditioner.H:121] Generate preconditioner BJ MaxBlockSize 1
[OGL LOG][Proc: 0]Ux: init_precond: 0.372 [ms]
[OGL LOG][StoppingCriterion.H:373] Creating stopping criterion with minIter 12 frequency 1
[OGL LOG][Proc: 0]Ux: generate_solver: 0.002 [ms]
[OGL LOG][Proc: 0]Ux: solve: 42.298 [ms]
[OGL LOG][Proc: 0]Ux: copy_x_back: 1.261 [ms]
[OGL LOG][lduLduBase.H:336] 
Statistics:
	Time per iteration: 3845 [mu s]
	Time per residual norm calculation: 270.000000 [mu s]
	Time per iteration and DOF: 0.609627 [ns]
	Retrieve results bandwidth 3.023000 [GByte/s]
[OGL LOG][Proc: 0]Ux: solve_multi_gpu: 51.617 [ms]
BJhipGKOBiCGStab:  Solving for Ux, Initial residual = 0.03381417370543783, Final residual = 0.003176718313478639, No Iterations 11
[OGL LOG][Proc: 0]: global_index_init: 0.888 [ms]
[OGL LOG][Proc: 0]Uy_local_coeffs: call_update: 0 [ms]
[OGL LOG][Proc: 0]Uy_non_local_coeffs: call_update: 0 [ms]
[OGL LOG][Proc: 0]Uy: update_local_matrix_data: 10.981 [ms]
[OGL LOG][Proc: 0]Uy: update_non_local_matrix_data: 0.073 [ms]
[OGL LOG][Proc: 0]Uy_matrix: call_update: 3.561 [ms]
[OGL LOG][Proc: 0]Uy_rhs: call_update: 1.916 [ms]
[OGL LOG][Preconditioner.H:121] Generate preconditioner BJ MaxBlockSize 1
[OGL LOG][Proc: 0]Uy: init_precond: 0.417 [ms]
[OGL LOG][StoppingCriterion.H:373] Creating stopping criterion with minIter 12 frequency 1
[OGL LOG][Proc: 0]Uy: generate_solver: 0.002 [ms]
[OGL LOG][Proc: 0]Uy: solve: 47.181 [ms]
[OGL LOG][Proc: 0]Uy: copy_x_back: 1.284 [ms]
[OGL LOG][lduLduBase.H:336] 
Statistics:
	Time per iteration: 3931 [mu s]
	Time per residual norm calculation: 252.000000 [mu s]
	Time per iteration and DOF: 0.623262 [ns]
	Retrieve results bandwidth 2.969000 [GByte/s]
[OGL LOG][Proc: 0]Uy: solve_multi_gpu: 55.183 [ms]
BJhipGKOBiCGStab:  Solving for Uy, Initial residual = 0.09458052000725177, Final residual = 0.009053888078672214, No Iterations 12
[OGL LOG][Proc: 0]: global_index_init: 0.659 [ms]
[OGL LOG][Proc: 0]Uz_local_coeffs: call_update: 0 [ms]
[OGL LOG][Proc: 0]Uz_non_local_coeffs: call_update: 0 [ms]
[OGL LOG][Proc: 0]Uz: update_local_matrix_data: 11.06 [ms]
[OGL LOG][Proc: 0]Uz: update_non_local_matrix_data: 0.076 [ms]
[OGL LOG][Proc: 0]Uz_matrix: call_update: 3.348 [ms]
[OGL LOG][Proc: 0]Uz_rhs: call_update: 1.985 [ms]
[OGL LOG][Preconditioner.H:121] Generate preconditioner BJ MaxBlockSize 1
[OGL LOG][Proc: 0]Uz: init_precond: 0.447 [ms]
[OGL LOG][StoppingCriterion.H:373] Creating stopping criterion with minIter 15 frequency 1
[OGL LOG][Proc: 0]Uz: generate_solver: 0.002 [ms]
[OGL LOG][Proc: 0]Uz: solve: 45.408 [ms]
[OGL LOG][Proc: 0]Uz: copy_x_back: 1.234 [ms]
[OGL LOG][lduLduBase.H:336] 
Statistics:
	Time per iteration: 3492 [mu s]
	Time per residual norm calculation: 270.000000 [mu s]
	Time per iteration and DOF: 0.553659 [ns]
	Retrieve results bandwidth 3.089000 [GByte/s]
[OGL LOG][Proc: 0]Uz: solve_multi_gpu: 53.249 [ms]
BJhipGKOBiCGStab:  Solving for Uz, Initial residual = 0.1024516291886267, Final residual = 0.006155415419654932, No Iterations 13
[INFO] MomentumPredictor: 235.011 [ms]
[INFO] MatrixAssemblyPI: 82.705 [ms]
[INFO] MatrixAssemblyPII: 40.232 [ms]
GAMG:  Solving for p, Initial residual = 0.09516323621322306, Final residual = 0.0007667342489863372, No Iterations 8
[INFO] SolveP: 401.224 [ms]
time step continuity errors : sum local = 0.006509699576266197, global = 6.416184592912576e-05, cumulative = -0.0004885915778864619
[INFO] postSolveP: 22.085 [ms]
[OGL LOG][Proc: 0]: global_index_init: 0.622 [ms]
[OGL LOG][Proc: 0]nuTilda_local_coeffs: call_update: 0 [ms]
[OGL LOG][Proc: 0]nuTilda_non_local_coeffs: call_update: 0 [ms]
[OGL LOG][Proc: 0]nuTilda: update_local_matrix_data: 11.71 [ms]
[OGL LOG][Proc: 0]nuTilda: update_non_local_matrix_data: 0.081 [ms]
[OGL LOG][Proc: 0]nuTilda_matrix: call_update: 3.649 [ms]
[OGL LOG][Proc: 0]nuTilda_rhs: call_update: 1.079 [ms]
[OGL LOG][Preconditioner.H:121] Generate preconditioner BJ MaxBlockSize 1
[OGL LOG][Proc: 0]nuTilda: init_precond: 0.388 [ms]
[OGL LOG][StoppingCriterion.H:373] Creating stopping criterion with minIter 3 frequency 1
[OGL LOG][Proc: 0]nuTilda: generate_solver: 0.002 [ms]
[OGL LOG][Proc: 0]nuTilda: solve: 26.416 [ms]
[OGL LOG][Proc: 0]nuTilda: copy_x_back: 1.368 [ms]
[OGL LOG][lduLduBase.H:336] 
Statistics:
	Time per iteration: 13208 [mu s]
	Time per residual norm calculation: 278.000000 [mu s]
	Time per iteration and DOF: 2.094136 [ns]
	Retrieve results bandwidth 2.787000 [GByte/s]
[OGL LOG][Proc: 0]nuTilda: solve_multi_gpu: 33.753 [ms]
BJhipGKOBiCGStab:  Solving for nuTilda, Initial residual = 0.05959030563082104, Final residual = 0.00478114413850117, No Iterations 2
[INFO] TimeStep: 1664.253 [ms]
ExecutionTime = 24.7 s  ClockTime = 25 s

Time = 7

velocityDampingConstraint velocityDamping damped 1 (0%) of cells, with max limit 300
[INFO] MatrixAssemblyU: 550.973 [ms]
[OGL LOG][Proc: 0]: global_index_init: 0.047 [ms]
[OGL LOG][Proc: 0]Ux_local_coeffs: call_update: 0 [ms]
[OGL LOG][Proc: 0]Ux_non_local_coeffs: call_update: 0 [ms]
[OGL LOG][Proc: 0]Ux: update_local_matrix_data: 10.96 [ms]
[OGL LOG][Proc: 0]Ux: update_non_local_matrix_data: 0.082 [ms]
[OGL LOG][Proc: 0]Ux_matrix: call_update: 3.544 [ms]
[OGL LOG][Proc: 0]Ux_rhs: call_update: 2.838 [ms]
[OGL LOG][Preconditioner.H:121] Generate preconditioner BJ MaxBlockSize 1
[OGL LOG][Proc: 0]Ux: init_precond: 0.352 [ms]
[OGL LOG][StoppingCriterion.H:373] Creating stopping criterion with minIter 13 frequency 1
[OGL LOG][Proc: 0]Ux: generate_solver: 0.002 [ms]
[OGL LOG][Proc: 0]Ux: solve: 41.45 [ms]
[OGL LOG][Proc: 0]Ux: copy_x_back: 1.272 [ms]
[OGL LOG][lduLduBase.H:336] 
Statistics:
	Time per iteration: 3768 [mu s]
	Time per residual norm calculation: 267.000000 [mu s]
	Time per iteration and DOF: 0.597419 [ns]
	Retrieve results bandwidth 2.997000 [GByte/s]
[OGL LOG][Proc: 0]Ux: solve_multi_gpu: 50.292 [ms]
BJhipGKOBiCGStab:  Solving for Ux, Initial residual = 0.02452775222543804, Final residual = 0.001856829814635296, No Iterations 11
[OGL LOG][Proc: 0]: global_index_init: 0.584 [ms]
[OGL LOG][Proc: 0]Uy_local_coeffs: call_update: 0 [ms]
[OGL LOG][Proc: 0]Uy_non_local_coeffs: call_update: 0 [ms]
[OGL LOG][Proc: 0]Uy: update_local_matrix_data: 11.149 [ms]
[OGL LOG][Proc: 0]Uy: update_non_local_matrix_data: 0.077 [ms]
[OGL LOG][Proc: 0]Uy_matrix: call_update: 3.327 [ms]
[OGL LOG][Proc: 0]Uy_rhs: call_update: 2.8 [ms]
[OGL LOG][Preconditioner.H:121] Generate preconditioner BJ MaxBlockSize 1
[OGL LOG][Proc: 0]Uy: init_precond: 0.346 [ms]
[OGL LOG][StoppingCriterion.H:373] Creating stopping criterion with minIter 15 frequency 1
[OGL LOG][Proc: 0]Uy: generate_solver: 0.002 [ms]
[OGL LOG][Proc: 0]Uy: solve: 42.609 [ms]
[OGL LOG][Proc: 0]Uy: copy_x_back: 1.278 [ms]
[OGL LOG][lduLduBase.H:336] 
Statistics:
	Time per iteration: 3873 [mu s]
	Time per residual norm calculation: 256.000000 [mu s]
	Time per iteration and DOF: 0.614066 [ns]
	Retrieve results bandwidth 2.983000 [GByte/s]
[OGL LOG][Proc: 0]Uy: solve_multi_gpu: 51.19 [ms]
BJhipGKOBiCGStab:  Solving for Uy, Initial residual = 0.06732451713451997, Final residual = 0.006294938776879475, No Iterations 11
[OGL LOG][Proc: 0]: global_index_init: 0.728 [ms]
[OGL LOG][Proc: 0]Uz_local_coeffs: call_update: 0 [ms]
[OGL LOG][Proc: 0]Uz_non_local_coeffs: call_update: 0 [ms]
[OGL LOG][Proc: 0]Uz: update_local_matrix_data: 11.103 [ms]
[OGL LOG][Proc: 0]Uz: update_non_local_matrix_data: 0.073 [ms]
[OGL LOG][Proc: 0]Uz_matrix: call_update: 3.373 [ms]
[OGL LOG][Proc: 0]Uz_rhs: call_update: 2.937 [ms]
[OGL LOG][Preconditioner.H:121] Generate preconditioner BJ MaxBlockSize 1
[OGL LOG][Proc: 0]Uz: init_precond: 0.348 [ms]
[OGL LOG][StoppingCriterion.H:373] Creating stopping criterion with minIter 15 frequency 1
[OGL LOG][Proc: 0]Uz: generate_solver: 0.002 [ms]
[OGL LOG][Proc: 0]Uz: solve: 40.935 [ms]
[OGL LOG][Proc: 0]Uz: copy_x_back: 1.272 [ms]
[OGL LOG][lduLduBase.H:336] 
Statistics:
	Time per iteration: 3721 [mu s]
	Time per residual norm calculation: 275.000000 [mu s]
	Time per iteration and DOF: 0.589967 [ns]
	Retrieve results bandwidth 2.997000 [GByte/s]
[OGL LOG][Proc: 0]Uz: solve_multi_gpu: 49.69 [ms]
BJhipGKOBiCGStab:  Solving for Uz, Initial residual = 0.08445477399984705, Final residual = 0.007781622347639217, No Iterations 11
[INFO] MomentumPredictor: 224.375 [ms]
[INFO] MatrixAssemblyPI: 82.496 [ms]
[INFO] MatrixAssemblyPII: 40.03 [ms]
GAMG:  Solving for p, Initial residual = 0.08161902759219995, Final residual = 0.000656771513265484, No Iterations 7
[INFO] SolveP: 358.023 [ms]
time step continuity errors : sum local = 0.005552863202910226, global = 2.191889642349895e-05, cumulative = -0.0004666726814629629
[INFO] postSolveP: 21.687 [ms]
[OGL LOG][Proc: 0]: global_index_init: 0.051 [ms]
[OGL LOG][Proc: 0]nuTilda_local_coeffs: call_update: 0 [ms]
[OGL LOG][Proc: 0]nuTilda_non_local_coeffs: call_update: 0 [ms]
[OGL LOG][Proc: 0]nuTilda: update_local_matrix_data: 11.707 [ms]
[OGL LOG][Proc: 0]nuTilda: update_non_local_matrix_data: 0.07200000000000001 [ms]
[OGL LOG][Proc: 0]nuTilda_matrix: call_update: 3.849 [ms]
[OGL LOG][Proc: 0]nuTilda_rhs: call_update: 1.48 [ms]
[OGL LOG][Preconditioner.H:121] Generate preconditioner BJ MaxBlockSize 1
[OGL LOG][Proc: 0]nuTilda: init_precond: 0.349 [ms]
[OGL LOG][StoppingCriterion.H:373] Creating stopping criterion with minIter 2 frequency 1
[OGL LOG][Proc: 0]nuTilda: generate_solver: 0.002 [ms]
[OGL LOG][Proc: 0]nuTilda: solve: 26.352 [ms]
[OGL LOG][Proc: 0]nuTilda: copy_x_back: 1.289 [ms]
[OGL LOG][lduLduBase.H:336] 
Statistics:
	Time per iteration: 13176 [mu s]
	Time per residual norm calculation: 266.000000 [mu s]
	Time per iteration and DOF: 2.089062 [ns]
	Retrieve results bandwidth 2.958000 [GByte/s]
[OGL LOG][Proc: 0]nuTilda: solve_multi_gpu: 34.127 [ms]
BJhipGKOBiCGStab:  Solving for nuTilda, Initial residual = 0.04621148779808316, Final residual = 0.004079850778981279, No Iterations 2
[INFO] TimeStep: 1606.517 [ms]
ExecutionTime = 26.74 s  ClockTime = 27 s

Time = 8

velocityDampingConstraint velocityDamping damped 0 (0%) of cells, with max limit 300
[INFO] MatrixAssemblyU: 541.902 [ms]
[OGL LOG][Proc: 0]: global_index_init: 0.022 [ms]
[OGL LOG][Proc: 0]Ux_local_coeffs: call_update: 0 [ms]
[OGL LOG][Proc: 0]Ux_non_local_coeffs: call_update: 0 [ms]
[OGL LOG][Proc: 0]Ux: update_local_matrix_data: 11.286 [ms]
[OGL LOG][Proc: 0]Ux: update_non_local_matrix_data: 0.073 [ms]
[OGL LOG][Proc: 0]Ux_matrix: call_update: 3.653 [ms]
[OGL LOG][Proc: 0]Ux_rhs: call_update: 0.893 [ms]
[OGL LOG][Preconditioner.H:121] Generate preconditioner BJ MaxBlockSize 1
[OGL LOG][Proc: 0]Ux: init_precond: 0.338 [ms]
[OGL LOG][StoppingCriterion.H:373] Creating stopping criterion with minIter 13 frequency 1
[OGL LOG][Proc: 0]Ux: generate_solver: 0.002 [ms]
[OGL LOG][Proc: 0]Ux: solve: 40.808 [ms]
[OGL LOG][Proc: 0]Ux: copy_x_back: 1.264 [ms]
[OGL LOG][lduLduBase.H:336] 
Statistics:
	Time per iteration: 4080 [mu s]
	Time per residual norm calculation: 251.000000 [mu s]
	Time per iteration and DOF: 0.646886 [ns]
	Retrieve results bandwidth 3.016000 [GByte/s]
[OGL LOG][Proc: 0]Ux: solve_multi_gpu: 47.768 [ms]
BJhipGKOBiCGStab:  Solving for Ux, Initial residual = 0.02009509542295226, Final residual = 0.001954972016116081, No Iterations 10
[OGL LOG][Proc: 0]: global_index_init: 0.456 [ms]
[OGL LOG][Proc: 0]Uy_local_coeffs: call_update: 0 [ms]
[OGL LOG][Proc: 0]Uy_non_local_coeffs: call_update: 0 [ms]
[OGL LOG][Proc: 0]Uy: update_local_matrix_data: 11.868 [ms]
[OGL LOG][Proc: 0]Uy: update_non_local_matrix_data: 0.077 [ms]
[OGL LOG][Proc: 0]Uy_matrix: call_update: 3.398 [ms]
[OGL LOG][Proc: 0]Uy_rhs: call_update: 0.5690000000000001 [ms]
[OGL LOG][Preconditioner.H:121] Generate preconditioner BJ MaxBlockSize 1
[OGL LOG][Proc: 0]Uy: init_precond: 0.442 [ms]
[OGL LOG][StoppingCriterion.H:373] Creating stopping criterion with minIter 13 frequency 1
[OGL LOG][Proc: 0]Uy: generate_solver: 0.002 [ms]
[OGL LOG][Proc: 0]Uy: solve: 52.599 [ms]
[OGL LOG][Proc: 0]Uy: copy_x_back: 1.262 [ms]
[OGL LOG][lduLduBase.H:336] 
Statistics:
	Time per iteration: 4781 [mu s]
	Time per residual norm calculation: 310.000000 [mu s]
	Time per iteration and DOF: 0.758030 [ns]
	Retrieve results bandwidth 3.021000 [GByte/s]
[OGL LOG][Proc: 0]Uy: solve_multi_gpu: 59.102 [ms]
BJhipGKOBiCGStab:  Solving for Uy, Initial residual = 0.05310439893417122, Final residual = 0.004697358611660358, No Iterations 11
[OGL LOG][Proc: 0]: global_index_init: 0.928 [ms]
[OGL LOG][Proc: 0]Uz_local_coeffs: call_update: 0 [ms]
[OGL LOG][Proc: 0]Uz_non_local_coeffs: call_update: 0 [ms]
[OGL LOG][Proc: 0]Uz: update_local_matrix_data: 13.31 [ms]
[OGL LOG][Proc: 0]Uz: update_non_local_matrix_data: 0.073 [ms]
[OGL LOG][Proc: 0]Uz_matrix: call_update: 4.037 [ms]
[OGL LOG][Proc: 0]Uz_rhs: call_update: 2.708 [ms]
[OGL LOG][Preconditioner.H:121] Generate preconditioner BJ MaxBlockSize 1
[OGL LOG][Proc: 0]Uz: init_precond: 0.44 [ms]
[OGL LOG][StoppingCriterion.H:373] Creating stopping criterion with minIter 13 frequency 1
[OGL LOG][Proc: 0]Uz: generate_solver: 0.002 [ms]
[OGL LOG][Proc: 0]Uz: solve: 43.935 [ms]
[OGL LOG][Proc: 0]Uz: copy_x_back: 1.289 [ms]
[OGL LOG][lduLduBase.H:336] 
Statistics:
	Time per iteration: 3661 [mu s]
	Time per residual norm calculation: 269.000000 [mu s]
	Time per iteration and DOF: 0.580454 [ns]
	Retrieve results bandwidth 2.958000 [GByte/s]
[OGL LOG][Proc: 0]Uz: solve_multi_gpu: 53.235 [ms]
BJhipGKOBiCGStab:  Solving for Uz, Initial residual = 0.05527288747301409, Final residual = 0.004571388946334374, No Iterations 12
[INFO] MomentumPredictor: 236.963 [ms]
[INFO] MatrixAssemblyPI: 82.134 [ms]
[INFO] MatrixAssemblyPII: 40.212 [ms]
GAMG:  Solving for p, Initial residual = 0.0724065252158738, Final residual = 0.0006156779241352835, No Iterations 6
[INFO] SolveP: 307.825 [ms]
time step continuity errors : sum local = 0.005302502898336618, global = -3.224930099551682e-05, cumulative = -0.0004989219824584797
[INFO] postSolveP: 21.721 [ms]
[OGL LOG][Proc: 0]: global_index_init: 0.556 [ms]
[OGL LOG][Proc: 0]nuTilda_local_coeffs: call_update: 0 [ms]
[OGL LOG][Proc: 0]nuTilda_non_local_coeffs: call_update: 0 [ms]
[OGL LOG][Proc: 0]nuTilda: update_local_matrix_data: 12.235 [ms]
[OGL LOG][Proc: 0]nuTilda: update_non_local_matrix_data: 0.073 [ms]
[OGL LOG][Proc: 0]nuTilda_matrix: call_update: 4.166 [ms]
[OGL LOG][Proc: 0]nuTilda_rhs: call_update: 1.544 [ms]
[OGL LOG][Preconditioner.H:121] Generate preconditioner BJ MaxBlockSize 1
[OGL LOG][Proc: 0]nuTilda: init_precond: 0.374 [ms]
[OGL LOG][StoppingCriterion.H:373] Creating stopping criterion with minIter 2 frequency 1
[OGL LOG][Proc: 0]nuTilda: generate_solver: 0.003 [ms]
[OGL LOG][Proc: 0]nuTilda: solve: 27.959 [ms]
[OGL LOG][Proc: 0]nuTilda: copy_x_back: 1.281 [ms]
[OGL LOG][lduLduBase.H:336] 
Statistics:
	Time per iteration: 13979 [mu s]
	Time per residual norm calculation: 256.000000 [mu s]
	Time per iteration and DOF: 2.216378 [ns]
	Retrieve results bandwidth 2.976000 [GByte/s]
[OGL LOG][Proc: 0]nuTilda: solve_multi_gpu: 36.139 [ms]
BJhipGKOBiCGStab:  Solving for nuTilda, Initial residual = 0.05359210348248241, Final residual = 0.002680163432124459, No Iterations 2
[INFO] TimeStep: 1560.602 [ms]
ExecutionTime = 28.74 s  ClockTime = 29 s

Time = 9

velocityDampingConstraint velocityDamping damped 0 (0%) of cells, with max limit 300
[INFO] MatrixAssemblyU: 545.876 [ms]
[OGL LOG][Proc: 0]: global_index_init: 0.127 [ms]
[OGL LOG][Proc: 0]Ux_local_coeffs: call_update: 0 [ms]
[OGL LOG][Proc: 0]Ux_non_local_coeffs: call_update: 0 [ms]
[OGL LOG][Proc: 0]Ux: update_local_matrix_data: 10.836 [ms]
[OGL LOG][Proc: 0]Ux: update_non_local_matrix_data: 0.09 [ms]
[OGL LOG][Proc: 0]Ux_matrix: call_update: 3.808 [ms]
[OGL LOG][Proc: 0]Ux_rhs: call_update: 1.968 [ms]
[OGL LOG][Preconditioner.H:121] Generate preconditioner BJ MaxBlockSize 1
[OGL LOG][Proc: 0]Ux: init_precond: 0.396 [ms]
[OGL LOG][StoppingCriterion.H:373] Creating stopping criterion with minIter 12 frequency 1
[OGL LOG][Proc: 0]Ux: generate_solver: 0.002 [ms]
[OGL LOG][Proc: 0]Ux: solve: 51.938 [ms]
[OGL LOG][Proc: 0]Ux: copy_x_back: 1.285 [ms]
[OGL LOG][lduLduBase.H:336] 
Statistics:
	Time per iteration: 4328 [mu s]
	Time per residual norm calculation: 268.000000 [mu s]
	Time per iteration and DOF: 0.686207 [ns]
	Retrieve results bandwidth 2.967000 [GByte/s]
[OGL LOG][Proc: 0]Ux: solve_multi_gpu: 60.214 [ms]
BJhipGKOBiCGStab:  Solving for Ux, Initial residual = 0.01689004089962898, Final residual = 0.001248486624251828, No Iterations 12
[OGL LOG][Proc: 0]: global_index_init: 0.385 [ms]
[OGL LOG][Proc: 0]Uy_local_coeffs: call_update: 0 [ms]
[OGL LOG][Proc: 0]Uy_non_local_coeffs: call_update: 0 [ms]
[OGL LOG][Proc: 0]Uy: update_local_matrix_data: 11.097 [ms]
[OGL LOG][Proc: 0]Uy: update_non_local_matrix_data: 0.093 [ms]
[OGL LOG][Proc: 0]Uy_matrix: call_update: 5.763 [ms]
[OGL LOG][Proc: 0]Uy_rhs: call_update: 0.5650000000000001 [ms]
[OGL LOG][Preconditioner.H:121] Generate preconditioner BJ MaxBlockSize 1
[OGL LOG][Proc: 0]Uy: init_precond: 0.396 [ms]
[OGL LOG][StoppingCriterion.H:373] Creating stopping criterion with minIter 13 frequency 1
[OGL LOG][Proc: 0]Uy: generate_solver: 0.002 [ms]
[OGL LOG][Proc: 0]Uy: solve: 45.526 [ms]
[OGL LOG][Proc: 0]Uy: copy_x_back: 1.279 [ms]
[OGL LOG][lduLduBase.H:336] 
Statistics:
	Time per iteration: 4138 [mu s]
	Time per residual norm calculation: 267.000000 [mu s]
	Time per iteration and DOF: 0.656082 [ns]
	Retrieve results bandwidth 2.981000 [GByte/s]
[OGL LOG][Proc: 0]Uy: solve_multi_gpu: 54.363 [ms]
BJhipGKOBiCGStab:  Solving for Uy, Initial residual = 0.06404629948113341, Final residual = 0.005934503123391186, No Iterations 11
[OGL LOG][Proc: 0]: global_index_init: 0.479 [ms]
[OGL LOG][Proc: 0]Uz_local_coeffs: call_update: 0 [ms]
[OGL LOG][Proc: 0]Uz_non_local_coeffs: call_update: 0 [ms]
[OGL LOG][Proc: 0]Uz: update_local_matrix_data: 11.121 [ms]
[OGL LOG][Proc: 0]Uz: update_non_local_matrix_data: 0.07000000000000001 [ms]
[OGL LOG][Proc: 0]Uz_matrix: call_update: 4.024 [ms]
[OGL LOG][Proc: 0]Uz_rhs: call_update: 0.639 [ms]
[OGL LOG][Preconditioner.H:121] Generate preconditioner BJ MaxBlockSize 1
[OGL LOG][Proc: 0]Uz: init_precond: 0.347 [ms]
[OGL LOG][StoppingCriterion.H:373] Creating stopping criterion with minIter 14 frequency 1
[OGL LOG][Proc: 0]Uz: generate_solver: 0.002 [ms]
[OGL LOG][Proc: 0]Uz: solve: 42.205 [ms]
[OGL LOG][Proc: 0]Uz: copy_x_back: 1.278 [ms]
[OGL LOG][lduLduBase.H:336] 
Statistics:
	Time per iteration: 3836 [mu s]
	Time per residual norm calculation: 249.000000 [mu s]
	Time per iteration and DOF: 0.608200 [ns]
	Retrieve results bandwidth 2.983000 [GByte/s]
[OGL LOG][Proc: 0]Uz: solve_multi_gpu: 49.283 [ms]
BJhipGKOBiCGStab:  Solving for Uz, Initial residual = 0.04605752075463679, Final residual = 0.004426569181162197, No Iterations 11
[INFO] MomentumPredictor: 236.99 [ms]
[INFO] MatrixAssemblyPI: 82.977 [ms]
[INFO] MatrixAssemblyPII: 40.519 [ms]
GAMG:  Solving for p, Initial residual = 0.09099490514680021, Final residual = 0.0007135238635518725, No Iterations 5
[INFO] SolveP: 259.973 [ms]
time step continuity errors : sum local = 0.006235610464489928, global = -7.515103198921184e-05, cumulative = -0.0005740730144476916
[INFO] postSolveP: 21.006 [ms]
[OGL LOG][Proc: 0]: global_index_init: 0.036 [ms]
[OGL LOG][Proc: 0]nuTilda_local_coeffs: call_update: 0 [ms]
[OGL LOG][Proc: 0]nuTilda_non_local_coeffs: call_update: 0 [ms]
[OGL LOG][Proc: 0]nuTilda: update_local_matrix_data: 11.695 [ms]
[OGL LOG][Proc: 0]nuTilda: update_non_local_matrix_data: 0.075 [ms]
[OGL LOG][Proc: 0]nuTilda_matrix: call_update: 4.885 [ms]
[OGL LOG][Proc: 0]nuTilda_rhs: call_update: 3.428 [ms]
[OGL LOG][Preconditioner.H:121] Generate preconditioner BJ MaxBlockSize 1
[OGL LOG][Proc: 0]nuTilda: init_precond: 0.382 [ms]
[OGL LOG][StoppingCriterion.H:373] Creating stopping criterion with minIter 3 frequency 1
[OGL LOG][Proc: 0]nuTilda: generate_solver: 0.002 [ms]
[OGL LOG][Proc: 0]nuTilda: solve: 28.195 [ms]
[OGL LOG][Proc: 0]nuTilda: copy_x_back: 1.271 [ms]
[OGL LOG][lduLduBase.H:336] 
Statistics:
	Time per iteration: 14097 [mu s]
	Time per residual norm calculation: 319.000000 [mu s]
	Time per iteration and DOF: 2.235087 [ns]
	Retrieve results bandwidth 2.999000 [GByte/s]
[OGL LOG][Proc: 0]nuTilda: solve_multi_gpu: 38.974 [ms]
BJhipGKOBiCGStab:  Solving for nuTilda, Initial residual = 0.0410665361312525, Final residual = 0.003598017225656763, No Iterations 2
[INFO] TimeStep: 1523.258 [ms]
ExecutionTime = 30.69 s  ClockTime = 31 s

Time = 10

velocityDampingConstraint velocityDamping damped 0 (0%) of cells, with max limit 300
[INFO] MatrixAssemblyU: 554.5599999999999 [ms]
[OGL LOG][Proc: 0]: global_index_init: 0.118 [ms]
[OGL LOG][Proc: 0]Ux_local_coeffs: call_update: 0 [ms]
[OGL LOG][Proc: 0]Ux_non_local_coeffs: call_update: 0 [ms]
[OGL LOG][Proc: 0]Ux: update_local_matrix_data: 10.839 [ms]
[OGL LOG][Proc: 0]Ux: update_non_local_matrix_data: 0.07200000000000001 [ms]
[OGL LOG][Proc: 0]Ux_matrix: call_update: 3.566 [ms]
[OGL LOG][Proc: 0]Ux_rhs: call_update: 1.841 [ms]
[OGL LOG][Preconditioner.H:121] Generate preconditioner BJ MaxBlockSize 1
[OGL LOG][Proc: 0]Ux: init_precond: 0.349 [ms]
[OGL LOG][StoppingCriterion.H:373] Creating stopping criterion with minIter 14 frequency 1
[OGL LOG][Proc: 0]Ux: generate_solver: 0.002 [ms]
[OGL LOG][Proc: 0]Ux: solve: 48.495 [ms]
[OGL LOG][Proc: 0]Ux: copy_x_back: 1.256 [ms]
[OGL LOG][lduLduBase.H:336] 
Statistics:
	Time per iteration: 3463 [mu s]
	Time per residual norm calculation: 250.000000 [mu s]
	Time per iteration and DOF: 0.549061 [ns]
	Retrieve results bandwidth 3.035000 [GByte/s]
[OGL LOG][Proc: 0]Ux: solve_multi_gpu: 56.327 [ms]
BJhipGKOBiCGStab:  Solving for Ux, Initial residual = 0.01600785827545253, Final residual = 0.00141278514996622, No Iterations 14
[OGL LOG][Proc: 0]: global_index_init: 0.454 [ms]
[OGL LOG][Proc: 0]Uy_local_coeffs: call_update: 0 [ms]
[OGL LOG][Proc: 0]Uy_non_local_coeffs: call_update: 0 [ms]
[OGL LOG][Proc: 0]Uy: update_local_matrix_data: 11.04 [ms]
[OGL LOG][Proc: 0]Uy: update_non_local_matrix_data: 0.075 [ms]
[OGL LOG][Proc: 0]Uy_matrix: call_update: 3.631 [ms]
[OGL LOG][Proc: 0]Uy_rhs: call_update: 1.791 [ms]
[OGL LOG][Preconditioner.H:121] Generate preconditioner BJ MaxBlockSize 1
[OGL LOG][Proc: 0]Uy: init_precond: 0.361 [ms]
[OGL LOG][StoppingCriterion.H:373] Creating stopping criterion with minIter 13 frequency 1
[OGL LOG][Proc: 0]Uy: generate_solver: 0.002 [ms]
[OGL LOG][Proc: 0]Uy: solve: 37.279 [ms]
[OGL LOG][Proc: 0]Uy: copy_x_back: 1.273 [ms]
[OGL LOG][lduLduBase.H:336] 
Statistics:
	Time per iteration: 4142 [mu s]
	Time per residual norm calculation: 265.000000 [mu s]
	Time per iteration and DOF: 0.656716 [ns]
	Retrieve results bandwidth 2.995000 [GByte/s]
[OGL LOG][Proc: 0]Uy: solve_multi_gpu: 45.17 [ms]
BJhipGKOBiCGStab:  Solving for Uy, Initial residual = 0.1709201101885254, Final residual = 0.01698594557150361, No Iterations 9
[OGL LOG][Proc: 0]: global_index_init: 0.4 [ms]
[OGL LOG][Proc: 0]Uz_local_coeffs: call_update: 0 [ms]
[OGL LOG][Proc: 0]Uz_non_local_coeffs: call_update: 0 [ms]
[OGL LOG][Proc: 0]Uz: update_local_matrix_data: 11.043 [ms]
[OGL LOG][Proc: 0]Uz: update_non_local_matrix_data: 0.08400000000000001 [ms]
[OGL LOG][Proc: 0]Uz_matrix: call_update: 3.399 [ms]
[OGL LOG][Proc: 0]Uz_rhs: call_update: 3.329 [ms]
[OGL LOG][Preconditioner.H:121] Generate preconditioner BJ MaxBlockSize 1
[OGL LOG][Proc: 0]Uz: init_precond: 0.374 [ms]
[OGL LOG][StoppingCriterion.H:373] Creating stopping criterion with minIter 13 frequency 1
[OGL LOG][Proc: 0]Uz: generate_solver: 0.003 [ms]
[OGL LOG][Proc: 0]Uz: solve: 41.947 [ms]
[OGL LOG][Proc: 0]Uz: copy_x_back: 1.27 [ms]
[OGL LOG][lduLduBase.H:336] 
Statistics:
	Time per iteration: 3813 [mu s]
	Time per residual norm calculation: 267.000000 [mu s]
	Time per iteration and DOF: 0.604553 [ns]
	Retrieve results bandwidth 3.002000 [GByte/s]
[OGL LOG][Proc: 0]Uz: solve_multi_gpu: 51.138 [ms]
BJhipGKOBiCGStab:  Solving for Uz, Initial residual = 0.04791998402215889, Final residual = 0.004475834521949922, No Iterations 11
[INFO] MomentumPredictor: 225.838 [ms]
[INFO] MatrixAssemblyPI: 87.238 [ms]
[INFO] MatrixAssemblyPII: 40.114 [ms]
GAMG:  Solving for p, Initial residual = 0.0641852009749054, Final residual = 0.000635056988799807, No Iterations 5
[INFO] SolveP: 259.237 [ms]
time step continuity errors : sum local = 0.0055183079116342, global = -1.78676156113395e-05, cumulative = -0.0005919406300590311
[INFO] postSolveP: 21.265 [ms]
[OGL LOG][Proc: 0]: global_index_init: 0.434 [ms]
[OGL LOG][Proc: 0]nuTilda_local_coeffs: call_update: 0 [ms]
[OGL LOG][Proc: 0]nuTilda_non_local_coeffs: call_update: 0 [ms]
[OGL LOG][Proc: 0]nuTilda: update_local_matrix_data: 11.601 [ms]
[OGL LOG][Proc: 0]nuTilda: update_non_local_matrix_data: 0.073 [ms]
[OGL LOG][Proc: 0]nuTilda_matrix: call_update: 3.975 [ms]
[OGL LOG][Proc: 0]nuTilda_rhs: call_update: 0.998 [ms]
[OGL LOG][Preconditioner.H:121] Generate preconditioner BJ MaxBlockSize 1
[OGL LOG][Proc: 0]nuTilda: init_precond: 0.357 [ms]
[OGL LOG][StoppingCriterion.H:373] Creating stopping criterion with minIter 2 frequency 1
[OGL LOG][Proc: 0]nuTilda: generate_solver: 0.002 [ms]
[OGL LOG][Proc: 0]nuTilda: solve: 31.659 [ms]
[OGL LOG][Proc: 0]nuTilda: copy_x_back: 1.283 [ms]
[OGL LOG][lduLduBase.H:336] 
Statistics:
	Time per iteration: 15829 [mu s]
	Time per residual norm calculation: 272.000000 [mu s]
	Time per iteration and DOF: 2.509697 [ns]
	Retrieve results bandwidth 2.971000 [GByte/s]
[OGL LOG][Proc: 0]nuTilda: solve_multi_gpu: 39.074 [ms]
BJhipGKOBiCGStab:  Solving for nuTilda, Initial residual = 0.05914981518876113, Final residual = 0.005817440611054122, No Iterations 2
[INFO] TimeStep: 1522.528 [ms]
ExecutionTime = 32.66 s  ClockTime = 33 s

Time = 11

velocityDampingConstraint velocityDamping damped 0 (0%) of cells, with max limit 300
[INFO] MatrixAssemblyU: 547.55 [ms]
[OGL LOG][Proc: 0]: global_index_init: 0.115 [ms]
[OGL LOG][Proc: 0]Ux_local_coeffs: call_update: 0 [ms]
[OGL LOG][Proc: 0]Ux_non_local_coeffs: call_update: 0 [ms]
[OGL LOG][Proc: 0]Ux: update_local_matrix_data: 10.788 [ms]
[OGL LOG][Proc: 0]Ux: update_non_local_matrix_data: 0.07200000000000001 [ms]
[OGL LOG][Proc: 0]Ux_matrix: call_update: 3.738 [ms]
[OGL LOG][Proc: 0]Ux_rhs: call_update: 1.564 [ms]
[OGL LOG][Preconditioner.H:121] Generate preconditioner BJ MaxBlockSize 1
[OGL LOG][Proc: 0]Ux: init_precond: 0.379 [ms]
[OGL LOG][StoppingCriterion.H:373] Creating stopping criterion with minIter 17 frequency 1
[OGL LOG][Proc: 0]Ux: generate_solver: 0.002 [ms]
[OGL LOG][Proc: 0]Ux: solve: 39.258 [ms]
[OGL LOG][Proc: 0]Ux: copy_x_back: 1.287 [ms]
[OGL LOG][lduLduBase.H:336] 
Statistics:
	Time per iteration: 3925 [mu s]
	Time per residual norm calculation: 252.000000 [mu s]
	Time per iteration and DOF: 0.622311 [ns]
	Retrieve results bandwidth 2.962000 [GByte/s]
[OGL LOG][Proc: 0]Ux: solve_multi_gpu: 47.025 [ms]
BJhipGKOBiCGStab:  Solving for Ux, Initial residual = 0.01408585504705411, Final residual = 0.001253369581548968, No Iterations 10
[OGL LOG][Proc: 0]: global_index_init: 0.375 [ms]
[OGL LOG][Proc: 0]Uy_local_coeffs: call_update: 0 [ms]
[OGL LOG][Proc: 0]Uy_non_local_coeffs: call_update: 0 [ms]
[OGL LOG][Proc: 0]Uy: update_local_matrix_data: 10.776 [ms]
[OGL LOG][Proc: 0]Uy: update_non_local_matrix_data: 0.068 [ms]
[OGL LOG][Proc: 0]Uy_matrix: call_update: 3.638 [ms]
[OGL LOG][Proc: 0]Uy_rhs: call_update: 3.013 [ms]
[OGL LOG][Preconditioner.H:121] Generate preconditioner BJ MaxBlockSize 1
[OGL LOG][Proc: 0]Uy: init_precond: 0.479 [ms]
[OGL LOG][StoppingCriterion.H:373] Creating stopping criterion with minIter 10 frequency 1
[OGL LOG][Proc: 0]Uy: generate_solver: 0.002 [ms]
[OGL LOG][Proc: 0]Uy: solve: 43.904 [ms]
[OGL LOG][Proc: 0]Uy: copy_x_back: 1.28 [ms]
[OGL LOG][lduLduBase.H:336] 
Statistics:
	Time per iteration: 3991 [mu s]
	Time per residual norm calculation: 267.000000 [mu s]
	Time per iteration and DOF: 0.632775 [ns]
	Retrieve results bandwidth 2.978000 [GByte/s]
[OGL LOG][Proc: 0]Uy: solve_multi_gpu: 53.118 [ms]
BJhipGKOBiCGStab:  Solving for Uy, Initial residual = 0.0828219530151597, Final residual = 0.006682935909857974, No Iterations 11
[OGL LOG][Proc: 0]: global_index_init: 0.313 [ms]
[OGL LOG][Proc: 0]Uz_local_coeffs: call_update: 0 [ms]
[OGL LOG][Proc: 0]Uz_non_local_coeffs: call_update: 0 [ms]
[OGL LOG][Proc: 0]Uz: update_local_matrix_data: 14.476 [ms]
[OGL LOG][Proc: 0]Uz: update_non_local_matrix_data: 0.09 [ms]
[OGL LOG][Proc: 0]Uz_matrix: call_update: 3.285 [ms]
[OGL LOG][Proc: 0]Uz_rhs: call_update: 0.578 [ms]
[OGL LOG][Preconditioner.H:121] Generate preconditioner BJ MaxBlockSize 1
[OGL LOG][Proc: 0]Uz: init_precond: 0.353 [ms]
[OGL LOG][StoppingCriterion.H:373] Creating stopping criterion with minIter 13 frequency 1
[OGL LOG][Proc: 0]Uz: generate_solver: 0.002 [ms]
[OGL LOG][Proc: 0]Uz: solve: 41.499 [ms]
[OGL LOG][Proc: 0]Uz: copy_x_back: 1.288 [ms]
[OGL LOG][lduLduBase.H:336] 
Statistics:
	Time per iteration: 3772 [mu s]
	Time per residual norm calculation: 268.000000 [mu s]
	Time per iteration and DOF: 0.598053 [ns]
	Retrieve results bandwidth 2.960000 [GByte/s]
[OGL LOG][Proc: 0]Uz: solve_multi_gpu: 47.818 [ms]
BJhipGKOBiCGStab:  Solving for Uz, Initial residual = 0.04265696383783144, Final residual = 0.003888282716100116, No Iterations 11
[INFO] MomentumPredictor: 224.265 [ms]
[INFO] MatrixAssemblyPI: 82.691 [ms]
[INFO] MatrixAssemblyPII: 40.406 [ms]
GAMG:  Solving for p, Initial residual = 0.05849450788129552, Final residual = 0.0003749035737377375, No Iterations 6
[INFO] SolveP: 305.967 [ms]
time step continuity errors : sum local = 0.003212467118681803, global = 1.241782155437087e-05, cumulative = -0.0005795228085046602
[INFO] postSolveP: 21.385 [ms]
[OGL LOG][Proc: 0]: global_index_init: 0.676 [ms]
[OGL LOG][Proc: 0]nuTilda_local_coeffs: call_update: 0 [ms]
[OGL LOG][Proc: 0]nuTilda_non_local_coeffs: call_update: 0 [ms]
[OGL LOG][Proc: 0]nuTilda: update_local_matrix_data: 11.913 [ms]
[OGL LOG][Proc: 0]nuTilda: update_non_local_matrix_data: 0.074 [ms]
[OGL LOG][Proc: 0]nuTilda_matrix: call_update: 3.542 [ms]
[OGL LOG][Proc: 0]nuTilda_rhs: call_update: 2.599 [ms]
[OGL LOG][Preconditioner.H:121] Generate preconditioner BJ MaxBlockSize 1
[OGL LOG][Proc: 0]nuTilda: init_precond: 0.401 [ms]
[OGL LOG][StoppingCriterion.H:373] Creating stopping criterion with minIter 2 frequency 1
[OGL LOG][Proc: 0]nuTilda: generate_solver: 0.002 [ms]
[OGL LOG][Proc: 0]nuTilda: solve: 31.771 [ms]
[OGL LOG][Proc: 0]nuTilda: copy_x_back: 1.28 [ms]
[OGL LOG][lduLduBase.H:336] 
Statistics:
	Time per iteration: 15885 [mu s]
	Time per residual norm calculation: 252.000000 [mu s]
	Time per iteration and DOF: 2.518576 [ns]
	Retrieve results bandwidth 2.978000 [GByte/s]
[OGL LOG][Proc: 0]nuTilda: solve_multi_gpu: 40.399 [ms]
BJhipGKOBiCGStab:  Solving for nuTilda, Initial residual = 0.03714206899678539, Final residual = 0.00211401926051592, No Iterations 2
[INFO] TimeStep: 1558.012 [ms]
ExecutionTime = 34.66 s  ClockTime = 35 s

Time = 12

velocityDampingConstraint velocityDamping damped 0 (0%) of cells, with max limit 300
[INFO] MatrixAssemblyU: 542.936 [ms]
[OGL LOG][Proc: 0]: global_index_init: 0.066 [ms]
[OGL LOG][Proc: 0]Ux_local_coeffs: call_update: 0 [ms]
[OGL LOG][Proc: 0]Ux_non_local_coeffs: call_update: 0 [ms]
[OGL LOG][Proc: 0]Ux: update_local_matrix_data: 14.672 [ms]
[OGL LOG][Proc: 0]Ux: update_non_local_matrix_data: 0.094 [ms]
[OGL LOG][Proc: 0]Ux_matrix: call_update: 4.134 [ms]
[OGL LOG][Proc: 0]Ux_rhs: call_update: 0.435 [ms]
[OGL LOG][Preconditioner.H:121] Generate preconditioner BJ MaxBlockSize 1
[OGL LOG][Proc: 0]Ux: init_precond: 0.362 [ms]
[OGL LOG][StoppingCriterion.H:373] Creating stopping criterion with minIter 12 frequency 1
[OGL LOG][Proc: 0]Ux: generate_solver: 0.002 [ms]
[OGL LOG][Proc: 0]Ux: solve: 40.388 [ms]
[OGL LOG][Proc: 0]Ux: copy_x_back: 1.277 [ms]
[OGL LOG][lduLduBase.H:336] 
Statistics:
	Time per iteration: 4038 [mu s]
	Time per residual norm calculation: 251.000000 [mu s]
	Time per iteration and DOF: 0.640227 [ns]
	Retrieve results bandwidth 2.985000 [GByte/s]
[OGL LOG][Proc: 0]Ux: solve_multi_gpu: 47.414 [ms]
BJhipGKOBiCGStab:  Solving for Ux, Initial residual = 0.01293335060904047, Final residual = 0.001174135712435978, No Iterations 10
[OGL LOG][Proc: 0]: global_index_init: 0.21 [ms]
[OGL LOG][Proc: 0]Uy_local_coeffs: call_update: 0 [ms]
[OGL LOG][Proc: 0]Uy_non_local_coeffs: call_update: 0 [ms]
[OGL LOG][Proc: 0]Uy: update_local_matrix_data: 11.347 [ms]
[OGL LOG][Proc: 0]Uy: update_non_local_matrix_data: 0.07100000000000001 [ms]
[OGL LOG][Proc: 0]Uy_matrix: call_update: 3.613 [ms]
[OGL LOG][Proc: 0]Uy_rhs: call_update: 2.342 [ms]
[OGL LOG][Preconditioner.H:121] Generate preconditioner BJ MaxBlockSize 1
[OGL LOG][Proc: 0]Uy: init_precond: 0.385 [ms]
[OGL LOG][StoppingCriterion.H:373] Creating stopping criterion with minIter 13 frequency 1
[OGL LOG][Proc: 0]Uy: generate_solver: 0.002 [ms]
[OGL LOG][Proc: 0]Uy: solve: 60.225 [ms]
[OGL LOG][Proc: 0]Uy: copy_x_back: 1.25 [ms]
[OGL LOG][lduLduBase.H:336] 
Statistics:
	Time per iteration: 5475 [mu s]
	Time per residual norm calculation: 255.000000 [mu s]
	Time per iteration and DOF: 0.868064 [ns]
	Retrieve results bandwidth 3.050000 [GByte/s]
[OGL LOG][Proc: 0]Uy: solve_multi_gpu: 68.629 [ms]
BJhipGKOBiCGStab:  Solving for Uy, Initial residual = 0.05163829358509267, Final residual = 0.005117343740544063, No Iterations 11
[OGL LOG][Proc: 0]: global_index_init: 0.622 [ms]
[OGL LOG][Proc: 0]Uz_local_coeffs: call_update: 0 [ms]
[OGL LOG][Proc: 0]Uz_non_local_coeffs: call_update: 0 [ms]
[OGL LOG][Proc: 0]Uz: update_local_matrix_data: 11.163 [ms]
[OGL LOG][Proc: 0]Uz: update_non_local_matrix_data: 0.07200000000000001 [ms]
[OGL LOG][Proc: 0]Uz_matrix: call_update: 6.226 [ms]
[OGL LOG][Proc: 0]Uz_rhs: call_update: 2.458 [ms]
[OGL LOG][Preconditioner.H:121] Generate preconditioner BJ MaxBlockSize 1
[OGL LOG][Proc: 0]Uz: init_precond: 0.428 [ms]
[OGL LOG][StoppingCriterion.H:373] Creating stopping criterion with minIter 13 frequency 1
[OGL LOG][Proc: 0]Uz: generate_solver: 0.002 [ms]
[OGL LOG][Proc: 0]Uz: solve: 43.462 [ms]
[OGL LOG][Proc: 0]Uz: copy_x_back: 1.272 [ms]
[OGL LOG][lduLduBase.H:336] 
Statistics:
	Time per iteration: 3951 [mu s]
	Time per residual norm calculation: 257.000000 [mu s]
	Time per iteration and DOF: 0.626433 [ns]
	Retrieve results bandwidth 2.997000 [GByte/s]
[OGL LOG][Proc: 0]Uz: solve_multi_gpu: 54.664 [ms]
BJhipGKOBiCGStab:  Solving for Uz, Initial residual = 0.0396121961251587, Final residual = 0.003589111749231736, No Iterations 11
[INFO] MomentumPredictor: 248.149 [ms]
[INFO] MatrixAssemblyPI: 83.163 [ms]
[INFO] MatrixAssemblyPII: 40.122 [ms]
GAMG:  Solving for p, Initial residual = 0.0538785688273526, Final residual = 0.0003340589885547396, No Iterations 6
[INFO] SolveP: 306.709 [ms]
time step continuity errors : sum local = 0.002836271227645037, global = 4.136498284805543e-05, cumulative = -0.0005381578256566048
[INFO] postSolveP: 21.818 [ms]
[OGL LOG][Proc: 0]: global_index_init: 3.991 [ms]
[OGL LOG][Proc: 0]nuTilda_local_coeffs: call_update: 0 [ms]
[OGL LOG][Proc: 0]nuTilda_non_local_coeffs: call_update: 0 [ms]
[OGL LOG][Proc: 0]nuTilda: update_local_matrix_data: 11.622 [ms]
[OGL LOG][Proc: 0]nuTilda: update_non_local_matrix_data: 0.07100000000000001 [ms]
[OGL LOG][Proc: 0]nuTilda_matrix: call_update: 4.204 [ms]
[OGL LOG][Proc: 0]nuTilda_rhs: call_update: 1.705 [ms]
[OGL LOG][Preconditioner.H:121] Generate preconditioner BJ MaxBlockSize 1
[OGL LOG][Proc: 0]nuTilda: init_precond: 0.378 [ms]
[OGL LOG][StoppingCriterion.H:373] Creating stopping criterion with minIter 3 frequency 1
[OGL LOG][Proc: 0]nuTilda: generate_solver: 0.002 [ms]
[OGL LOG][Proc: 0]nuTilda: solve: 27.612 [ms]
[OGL LOG][Proc: 0]nuTilda: copy_x_back: 1.303 [ms]
[OGL LOG][lduLduBase.H:336] 
Statistics:
	Time per iteration: 13806 [mu s]
	Time per residual norm calculation: 274.000000 [mu s]
	Time per iteration and DOF: 2.188949 [ns]
	Retrieve results bandwidth 2.926000 [GByte/s]
[OGL LOG][Proc: 0]nuTilda: solve_multi_gpu: 36.037 [ms]
BJhipGKOBiCGStab:  Solving for nuTilda, Initial residual = 0.05950627774100252, Final residual = 0.004759786503057445, No Iterations 2
[INFO] TimeStep: 1573.675 [ms]
ExecutionTime = 36.65 s  ClockTime = 37 s

Time = 13

velocityDampingConstraint velocityDamping damped 0 (0%) of cells, with max limit 300
[INFO] MatrixAssemblyU: 539.821 [ms]
[OGL LOG][Proc: 0]: global_index_init: 0.07000000000000001 [ms]
[OGL LOG][Proc: 0]Ux_local_coeffs: call_update: 0 [ms]
[OGL LOG][Proc: 0]Ux_non_local_coeffs: call_update: 0 [ms]
[OGL LOG][Proc: 0]Ux: update_local_matrix_data: 11.463 [ms]
[OGL LOG][Proc: 0]Ux: update_non_local_matrix_data: 0.083 [ms]
[OGL LOG][Proc: 0]Ux_matrix: call_update: 6.52 [ms]
[OGL LOG][Proc: 0]Ux_rhs: call_update: 2.412 [ms]
[...]
[OGL LOG][Proc: 0]Uy_matrix: call_update: 3.482 [ms]
[OGL LOG][Proc: 0]Uy_rhs: call_update: 3.036 [ms]
[OGL LOG][Preconditioner.H:121] Generate preconditioner BJ MaxBlockSize 1
[OGL LOG][Proc: 0]Uy: init_precond: 0.345 [ms]
[OGL LOG][StoppingCriterion.H:373] Creating stopping criterion with minIter 12 frequency 1
[OGL LOG][Proc: 0]Uy: generate_solver: 0.002 [ms]
[OGL LOG][Proc: 0]Uy: solve: 42.971 [ms]
[OGL LOG][Proc: 0]Uy: copy_x_back: 1.27 [ms]
[OGL LOG][lduLduBase.H:336] 
Statistics:
	Time per iteration: 3906 [mu s]
	Time per residual norm calculation: 273.000000 [mu s]
	Time per iteration and DOF: 0.619299 [ns]
	Retrieve results bandwidth 3.002000 [GByte/s]
[OGL LOG][Proc: 0]Uy: solve_multi_gpu: 51.912 [ms]
BJhipGKOBiCGStab:  Solving for Uy, Initial residual = 0.06854043716018808, Final residual = 0.006762733277210183, No Iterations 11
[OGL LOG][Proc: 0]: global_index_init: 0.272 [ms]
[OGL LOG][Proc: 0]Uz_local_coeffs: call_update: 0 [ms]
[OGL LOG][Proc: 0]Uz_non_local_coeffs: call_update: 0 [ms]
[OGL LOG][Proc: 0]Uz: update_local_matrix_data: 11.273 [ms]
[OGL LOG][Proc: 0]Uz: update_non_local_matrix_data: 0.074 [ms]
[OGL LOG][Proc: 0]Uz_matrix: call_update: 3.647 [ms]
[OGL LOG][Proc: 0]Uz_rhs: call_update: 1.693 [ms]
[OGL LOG][Preconditioner.H:121] Generate preconditioner BJ MaxBlockSize 1
[OGL LOG][Proc: 0]Uz: init_precond: 0.377 [ms]
[OGL LOG][StoppingCriterion.H:373] Creating stopping criterion with minIter 12 frequency 1
[OGL LOG][Proc: 0]Uz: generate_solver: 0.002 [ms]
[OGL LOG][Proc: 0]Uz: solve: 41.004 [ms]
[OGL LOG][Proc: 0]Uz: copy_x_back: 1.272 [ms]
[OGL LOG][lduLduBase.H:336] 
Statistics:
	Time per iteration: 4100 [mu s]
	Time per residual norm calculation: 252.000000 [mu s]
	Time per iteration and DOF: 0.650057 [ns]
	Retrieve results bandwidth 2.997000 [GByte/s]
[OGL LOG][Proc: 0]Uz: solve_multi_gpu: 48.826 [ms]
BJhipGKOBiCGStab:  Solving for Uz, Initial residual = 0.07192902434996909, Final residual = 0.006885454165945864, No Iterations 10
[INFO] MomentumPredictor: 223.339 [ms]
[INFO] MatrixAssemblyPI: 82.36499999999999 [ms]
[INFO] MatrixAssemblyPII: 40.383 [ms]
GAMG:  Solving for p, Initial residual = 0.06078451778288176, Final residual = 0.0004116617079710941, No Iterations 5
[INFO] SolveP: 258.04 [ms]
time step continuity errors : sum local = 0.00526705352965593, global = 7.252286744075534e-06, cumulative = 0.0002462719011236027
[INFO] postSolveP: 21.154 [ms]
[OGL LOG][Proc: 0]: global_index_init: 0.45 [ms]
[OGL LOG][Proc: 0]nuTilda_local_coeffs: call_update: 0 [ms]
[OGL LOG][Proc: 0]nuTilda_non_local_coeffs: call_update: 0 [ms]
[OGL LOG][Proc: 0]nuTilda: update_local_matrix_data: 11.918 [ms]
[OGL LOG][Proc: 0]nuTilda: update_non_local_matrix_data: 0.07000000000000001 [ms]
[OGL LOG][Proc: 0]nuTilda_matrix: call_update: 3.809 [ms]
[OGL LOG][Proc: 0]nuTilda_rhs: call_update: 1.185 [ms]
[OGL LOG][Preconditioner.H:121] Generate preconditioner BJ MaxBlockSize 1
[OGL LOG][Proc: 0]nuTilda: init_precond: 0.344 [ms]
[OGL LOG][StoppingCriterion.H:373] Creating stopping criterion with minIter 2 frequency 1
[OGL LOG][Proc: 0]nuTilda: generate_solver: 0.002 [ms]
[OGL LOG][Proc: 0]nuTilda: solve: 27.226 [ms]
[OGL LOG][Proc: 0]nuTilda: copy_x_back: 1.275 [ms]
[OGL LOG][lduLduBase.H:336] 
Statistics:
	Time per iteration: 13613 [mu s]
	Time per residual norm calculation: 254.000000 [mu s]
	Time per iteration and DOF: 2.158349 [ns]
	Retrieve results bandwidth 2.990000 [GByte/s]
[OGL LOG][Proc: 0]nuTilda: solve_multi_gpu: 34.644 [ms]
BJhipGKOBiCGStab:  Solving for nuTilda, Initial residual = 0.01166534844541521, Final residual = 0.0009087314831647886, No Iterations 2
bounding nuTilda, min: -0.0001720511907325426 max: 0.006934663407366107 average: 0.0003487436068634095
[INFO] TimeStep: 1491.346 [ms]
ExecutionTime = 105.28 s  ClockTime = 106 s

Time = 48

velocityDampingConstraint velocityDamping damped 0 (0%) of cells, with max limit 300
[INFO] MatrixAssemblyU: 526.062 [ms]
[OGL LOG][Proc: 0]: global_index_init: 0.132 [ms]
[OGL LOG][Proc: 0]Ux_local_coeffs: call_update: 0 [ms]
[OGL LOG][Proc: 0]Ux_non_local_coeffs: call_update: 0 [ms]
[OGL LOG][Proc: 0]Ux: update_local_matrix_data: 10.804 [ms]
[OGL LOG][Proc: 0]Ux: update_non_local_matrix_data: 0.08600000000000001 [ms]
[OGL LOG][Proc: 0]Ux_matrix: call_update: 3.546 [ms]
[OGL LOG][Proc: 0]Ux_rhs: call_update: 2.486 [ms]
[OGL LOG][Preconditioner.H:121] Generate preconditioner BJ MaxBlockSize 1
[OGL LOG][Proc: 0]Ux: init_precond: 0.373 [ms]
[OGL LOG][StoppingCriterion.H:373] Creating stopping criterion with minIter 12 frequency 1
[OGL LOG][Proc: 0]Ux: generate_solver: 0.002 [ms]
[OGL LOG][Proc: 0]Ux: solve: 40.564 [ms]
[OGL LOG][Proc: 0]Ux: copy_x_back: 1.282 [ms]
[OGL LOG][lduLduBase.H:336] 
Statistics:
	Time per iteration: 4056 [mu s]
	Time per residual norm calculation: 375.000000 [mu s]
	Time per iteration and DOF: 0.643081 [ns]
	Retrieve results bandwidth 2.974000 [GByte/s]
[OGL LOG][Proc: 0]Ux: solve_multi_gpu: 49.059 [ms]
BJhipGKOBiCGStab:  Solving for Ux, Initial residual = 0.01240112738761445, Final residual = 0.001082887964559742, No Iterations 10
[OGL LOG][Proc: 0]: global_index_init: 1.157 [ms]
[OGL LOG][Proc: 0]Uy_local_coeffs: call_update: 0 [ms]
[OGL LOG][Proc: 0]Uy_non_local_coeffs: call_update: 0 [ms]
[OGL LOG][Proc: 0]Uy: update_local_matrix_data: 11.027 [ms]
[OGL LOG][Proc: 0]Uy: update_non_local_matrix_data: 0.079 [ms]
[OGL LOG][Proc: 0]Uy_matrix: call_update: 3.366 [ms]
[OGL LOG][Proc: 0]Uy_rhs: call_update: 1.828 [ms]
[OGL LOG][Preconditioner.H:121] Generate preconditioner BJ MaxBlockSize 1
[OGL LOG][Proc: 0]Uy: init_precond: 0.342 [ms]
[OGL LOG][StoppingCriterion.H:373] Creating stopping criterion with minIter 13 frequency 1
[OGL LOG][Proc: 0]Uy: generate_solver: 0.002 [ms]
[OGL LOG][Proc: 0]Uy: solve: 46.541 [ms]
[OGL LOG][Proc: 0]Uy: copy_x_back: 1.283 [ms]
[OGL LOG][lduLduBase.H:336] 
Statistics:
	Time per iteration: 3580 [mu s]
	Time per residual norm calculation: 269.000000 [mu s]
	Time per iteration and DOF: 0.567611 [ns]
	Retrieve results bandwidth 2.971000 [GByte/s]
[OGL LOG][Proc: 0]Uy: solve_multi_gpu: 54.171 [ms]
BJhipGKOBiCGStab:  Solving for Uy, Initial residual = 0.06818717897961699, Final residual = 0.00520359537090185, No Iterations 13
[OGL LOG][Proc: 0]: global_index_init: 0.197 [ms]
[OGL LOG][Proc: 0]Uz_local_coeffs: call_update: 0 [ms]
[OGL LOG][Proc: 0]Uz_non_local_coeffs: call_update: 0 [ms]
[OGL LOG][Proc: 0]Uz: update_local_matrix_data: 11.499 [ms]
[OGL LOG][Proc: 0]Uz: update_non_local_matrix_data: 0.078 [ms]
[OGL LOG][Proc: 0]Uz_matrix: call_update: 3.655 [ms]
[OGL LOG][Proc: 0]Uz_rhs: call_update: 1.815 [ms]
[OGL LOG][Preconditioner.H:121] Generate preconditioner BJ MaxBlockSize 1
[OGL LOG][Proc: 0]Uz: init_precond: 0.377 [ms]
[OGL LOG][StoppingCriterion.H:373] Creating stopping criterion with minIter 12 frequency 1
[OGL LOG][Proc: 0]Uz: generate_solver: 0.002 [ms]
[OGL LOG][Proc: 0]Uz: solve: 50.954 [ms]
[OGL LOG][Proc: 0]Uz: copy_x_back: 1.28 [ms]
[OGL LOG][lduLduBase.H:336] 
Statistics:
	Time per iteration: 3919 [mu s]
	Time per residual norm calculation: 272.000000 [mu s]
	Time per iteration and DOF: 0.621360 [ns]
	Retrieve results bandwidth 2.978000 [GByte/s]
[OGL LOG][Proc: 0]Uz: solve_multi_gpu: 58.896 [ms]
BJhipGKOBiCGStab:  Solving for Uz, Initial residual = 0.07063762658657001, Final residual = 0.004601655437620562, No Iterations 13
[INFO] MomentumPredictor: 236.318 [ms]
[INFO] MatrixAssemblyPI: 82.883 [ms]
[INFO] MatrixAssemblyPII: 40.148 [ms]
GAMG:  Solving for p, Initial residual = 0.05978990718633952, Final residual = 0.0004538308170656048, No Iterations 5
[INFO] SolveP: 255.008 [ms]
time step continuity errors : sum local = 0.005623677646596566, global = 2.988200468539158e-05, cumulative = 0.0002761539058089942
[INFO] postSolveP: 21.279 [ms]
[OGL LOG][Proc: 0]: global_index_init: 0.5620000000000001 [ms]
[OGL LOG][Proc: 0]nuTilda_local_coeffs: call_update: 0 [ms]
[OGL LOG][Proc: 0]nuTilda_non_local_coeffs: call_update: 0 [ms]
[OGL LOG][Proc: 0]nuTilda: update_local_matrix_data: 11.802 [ms]
[OGL LOG][Proc: 0]nuTilda: update_non_local_matrix_data: 0.07200000000000001 [ms]
[OGL LOG][Proc: 0]nuTilda_matrix: call_update: 4.659 [ms]
[OGL LOG][Proc: 0]nuTilda_rhs: call_update: 1.519 [ms]
[OGL LOG][Preconditioner.H:121] Generate preconditioner BJ MaxBlockSize 1
[OGL LOG][Proc: 0]nuTilda: init_precond: 0.379 [ms]
[OGL LOG][StoppingCriterion.H:373] Creating stopping criterion with minIter 3 frequency 1
[OGL LOG][Proc: 0]nuTilda: generate_solver: 0.002 [ms]
[OGL LOG][Proc: 0]nuTilda: solve: 27.519 [ms]
[OGL LOG][Proc: 0]nuTilda: copy_x_back: 1.282 [ms]
[OGL LOG][lduLduBase.H:336] 
Statistics:
	Time per iteration: 13759 [mu s]
	Time per residual norm calculation: 255.000000 [mu s]
	Time per iteration and DOF: 2.181497 [ns]
	Retrieve results bandwidth 2.974000 [GByte/s]
[OGL LOG][Proc: 0]nuTilda: solve_multi_gpu: 36.179 [ms]
BJhipGKOBiCGStab:  Solving for nuTilda, Initial residual = 0.01574760570247098, Final residual = 0.000961679286192994, No Iterations 2
bounding nuTilda, min: -8.219478387964409e-05 max: 0.006986485277013833 average: 0.0003578620297288498
[INFO] TimeStep: 1500.854 [ms]
ExecutionTime = 107.19 s  ClockTime = 108 s

Time = 49

velocityDampingConstraint velocityDamping damped 0 (0%) of cells, with max limit 300
[INFO] MatrixAssemblyU: 525.046 [ms]
[OGL LOG][Proc: 0]: global_index_init: 0.127 [ms]
[OGL LOG][Proc: 0]Ux_local_coeffs: call_update: 0 [ms]
[OGL LOG][Proc: 0]Ux_non_local_coeffs: call_update: 0 [ms]
[OGL LOG][Proc: 0]Ux: update_local_matrix_data: 10.908 [ms]
[OGL LOG][Proc: 0]Ux: update_non_local_matrix_data: 0.067 [ms]
[OGL LOG][Proc: 0]Ux_matrix: call_update: 7.194 [ms]
[OGL LOG][Proc: 0]Ux_rhs: call_update: 0.465 [ms]
[OGL LOG][Preconditioner.H:121] Generate preconditioner BJ MaxBlockSize 1
[OGL LOG][Proc: 0]Ux: init_precond: 0.391 [ms]
[OGL LOG][StoppingCriterion.H:373] Creating stopping criterion with minIter 12 frequency 1
[OGL LOG][Proc: 0]Ux: generate_solver: 0.002 [ms]
[OGL LOG][Proc: 0]Ux: solve: 42.951 [ms]
[OGL LOG][Proc: 0]Ux: copy_x_back: 1.255 [ms]
[OGL LOG][lduLduBase.H:336] 
Statistics:
	Time per iteration: 3904 [mu s]
	Time per residual norm calculation: 310.000000 [mu s]
	Time per iteration and DOF: 0.618981 [ns]
	Retrieve results bandwidth 3.038000 [GByte/s]
[OGL LOG][Proc: 0]Ux: solve_multi_gpu: 53.059 [ms]
BJhipGKOBiCGStab:  Solving for Ux, Initial residual = 0.01221473680681738, Final residual = 0.001003161295082408, No Iterations 11
[OGL LOG][Proc: 0]: global_index_init: 2.826 [ms]
[OGL LOG][Proc: 0]Uy_local_coeffs: call_update: 0 [ms]
[OGL LOG][Proc: 0]Uy_non_local_coeffs: call_update: 0 [ms]
[OGL LOG][Proc: 0]Uy: update_local_matrix_data: 11.235 [ms]
[OGL LOG][Proc: 0]Uy: update_non_local_matrix_data: 0.06900000000000001 [ms]
[OGL LOG][Proc: 0]Uy_matrix: call_update: 5.976 [ms]
[OGL LOG][Proc: 0]Uy_rhs: call_update: 2.423 [ms]
[OGL LOG][Preconditioner.H:121] Generate preconditioner BJ MaxBlockSize 1
[OGL LOG][Proc: 0]Uy: init_precond: 0.335 [ms]
[OGL LOG][StoppingCriterion.H:373] Creating stopping criterion with minIter 15 frequency 1
[OGL LOG][Proc: 0]Uy: generate_solver: 0.002 [ms]
[OGL LOG][Proc: 0]Uy: solve: 41.768 [ms]
[OGL LOG][Proc: 0]Uy: copy_x_back: 1.297 [ms]
[OGL LOG][lduLduBase.H:336] 
Statistics:
	Time per iteration: 3797 [mu s]
	Time per residual norm calculation: 309.000000 [mu s]
	Time per iteration and DOF: 0.602017 [ns]
	Retrieve results bandwidth 2.939000 [GByte/s]
[OGL LOG][Proc: 0]Uy: solve_multi_gpu: 52.626 [ms]
BJhipGKOBiCGStab:  Solving for Uy, Initial residual = 0.06848450340982445, Final residual = 0.005912838359973523, No Iterations 11
[OGL LOG][Proc: 0]: global_index_init: 0.219 [ms]
[OGL LOG][Proc: 0]Uz_local_coeffs: call_update: 0 [ms]
[OGL LOG][Proc: 0]Uz_non_local_coeffs: call_update: 0 [ms]
[OGL LOG][Proc: 0]Uz: update_local_matrix_data: 11.245 [ms]
[OGL LOG][Proc: 0]Uz: update_non_local_matrix_data: 0.079 [ms]
[OGL LOG][Proc: 0]Uz_matrix: call_update: 6.025 [ms]
[OGL LOG][Proc: 0]Uz_rhs: call_update: 0.734 [ms]
[OGL LOG][Preconditioner.H:121] Generate preconditioner BJ MaxBlockSize 1
[OGL LOG][Proc: 0]Uz: init_precond: 0.347 [ms]
[OGL LOG][StoppingCriterion.H:373] Creating stopping criterion with minIter 15 frequency 1
[OGL LOG][Proc: 0]Uz: generate_solver: 0.002 [ms]
[OGL LOG][Proc: 0]Uz: solve: 46.86 [ms]
[OGL LOG][Proc: 0]Uz: copy_x_back: 1.279 [ms]
[OGL LOG][lduLduBase.H:336] 
Statistics:
	Time per iteration: 3347 [mu s]
	Time per residual norm calculation: 265.000000 [mu s]
	Time per iteration and DOF: 0.530669 [ns]
	Retrieve results bandwidth 2.981000 [GByte/s]
[OGL LOG][Proc: 0]Uz: solve_multi_gpu: 56.047 [ms]
BJhipGKOBiCGStab:  Solving for Uz, Initial residual = 0.0703742583218563, Final residual = 0.003812863849702004, No Iterations 14
[INFO] MomentumPredictor: 237.312 [ms]
[INFO] MatrixAssemblyPI: 82.749 [ms]
[INFO] MatrixAssemblyPII: 40.14 [ms]
GAMG:  Solving for p, Initial residual = 0.06282047111875112, Final residual = 0.0004592731994462045, No Iterations 5
[INFO] SolveP: 256.486 [ms]
time step continuity errors : sum local = 0.005541045029125407, global = 2.346971587844886e-05, cumulative = 0.0002996236216874431
[INFO] postSolveP: 21.451 [ms]
[OGL LOG][Proc: 0]: global_index_init: 0.63 [ms]
[OGL LOG][Proc: 0]nuTilda_local_coeffs: call_update: 0 [ms]
[OGL LOG][Proc: 0]nuTilda_non_local_coeffs: call_update: 0 [ms]
[OGL LOG][Proc: 0]nuTilda: update_local_matrix_data: 11.714 [ms]
[OGL LOG][Proc: 0]nuTilda: update_non_local_matrix_data: 0.07100000000000001 [ms]
[OGL LOG][Proc: 0]nuTilda_matrix: call_update: 5.81 [ms]
[OGL LOG][Proc: 0]nuTilda_rhs: call_update: 1.316 [ms]
[OGL LOG][Preconditioner.H:121] Generate preconditioner BJ MaxBlockSize 1
[OGL LOG][Proc: 0]nuTilda: init_precond: 0.346 [ms]
[OGL LOG][StoppingCriterion.H:373] Creating stopping criterion with minIter 3 frequency 1
[OGL LOG][Proc: 0]nuTilda: generate_solver: 0.002 [ms]
[OGL LOG][Proc: 0]nuTilda: solve: 28.794 [ms]
[OGL LOG][Proc: 0]nuTilda: copy_x_back: 1.269 [ms]
[OGL LOG][lduLduBase.H:336] 
Statistics:
	Time per iteration: 14397 [mu s]
	Time per residual norm calculation: 254.000000 [mu s]
	Time per iteration and DOF: 2.282653 [ns]
	Retrieve results bandwidth 3.004000 [GByte/s]
[OGL LOG][Proc: 0]nuTilda: solve_multi_gpu: 38.348 [ms]
BJhipGKOBiCGStab:  Solving for nuTilda, Initial residual = 0.01101684070149177, Final residual = 0.0007566880892743605, No Iterations 2
bounding nuTilda, min: -4.824759966339364e-05 max: 0.007036798098565964 average: 0.0003680486533518936
[INFO] TimeStep: 1506.966 [ms]
ExecutionTime = 109.11 s  ClockTime = 110 s

Time = 50

velocityDampingConstraint velocityDamping damped 0 (0%) of cells, with max limit 300
[INFO] MatrixAssemblyU: 528.225 [ms]
[OGL LOG][Proc: 0]: global_index_init: 0.035 [ms]
[OGL LOG][Proc: 0]Ux_local_coeffs: call_update: 0 [ms]
[OGL LOG][Proc: 0]Ux_non_local_coeffs: call_update: 0 [ms]
[OGL LOG][Proc: 0]Ux: update_local_matrix_data: 11.033 [ms]
[OGL LOG][Proc: 0]Ux: update_non_local_matrix_data: 0.079 [ms]
[OGL LOG][Proc: 0]Ux_matrix: call_update: 3.961 [ms]
[OGL LOG][Proc: 0]Ux_rhs: call_update: 2.61 [ms]
[OGL LOG][Preconditioner.H:121] Generate preconditioner BJ MaxBlockSize 1
[OGL LOG][Proc: 0]Ux: init_precond: 0.428 [ms]
[OGL LOG][StoppingCriterion.H:373] Creating stopping criterion with minIter 13 frequency 1
[OGL LOG][Proc: 0]Ux: generate_solver: 0.002 [ms]
[OGL LOG][Proc: 0]Ux: solve: 40.815 [ms]
[OGL LOG][Proc: 0]Ux: copy_x_back: 1.279 [ms]
[OGL LOG][lduLduBase.H:336] 
Statistics:
	Time per iteration: 4081 [mu s]
	Time per residual norm calculation: 261.000000 [mu s]
	Time per iteration and DOF: 0.647045 [ns]
	Retrieve results bandwidth 2.981000 [GByte/s]
[OGL LOG][Proc: 0]Ux: solve_multi_gpu: 49.921 [ms]
BJhipGKOBiCGStab:  Solving for Ux, Initial residual = 0.01243442168812405, Final residual = 0.001110986383691899, No Iterations 10
[OGL LOG][Proc: 0]: global_index_init: 0.298 [ms]
[OGL LOG][Proc: 0]Uy_local_coeffs: call_update: 0 [ms]
[OGL LOG][Proc: 0]Uy_non_local_coeffs: call_update: 0 [ms]
[OGL LOG][Proc: 0]Uy: update_local_matrix_data: 11.033 [ms]
[OGL LOG][Proc: 0]Uy: update_non_local_matrix_data: 0.068 [ms]
[OGL LOG][Proc: 0]Uy_matrix: call_update: 3.579 [ms]
[OGL LOG][Proc: 0]Uy_rhs: call_update: 2.709 [ms]
[OGL LOG][Preconditioner.H:121] Generate preconditioner BJ MaxBlockSize 1
[OGL LOG][Proc: 0]Uy: init_precond: 0.374 [ms]
[OGL LOG][StoppingCriterion.H:373] Creating stopping criterion with minIter 13 frequency 1
[OGL LOG][Proc: 0]Uy: generate_solver: 0.002 [ms]
[OGL LOG][Proc: 0]Uy: solve: 42.166 [ms]
[OGL LOG][Proc: 0]Uy: copy_x_back: 1.276 [ms]
[OGL LOG][lduLduBase.H:336] 
Statistics:
	Time per iteration: 3833 [mu s]
	Time per residual norm calculation: 266.000000 [mu s]
	Time per iteration and DOF: 0.607724 [ns]
	Retrieve results bandwidth 2.988000 [GByte/s]
[OGL LOG][Proc: 0]Uy: solve_multi_gpu: 51.017 [ms]
BJhipGKOBiCGStab:  Solving for Uy, Initial residual = 0.08146827836327558, Final residual = 0.008097585484294258, No Iterations 11
[OGL LOG][Proc: 0]: global_index_init: 0.622 [ms]
[OGL LOG][Proc: 0]Uz_local_coeffs: call_update: 0 [ms]
[OGL LOG][Proc: 0]Uz_non_local_coeffs: call_update: 0 [ms]
[OGL LOG][Proc: 0]Uz: update_local_matrix_data: 11.211 [ms]
[OGL LOG][Proc: 0]Uz: update_non_local_matrix_data: 0.078 [ms]
[OGL LOG][Proc: 0]Uz_matrix: call_update: 3.523 [ms]
[OGL LOG][Proc: 0]Uz_rhs: call_update: 2.976 [ms]
[OGL LOG][Preconditioner.H:121] Generate preconditioner BJ MaxBlockSize 1
[OGL LOG][Proc: 0]Uz: init_precond: 0.352 [ms]
[OGL LOG][StoppingCriterion.H:373] Creating stopping criterion with minIter 16 frequency 1
[OGL LOG][Proc: 0]Uz: generate_solver: 0.002 [ms]
[OGL LOG][Proc: 0]Uz: solve: 42.004 [ms]
[OGL LOG][Proc: 0]Uz: copy_x_back: 1.269 [ms]
[OGL LOG][lduLduBase.H:336] 
Statistics:
	Time per iteration: 3500 [mu s]
	Time per residual norm calculation: 269.000000 [mu s]
	Time per iteration and DOF: 0.554927 [ns]
	Retrieve results bandwidth 3.004000 [GByte/s]
[OGL LOG][Proc: 0]Uz: solve_multi_gpu: 50.905 [ms]
BJhipGKOBiCGStab:  Solving for Uz, Initial residual = 0.07193748154424531, Final residual = 0.00597702056764178, No Iterations 12
[INFO] MomentumPredictor: 225.024 [ms]
[INFO] MatrixAssemblyPI: 82.858 [ms]
[INFO] MatrixAssemblyPII: 40.099 [ms]
GAMG:  Solving for p, Initial residual = 0.05878456210593229, Final residual = 0.0004514294407969935, No Iterations 5
[INFO] SolveP: 258.895 [ms]
time step continuity errors : sum local = 0.005303824292327856, global = 1.736411201317222e-05, cumulative = 0.0003169877337006153
[INFO] postSolveP: 21.304 [ms]
[OGL LOG][Proc: 0]: global_index_init: 0.62 [ms]
[OGL LOG][Proc: 0]nuTilda_local_coeffs: call_update: 0 [ms]
[OGL LOG][Proc: 0]nuTilda_non_local_coeffs: call_update: 0 [ms]
[OGL LOG][Proc: 0]nuTilda: update_local_matrix_data: 11.472 [ms]
[OGL LOG][Proc: 0]nuTilda: update_non_local_matrix_data: 0.076 [ms]
[OGL LOG][Proc: 0]nuTilda_matrix: call_update: 3.58 [ms]
[OGL LOG][Proc: 0]nuTilda_rhs: call_update: 2.98 [ms]
[OGL LOG][Preconditioner.H:121] Generate preconditioner BJ MaxBlockSize 1
[OGL LOG][Proc: 0]nuTilda: init_precond: 0.407 [ms]
[OGL LOG][StoppingCriterion.H:373] Creating stopping criterion with minIter 3 frequency 1
[OGL LOG][Proc: 0]nuTilda: generate_solver: 0.003 [ms]
[OGL LOG][Proc: 0]nuTilda: solve: 25.731 [ms]
[OGL LOG][Proc: 0]nuTilda: copy_x_back: 1.273 [ms]
[OGL LOG][lduLduBase.H:336] 
Statistics:
	Time per iteration: 12865 [mu s]
	Time per residual norm calculation: 269.000000 [mu s]
	Time per iteration and DOF: 2.039753 [ns]
	Retrieve results bandwidth 2.995000 [GByte/s]
[OGL LOG][Proc: 0]nuTilda: solve_multi_gpu: 35.004 [ms]
BJhipGKOBiCGStab:  Solving for nuTilda, Initial residual = 0.01532178304654372, Final residual = 0.001469352140779113, No Iterations 2
bounding nuTilda, min: -0.0002113948755039432 max: 0.007068781405146094 average: 0.0003756825984912158
[INFO] TimeStep: 1495.469 [ms]
ExecutionTime = 111.02 s  ClockTime = 112 s

End

Finalising parallel run
