/*---------------------------------------------------------------------------*\
| =========                 |                                                 |
| \\      /  F ield         | OpenFOAM: The Open Source CFD Toolbox           |
|  \\    /   O peration     | Version:  v2106                                 |
|   \\  /    A nd           | Website:  www.openfoam.com                      |
|    \\/     M anipulation  |                                                 |
\*---------------------------------------------------------------------------*/
Build  : f815a12bba-20210902 OPENFOAM=2106
Arch   : "LSB;label=32;scalar=64"
Exec   : icoFoam -parallel -case /home/greole/data/code/exasim_project/micro_benchmarks/LidDrivenCavity3D/workspace/f89bdbd4c43eb3db8b672ad49d029d9c/case
Date   : Jun 26 2023
Time   : 16:36:27
Host   : nla-gpu2.ianm.kit.edu
PID    : 74668
I/O    : uncollated
Case   : /home/greole/data/code/exasim_project/micro_benchmarks/LidDrivenCavity3D/workspace/f89bdbd4c43eb3db8b672ad49d029d9c/case
nProcs : 8
Hosts  :
(
    (nla-gpu2.ianm.kit.edu 8)
)
Pstream initialized with:
    floatTransfer      : 0
    nProcsSimpleSum    : 0
    commsType          : nonBlocking
    polling iterations : 0
trapFpe: Floating point exception trapping enabled (FOAM_SIGFPE).
fileModificationChecking : Monitoring run-time modified files using timeStampMaster (fileModificationSkew 5, maxFileModificationPolls 20)
allowSystemOperations : Allowing user-supplied system call operations

// * * * * * * * * * * * * * * * * * * * * * * * * * * * * * * * * * * * * * //
Create time

--> FOAM Warning : 
    From void* Foam::dlLibraryTable::openLibrary(const Foam::fileName&, bool)
    in file db/dynamicLibrary/dlLibraryTable/dlLibraryTable.C at line 188
    Could not load "libpetscFoam.so"
libpetscFoam.so: cannot open shared object file: No such file or directory
--> FOAM Warning : 
    From virtual void Foam::Time::readDict()
    in file db/Time/TimeIO.C at line 411
    Reading "/home/greole/data/code/exasim_project/micro_benchmarks/LidDrivenCavity3D/workspace/f89bdbd4c43eb3db8b672ad49d029d9c/case/system/controlDict" at line 17 to 47
    Disabled binary format compression (inefficient/ineffective)
Create mesh for time = 0


PISO: Operating solver in PISO mode

Reading transportProperties

Reading field p

Reading field U

Reading/calculating face flux field phi


Starting time loop

Time = 0.0005

Courant Number mean: 8.62851e-18 max: 8.67362e-15
[INFO] MatrixAssemblyU: 31.787 [ms]
DILUPBiCGStab:  Solving for Ux, Initial residual = 1, Final residual = 0.0025649, No Iterations 5
DILUPBiCGStab:  Solving for Uy:  solution singularity
DILUPBiCGStab:  Solving for Uz:  solution singularity
[INFO] MomentumPredictor: 104.94 [ms]
[INFO] MatrixAssemblyPI: 30.543 [ms]
[INFO] AdjustPhi: 2.587 [ms]
[INFO] ConstrainPressure: 0.005 [ms]
[INFO] MatrixAssemblyPII: 12.505 [ms]
nonePCG:  Solving for p, Initial residual = 1, Final residual = 9.98826e-05, No Iterations 792
[INFO] SolveP: 1336.03 [ms]
time step continuity errors : sum local = 2.14463e-08, global = -2.0899e-21, cumulative = -2.0899e-21
[INFO] ContinuityError: 5.585 [ms]
[INFO] CorrectBoundary: 0.538 [ms]
[INFO] PISOStep: 1403.29 [ms]
[INFO] MatrixAssemblyPI: 29.976 [ms]
[INFO] AdjustPhi: 2.48 [ms]
[INFO] ConstrainPressure: 0.002 [ms]
[INFO] MatrixAssemblyPII: 8.32 [ms]
nonePCG:  Solving for p, Initial residual = 0.731052, Final residual = 9.84585e-05, No Iterations 781
[INFO] SolveP: 1328.79 [ms]
time step continuity errors : sum local = 2.79169e-08, global = -4.57941e-22, cumulative = -2.54785e-21
[INFO] ContinuityError: 3.944 [ms]
[INFO] CorrectBoundary: 1.545 [ms]
[INFO] PISOStep: 1390.34 [ms]
[INFO] TimeStep: 2936.41 [ms]
ExecutionTime = 3.22 s  ClockTime = 3 s

Time = 0.001

Courant Number mean: 0.0215341 max: 0.377097
[INFO] MatrixAssemblyU: 22.094 [ms]
DILUPBiCGStab:  Solving for Ux, Initial residual = 0.150351, Final residual = 0.00113128, No Iterations 5
DILUPBiCGStab:  Solving for Uy, Initial residual = 0.368162, Final residual = 0.00224404, No Iterations 5
DILUPBiCGStab:  Solving for Uz, Initial residual = 0.988636, Final residual = 0.00605697, No Iterations 5
[INFO] MomentumPredictor: 180.617 [ms]
[INFO] MatrixAssemblyPI: 26.944 [ms]
[INFO] AdjustPhi: 3.28 [ms]
[INFO] ConstrainPressure: 0.002 [ms]
[INFO] MatrixAssemblyPII: 6.954 [ms]
nonePCG:  Solving for p, Initial residual = 0.690613, Final residual = 9.96119e-05, No Iterations 775
[INFO] SolveP: 1310.86 [ms]
time step continuity errors : sum local = 3.16059e-08, global = -4.18618e-22, cumulative = -2.96646e-21
[INFO] ContinuityError: 4.044 [ms]
[INFO] CorrectBoundary: 0.613 [ms]
[INFO] PISOStep: 1370.51 [ms]
[INFO] MatrixAssemblyPI: 22.328 [ms]
[INFO] AdjustPhi: 4.121 [ms]
[INFO] ConstrainPressure: 0.001 [ms]
[INFO] MatrixAssemblyPII: 9.874 [ms]
nonePCG:  Solving for p, Initial residual = 0.619789, Final residual = 9.38652e-05, No Iterations 774
[INFO] SolveP: 1301.68 [ms]
time step continuity errors : sum local = 3.03763e-08, global = -5.63422e-21, cumulative = -8.60069e-21
[INFO] ContinuityError: 4.052 [ms]
[INFO] CorrectBoundary: 1.054 [ms]
[INFO] PISOStep: 1353.49 [ms]
[INFO] TimeStep: 2933.3 [ms]
ExecutionTime = 6.14 s  ClockTime = 6 s

Time = 0.0015

Courant Number mean: 0.0324926 max: 0.441243
[INFO] MatrixAssemblyU: 18.901 [ms]
DILUPBiCGStab:  Solving for Ux, Initial residual = 0.0531066, Final residual = 0.000326426, No Iterations 5
DILUPBiCGStab:  Solving for Uy, Initial residual = 0.124681, Final residual = 0.000558081, No Iterations 5
DILUPBiCGStab:  Solving for Uz, Initial residual = 0.575611, Final residual = 0.00312185, No Iterations 5
[INFO] MomentumPredictor: 180.712 [ms]
[INFO] MatrixAssemblyPI: 26.61 [ms]
[INFO] AdjustPhi: 2.213 [ms]
[INFO] ConstrainPressure: 0.002 [ms]
[INFO] MatrixAssemblyPII: 10.087 [ms]
nonePCG:  Solving for p, Initial residual = 0.632554, Final residual = 9.49399e-05, No Iterations 768
[INFO] SolveP: 1300.51 [ms]
time step continuity errors : sum local = 2.17491e-08, global = 1.1183e-21, cumulative = -7.48239e-21
[INFO] ContinuityError: 3.565 [ms]
[INFO] CorrectBoundary: 1.9 [ms]
[INFO] PISOStep: 1356.56 [ms]
[INFO] MatrixAssemblyPI: 23.574 [ms]
[INFO] AdjustPhi: 2.512 [ms]
[INFO] ConstrainPressure: 0.002 [ms]
[INFO] MatrixAssemblyPII: 8.153 [ms]
nonePCG:  Solving for p, Initial residual = 0.579979, Final residual = 9.65592e-05, No Iterations 766
[INFO] SolveP: 1265.02 [ms]
time step continuity errors : sum local = 2.15334e-08, global = -4.21367e-21, cumulative = -1.16961e-20
[INFO] ContinuityError: 2.541 [ms]
[INFO] CorrectBoundary: 0.639 [ms]
[INFO] PISOStep: 1316.55 [ms]
[INFO] TimeStep: 2877.68 [ms]
ExecutionTime = 8.99 s  ClockTime = 9 s

Time = 0.002

Courant Number mean: 0.0388942 max: 0.452946
[INFO] MatrixAssemblyU: 25.41 [ms]
DILUPBiCGStab:  Solving for Ux, Initial residual = 0.0318966, Final residual = 0.000167513, No Iterations 5
DILUPBiCGStab:  Solving for Uy, Initial residual = 0.0813679, Final residual = 0.000384959, No Iterations 5
DILUPBiCGStab:  Solving for Uz, Initial residual = 0.273902, Final residual = 0.00118151, No Iterations 5
[INFO] MomentumPredictor: 174.107 [ms]
[INFO] MatrixAssemblyPI: 26.514 [ms]
[INFO] AdjustPhi: 1.503 [ms]
[INFO] ConstrainPressure: 0.002 [ms]
[INFO] MatrixAssemblyPII: 8.241 [ms]
nonePCG:  Solving for p, Initial residual = 0.412426, Final residual = 9.98038e-05, No Iterations 761
[INFO] SolveP: 1280.13 [ms]
time step continuity errors : sum local = 1.9517e-08, global = 2.40957e-21, cumulative = -9.28649e-21
[INFO] ContinuityError: 5.002 [ms]
[INFO] CorrectBoundary: 3.831 [ms]
[INFO] PISOStep: 1335.93 [ms]
[INFO] MatrixAssemblyPI: 24.805 [ms]
[INFO] AdjustPhi: 2.219 [ms]
[INFO] ConstrainPressure: 0.001 [ms]
[INFO] MatrixAssemblyPII: 6.399 [ms]
nonePCG:  Solving for p, Initial residual = 0.350546, Final residual = 9.97449e-05, No Iterations 757
[INFO] SolveP: 1248.58 [ms]
time step continuity errors : sum local = 1.97004e-08, global = -5.88396e-21, cumulative = -1.51704e-20
[INFO] ContinuityError: 3.283 [ms]
[INFO] CorrectBoundary: 0.098 [ms]
[INFO] PISOStep: 1301.15 [ms]
[INFO] TimeStep: 2840.53 [ms]
ExecutionTime = 11.81 s  ClockTime = 12 s

Time = 0.0025

Courant Number mean: 0.043947 max: 0.459623
[INFO] MatrixAssemblyU: 23.545 [ms]
DILUPBiCGStab:  Solving for Ux, Initial residual = 0.0235042, Final residual = 0.000104802, No Iterations 5
DILUPBiCGStab:  Solving for Uy, Initial residual = 0.0515221, Final residual = 0.00023504, No Iterations 5
DILUPBiCGStab:  Solving for Uz, Initial residual = 0.0979986, Final residual = 0.000478143, No Iterations 5
[INFO] MomentumPredictor: 178.059 [ms]
[INFO] MatrixAssemblyPI: 25.992 [ms]
[INFO] AdjustPhi: 1.537 [ms]
[INFO] ConstrainPressure: 0.002 [ms]
[INFO] MatrixAssemblyPII: 9.743 [ms]
nonePCG:  Solving for p, Initial residual = 0.314826, Final residual = 9.77301e-05, No Iterations 728
[INFO] SolveP: 1239.95 [ms]
time step continuity errors : sum local = 1.57829e-08, global = 4.87448e-21, cumulative = -1.0296e-20
[INFO] ContinuityError: 4.385 [ms]
[INFO] CorrectBoundary: 2.488 [ms]
[INFO] PISOStep: 1293.52 [ms]
[INFO] MatrixAssemblyPI: 23.016 [ms]
[INFO] AdjustPhi: 3.394 [ms]
[INFO] ConstrainPressure: 0.002 [ms]
[INFO] MatrixAssemblyPII: 7.939 [ms]
nonePCG:  Solving for p, Initial residual = 0.269326, Final residual = 9.96288e-05, No Iterations 724
[INFO] SolveP: 1201.06 [ms]
time step continuity errors : sum local = 1.59706e-08, global = 4.96948e-21, cumulative = -5.32647e-21
[INFO] ContinuityError: 2.304 [ms]
[INFO] CorrectBoundary: 0.513 [ms]
[INFO] PISOStep: 1253.06 [ms]
[INFO] TimeStep: 2752.14 [ms]
ExecutionTime = 14.55 s  ClockTime = 15 s

Time = 0.003

Courant Number mean: 0.047987 max: 0.463866
[INFO] MatrixAssemblyU: 23.604 [ms]
DILUPBiCGStab:  Solving for Ux, Initial residual = 0.0178878, Final residual = 7.93736e-05, No Iterations 5
DILUPBiCGStab:  Solving for Uy, Initial residual = 0.0401304, Final residual = 0.000115985, No Iterations 5
DILUPBiCGStab:  Solving for Uz, Initial residual = 0.0851911, Final residual = 0.000399696, No Iterations 5
[INFO] MomentumPredictor: 174.847 [ms]
[INFO] MatrixAssemblyPI: 23.974 [ms]
[INFO] AdjustPhi: 2.823 [ms]
[INFO] ConstrainPressure: 0.002 [ms]
[INFO] MatrixAssemblyPII: 8.886 [ms]
nonePCG:  Solving for p, Initial residual = 0.19689, Final residual = 9.84664e-05, No Iterations 347
[INFO] SolveP: 587.069 [ms]
time step continuity errors : sum local = 1.73325e-08, global = -3.20543e-21, cumulative = -8.5319e-21
[INFO] ContinuityError: 3.134 [ms]
[INFO] CorrectBoundary: 0.079 [ms]
[INFO] PISOStep: 636.86 [ms]
[INFO] MatrixAssemblyPI: 25.308 [ms]
[INFO] AdjustPhi: 1.569 [ms]
[INFO] ConstrainPressure: 0.002 [ms]
[INFO] MatrixAssemblyPII: 8.026 [ms]
nonePCG:  Solving for p, Initial residual = 0.163669, Final residual = 9.92958e-05, No Iterations 344
[INFO] SolveP: 578.377 [ms]
time step continuity errors : sum local = 1.60902e-08, global = 3.4724e-21, cumulative = -5.0595e-21
[INFO] ContinuityError: 2.797 [ms]
[INFO] CorrectBoundary: 0.216 [ms]
[INFO] PISOStep: 627.094 [ms]
[INFO] TimeStep: 1465.43 [ms]
ExecutionTime = 16 s  ClockTime = 16 s

Time = 0.0035

Courant Number mean: 0.051396 max: 0.466746
[INFO] MatrixAssemblyU: 23.28 [ms]
DILUPBiCGStab:  Solving for Ux, Initial residual = 0.0146272, Final residual = 5.75161e-05, No Iterations 5
DILUPBiCGStab:  Solving for Uy, Initial residual = 0.0317932, Final residual = 9.94329e-05, No Iterations 5
DILUPBiCGStab:  Solving for Uz, Initial residual = 0.0575224, Final residual = 0.000249864, No Iterations 5
[INFO] MomentumPredictor: 182.984 [ms]
[INFO] MatrixAssemblyPI: 21.854 [ms]
[INFO] AdjustPhi: 6.021 [ms]
[INFO] ConstrainPressure: 0.002 [ms]
[INFO] MatrixAssemblyPII: 7.03 [ms]
nonePCG:  Solving for p, Initial residual = 0.139698, Final residual = 9.87843e-05, No Iterations 334
[INFO] SolveP: 568.913 [ms]
time step continuity errors : sum local = 1.48515e-08, global = -4.26432e-21, cumulative = -9.32382e-21
[INFO] ContinuityError: 2.208 [ms]
[INFO] CorrectBoundary: 0.2 [ms]
[INFO] PISOStep: 620.473 [ms]
[INFO] MatrixAssemblyPI: 24.25 [ms]
[INFO] AdjustPhi: 1.443 [ms]
[INFO] ConstrainPressure: 0.002 [ms]
[INFO] MatrixAssemblyPII: 6.027 [ms]
nonePCG:  Solving for p, Initial residual = 0.116789, Final residual = 9.77418e-05, No Iterations 329
[INFO] SolveP: 554.892 [ms]
time step continuity errors : sum local = 1.44766e-08, global = -1.87305e-21, cumulative = -1.11969e-20
[INFO] ContinuityError: 3.453 [ms]
[INFO] CorrectBoundary: 0.299 [ms]
[INFO] PISOStep: 602.155 [ms]
[INFO] TimeStep: 1433.35 [ms]
ExecutionTime = 17.42 s  ClockTime = 18 s

Time = 0.004

Courant Number mean: 0.0543347 max: 0.468955
[INFO] MatrixAssemblyU: 21.723 [ms]
DILUPBiCGStab:  Solving for Ux, Initial residual = 0.0122808, Final residual = 4.51269e-05, No Iterations 5
DILUPBiCGStab:  Solving for Uy, Initial residual = 0.0265199, Final residual = 6.3875e-05, No Iterations 5
DILUPBiCGStab:  Solving for Uz, Initial residual = 0.0511913, Final residual = 0.000170451, No Iterations 5
[INFO] MomentumPredictor: 177.178 [ms]
[INFO] MatrixAssemblyPI: 25.544 [ms]
[INFO] AdjustPhi: 1.502 [ms]
[INFO] ConstrainPressure: 0.002 [ms]
[INFO] MatrixAssemblyPII: 8.156 [ms]
nonePCG:  Solving for p, Initial residual = 0.0909217, Final residual = 9.93065e-05, No Iterations 345
[INFO] SolveP: 579.361 [ms]
time step continuity errors : sum local = 1.68165e-08, global = -3.84928e-21, cumulative = -1.50462e-20
[INFO] ContinuityError: 2.101 [ms]
[INFO] CorrectBoundary: 0.301 [ms]
[INFO] PISOStep: 628.985 [ms]
[INFO] MatrixAssemblyPI: 23.814 [ms]
[INFO] AdjustPhi: 1.186 [ms]
[INFO] ConstrainPressure: 0.002 [ms]
[INFO] MatrixAssemblyPII: 7.947 [ms]
nonePCG:  Solving for p, Initial residual = 0.0751903, Final residual = 9.68397e-05, No Iterations 321
[INFO] SolveP: 540.399 [ms]
time step continuity errors : sum local = 1.48929e-08, global = -2.3158e-21, cumulative = -1.7362e-20
[INFO] ContinuityError: 3.203 [ms]
[INFO] CorrectBoundary: 0.087 [ms]
[INFO] PISOStep: 586.412 [ms]
[INFO] TimeStep: 1419.6 [ms]
ExecutionTime = 18.84 s  ClockTime = 19 s

Time = 0.0045

Courant Number mean: 0.0569118 max: 0.470657
[INFO] MatrixAssemblyU: 22.848 [ms]
DILUPBiCGStab:  Solving for Ux, Initial residual = 0.0105233, Final residual = 3.57193e-05, No Iterations 5
DILUPBiCGStab:  Solving for Uy, Initial residual = 0.0227016, Final residual = 5.88618e-05, No Iterations 5
DILUPBiCGStab:  Solving for Uz, Initial residual = 0.0430332, Final residual = 0.000132895, No Iterations 5
[INFO] MomentumPredictor: 176.324 [ms]
[INFO] MatrixAssemblyPI: 25.664 [ms]
[INFO] AdjustPhi: 0.712 [ms]
[INFO] ConstrainPressure: 0.001 [ms]
[INFO] MatrixAssemblyPII: 8.302 [ms]
nonePCG:  Solving for p, Initial residual = 0.0669871, Final residual = 9.76549e-05, No Iterations 335
[INFO] SolveP: 563.384 [ms]
time step continuity errors : sum local = 1.5188e-08, global = -7.41981e-22, cumulative = -1.81039e-20
[INFO] ContinuityError: 3.093 [ms]
[INFO] CorrectBoundary: 0.834 [ms]
[INFO] PISOStep: 613.575 [ms]
[INFO] MatrixAssemblyPI: 23.408 [ms]
[INFO] AdjustPhi: 1.409 [ms]
[INFO] ConstrainPressure: 0.002 [ms]
[INFO] MatrixAssemblyPII: 7.612 [ms]
nonePCG:  Solving for p, Initial residual = 0.0558661, Final residual = 9.82254e-05, No Iterations 323
[INFO] SolveP: 536.699 [ms]
time step continuity errors : sum local = 1.42282e-08, global = 2.83828e-21, cumulative = -1.52657e-20
[INFO] ContinuityError: 2.257 [ms]
[INFO] CorrectBoundary: 0.231 [ms]
[INFO] PISOStep: 583.09 [ms]
[INFO] TimeStep: 1399.74 [ms]
ExecutionTime = 20.23 s  ClockTime = 20 s

Time = 0.005

Courant Number mean: 0.0592067 max: 0.472051
[INFO] MatrixAssemblyU: 22.85 [ms]
DILUPBiCGStab:  Solving for Ux, Initial residual = 0.00922205, Final residual = 3.00791e-05, No Iterations 5
DILUPBiCGStab:  Solving for Uy, Initial residual = 0.0197292, Final residual = 4.41646e-05, No Iterations 5
DILUPBiCGStab:  Solving for Uz, Initial residual = 0.038906, Final residual = 0.000108035, No Iterations 5
[INFO] MomentumPredictor: 175.508 [ms]
[INFO] MatrixAssemblyPI: 25.369 [ms]
[INFO] AdjustPhi: 0.889 [ms]
[INFO] ConstrainPressure: 0.002 [ms]
[INFO] MatrixAssemblyPII: 8.57 [ms]
nonePCG:  Solving for p, Initial residual = 0.0447316, Final residual = 9.98384e-05, No Iterations 697
[INFO] SolveP: 1160.63 [ms]
time step continuity errors : sum local = 1.41236e-08, global = 5.03209e-21, cumulative = -1.02336e-20
[INFO] ContinuityError: 4.827 [ms]
[INFO] CorrectBoundary: 0.959 [ms]
[INFO] PISOStep: 1210.57 [ms]
[INFO] MatrixAssemblyPI: 23.596 [ms]
[INFO] AdjustPhi: 2.636 [ms]
[INFO] ConstrainPressure: 0.002 [ms]
[INFO] MatrixAssemblyPII: 7.637 [ms]
nonePCG:  Solving for p, Initial residual = 0.0377472, Final residual = 9.88532e-05, No Iterations 694
[INFO] SolveP: 1158.19 [ms]
time step continuity errors : sum local = 1.39906e-08, global = 1.39444e-21, cumulative = -8.83914e-21
[INFO] ContinuityError: 3.499 [ms]
[INFO] CorrectBoundary: 0.127 [ms]
[INFO] PISOStep: 1206.9 [ms]
[INFO] TimeStep: 2618.86 [ms]
ExecutionTime = 22.83 s  ClockTime = 23 s

Time = 0.0055

Courant Number mean: 0.0612663 max: 0.473199
[INFO] MatrixAssemblyU: 22.424 [ms]
DILUPBiCGStab:  Solving for Ux, Initial residual = 0.00813993, Final residual = 2.52042e-05, No Iterations 5
DILUPBiCGStab:  Solving for Uy, Initial residual = 0.0174515, Final residual = 3.9344e-05, No Iterations 5
DILUPBiCGStab:  Solving for Uz, Initial residual = 0.0339067, Final residual = 8.2666e-05, No Iterations 5
[INFO] MomentumPredictor: 179.765 [ms]
[INFO] MatrixAssemblyPI: 24.14 [ms]
[INFO] AdjustPhi: 2.781 [ms]
[INFO] ConstrainPressure: 0.001 [ms]
[INFO] MatrixAssemblyPII: 7.678 [ms]
nonePCG:  Solving for p, Initial residual = 0.0351616, Final residual = 9.87676e-05, No Iterations 313
[INFO] SolveP: 529.538 [ms]
time step continuity errors : sum local = 1.43049e-08, global = -2.02788e-21, cumulative = -1.0867e-20
[INFO] ContinuityError: 3.569 [ms]
[INFO] CorrectBoundary: 0.293 [ms]
[INFO] PISOStep: 577.96 [ms]
[INFO] MatrixAssemblyPI: 22.026 [ms]
[INFO] AdjustPhi: 4.358 [ms]
[INFO] ConstrainPressure: 0.002 [ms]
[INFO] MatrixAssemblyPII: 8.198 [ms]
nonePCG:  Solving for p, Initial residual = 0.0298694, Final residual = 9.68839e-05, No Iterations 311
[INFO] SolveP: 520.456 [ms]
time step continuity errors : sum local = 1.38427e-08, global = 1.33989e-21, cumulative = -9.52713e-21
[INFO] ContinuityError: 2.166 [ms]
[INFO] CorrectBoundary: 0.24 [ms]
[INFO] PISOStep: 566.748 [ms]
[INFO] TimeStep: 1350.21 [ms]
ExecutionTime = 24.17 s  ClockTime = 24 s

Time = 0.006

Courant Number mean: 0.0631375 max: 0.474175
[INFO] MatrixAssemblyU: 23.246 [ms]
DILUPBiCGStab:  Solving for Ux, Initial residual = 0.00728456, Final residual = 2.20608e-05, No Iterations 5
DILUPBiCGStab:  Solving for Uy, Initial residual = 0.015581, Final residual = 3.38733e-05, No Iterations 5
DILUPBiCGStab:  Solving for Uz, Initial residual = 0.0305958, Final residual = 6.98502e-05, No Iterations 5
[INFO] MomentumPredictor: 175.345 [ms]
[INFO] MatrixAssemblyPI: 25.702 [ms]
[INFO] AdjustPhi: 1.443 [ms]
[INFO] ConstrainPressure: 0.001 [ms]
[INFO] MatrixAssemblyPII: 7.993 [ms]
nonePCG:  Solving for p, Initial residual = 0.0250689, Final residual = 9.51891e-05, No Iterations 311
[INFO] SolveP: 520.953 [ms]
time step continuity errors : sum local = 1.44846e-08, global = 9.69352e-21, cumulative = 1.66393e-22
[INFO] ContinuityError: 3.897 [ms]
[INFO] CorrectBoundary: 0.078 [ms]
[INFO] PISOStep: 571.188 [ms]
[INFO] MatrixAssemblyPI: 24.024 [ms]
[INFO] AdjustPhi: 1.289 [ms]
[INFO] ConstrainPressure: 0.002 [ms]
[INFO] MatrixAssemblyPII: 7.863 [ms]
nonePCG:  Solving for p, Initial residual = 0.021876, Final residual = 9.77436e-05, No Iterations 305
[INFO] SolveP: 509.922 [ms]
time step continuity errors : sum local = 1.39898e-08, global = 8.49411e-22, cumulative = 1.0158e-21
[INFO] ContinuityError: 3.709 [ms]
[INFO] CorrectBoundary: 0.306 [ms]
[INFO] PISOStep: 558.333 [ms]
[INFO] TimeStep: 1332.55 [ms]
ExecutionTime = 25.49 s  ClockTime = 26 s

Time = 0.0065

Courant Number mean: 0.0648411 max: 0.475011
[INFO] MatrixAssemblyU: 23.65 [ms]
DILUPBiCGStab:  Solving for Ux, Initial residual = 0.00655461, Final residual = 1.91827e-05, No Iterations 5
DILUPBiCGStab:  Solving for Uy, Initial residual = 0.0140643, Final residual = 3.05476e-05, No Iterations 5
DILUPBiCGStab:  Solving for Uz, Initial residual = 0.0277705, Final residual = 6.50722e-05, No Iterations 5
[INFO] MomentumPredictor: 174.97 [ms]
[INFO] MatrixAssemblyPI: 24.133 [ms]
[INFO] AdjustPhi: 1.964 [ms]
[INFO] ConstrainPressure: 0.002 [ms]
[INFO] MatrixAssemblyPII: 8.152 [ms]
nonePCG:  Solving for p, Initial residual = 0.0207442, Final residual = 9.52421e-05, No Iterations 312
[INFO] SolveP: 527.98 [ms]
time step continuity errors : sum local = 1.42862e-08, global = -2.97682e-22, cumulative = 7.18122e-22
[INFO] ContinuityError: 3.423 [ms]
[INFO] CorrectBoundary: 0.459 [ms]
[INFO] PISOStep: 575.412 [ms]
[INFO] MatrixAssemblyPI: 22.082 [ms]
[INFO] AdjustPhi: 4.86 [ms]
[INFO] ConstrainPressure: 0.002 [ms]
[INFO] MatrixAssemblyPII: 7.923 [ms]
nonePCG:  Solving for p, Initial residual = 0.0182539, Final residual = 9.97461e-05, No Iterations 307
[INFO] SolveP: 516.607 [ms]
time step continuity errors : sum local = 1.42867e-08, global = 2.51191e-21, cumulative = 3.23004e-21
[INFO] ContinuityError: 3.841 [ms]
[INFO] CorrectBoundary: 0.837 [ms]
[INFO] PISOStep: 566.125 [ms]
[INFO] TimeStep: 1343.37 [ms]
ExecutionTime = 26.83 s  ClockTime = 27 s

Time = 0.007

Courant Number mean: 0.0664084 max: 0.47574
[INFO] MatrixAssemblyU: 19.845 [ms]
DILUPBiCGStab:  Solving for Ux, Initial residual = 0.00596104, Final residual = 1.71634e-05, No Iterations 5
DILUPBiCGStab:  Solving for Uy, Initial residual = 0.0127587, Final residual = 2.74969e-05, No Iterations 5
DILUPBiCGStab:  Solving for Uz, Initial residual = 0.0257049, Final residual = 5.95742e-05, No Iterations 5
[INFO] MomentumPredictor: 178.317 [ms]
[INFO] MatrixAssemblyPI: 25.154 [ms]
[INFO] AdjustPhi: 1.076 [ms]
[INFO] ConstrainPressure: 0.002 [ms]
[INFO] MatrixAssemblyPII: 8.366 [ms]
nonePCG:  Solving for p, Initial residual = 0.0162457, Final residual = 9.88921e-05, No Iterations 317
[INFO] SolveP: 530.513 [ms]
time step continuity errors : sum local = 1.5676e-08, global = 4.67254e-22, cumulative = 3.69729e-21
[INFO] ContinuityError: 2.998 [ms]
[INFO] CorrectBoundary: 0.643 [ms]
[INFO] PISOStep: 578.841 [ms]
[INFO] MatrixAssemblyPI: 24.099 [ms]
[INFO] AdjustPhi: 0.714 [ms]
[INFO] ConstrainPressure: 0.002 [ms]
[INFO] MatrixAssemblyPII: 8.173 [ms]
nonePCG:  Solving for p, Initial residual = 0.0147002, Final residual = 9.83756e-05, No Iterations 307
[INFO] SolveP: 510.976 [ms]
time step continuity errors : sum local = 1.42942e-08, global = -2.71093e-21, cumulative = 9.86361e-22
[INFO] ContinuityError: 2.11 [ms]
[INFO] CorrectBoundary: 0.219 [ms]
[INFO] PISOStep: 556.706 [ms]
[INFO] TimeStep: 1336.81 [ms]
ExecutionTime = 28.16 s  ClockTime = 28 s

Time = 0.0075

Courant Number mean: 0.067855 max: 0.476379
[INFO] MatrixAssemblyU: 23.472 [ms]
DILUPBiCGStab:  Solving for Ux, Initial residual = 0.00543299, Final residual = 1.52915e-05, No Iterations 5
DILUPBiCGStab:  Solving for Uy, Initial residual = 0.0116832, Final residual = 2.51015e-05, No Iterations 5
DILUPBiCGStab:  Solving for Uz, Initial residual = 0.0236606, Final residual = 6.06867e-05, No Iterations 5
[INFO] MomentumPredictor: 178.188 [ms]
[INFO] MatrixAssemblyPI: 25.633 [ms]
[INFO] AdjustPhi: 1.229 [ms]
[INFO] ConstrainPressure: 0.002 [ms]
[INFO] MatrixAssemblyPII: 8.235 [ms]
nonePCG:  Solving for p, Initial residual = 0.0141962, Final residual = 9.93457e-05, No Iterations 318
[INFO] SolveP: 540.499 [ms]
time step continuity errors : sum local = 1.57804e-08, global = 5.62069e-21, cumulative = 6.60705e-21
[INFO] ContinuityError: 3.427 [ms]
[INFO] CorrectBoundary: 0.081 [ms]
[INFO] PISOStep: 588.36 [ms]
[INFO] MatrixAssemblyPI: 24.963 [ms]
[INFO] AdjustPhi: 2.591 [ms]
[INFO] ConstrainPressure: 0.001 [ms]
[INFO] MatrixAssemblyPII: 7.881 [ms]
nonePCG:  Solving for p, Initial residual = 0.0129303, Final residual = 9.70526e-05, No Iterations 307
[INFO] SolveP: 508.495 [ms]
time step continuity errors : sum local = 1.41293e-08, global = 6.22195e-22, cumulative = 7.22925e-21
[INFO] ContinuityError: 2.181 [ms]
[INFO] CorrectBoundary: 0.212 [ms]
[INFO] PISOStep: 557.389 [ms]
[INFO] TimeStep: 1350.43 [ms]
ExecutionTime = 29.5 s  ClockTime = 30 s

Time = 0.008

Courant Number mean: 0.0691917 max: 0.476947
[INFO] MatrixAssemblyU: 23.455 [ms]
DILUPBiCGStab:  Solving for Ux, Initial residual = 0.00499903, Final residual = 1.38582e-05, No Iterations 5
DILUPBiCGStab:  Solving for Uy, Initial residual = 0.0107149, Final residual = 2.31377e-05, No Iterations 5
DILUPBiCGStab:  Solving for Uz, Initial residual = 0.0222632, Final residual = 6.03551e-05, No Iterations 5
[INFO] MomentumPredictor: 175.04 [ms]
[INFO] MatrixAssemblyPI: 25.71 [ms]
[INFO] AdjustPhi: 1.638 [ms]
[INFO] ConstrainPressure: 0.001 [ms]
[INFO] MatrixAssemblyPII: 8.073 [ms]
nonePCG:  Solving for p, Initial residual = 0.01219, Final residual = 9.99345e-05, No Iterations 688
[INFO] SolveP: 1143.63 [ms]
time step continuity errors : sum local = 1.39746e-08, global = -5.94161e-22, cumulative = 6.63509e-21
[INFO] ContinuityError: 2.363 [ms]
[INFO] CorrectBoundary: 0.227 [ms]
[INFO] PISOStep: 1191.7 [ms]
[INFO] MatrixAssemblyPI: 24.774 [ms]
[INFO] AdjustPhi: 0.722 [ms]
[INFO] ConstrainPressure: 0.002 [ms]
[INFO] MatrixAssemblyPII: 8.168 [ms]
nonePCG:  Solving for p, Initial residual = 0.0113212, Final residual = 9.94492e-05, No Iterations 686
[INFO] SolveP: 1134.82 [ms]
time step continuity errors : sum local = 1.39125e-08, global = 5.7602e-21, cumulative = 1.23953e-20
[INFO] ContinuityError: 2.346 [ms]
[INFO] CorrectBoundary: 0.324 [ms]
[INFO] PISOStep: 1182.3 [ms]
[INFO] TimeStep: 2576.02 [ms]
ExecutionTime = 32.07 s  ClockTime = 32 s

Time = 0.0085

Courant Number mean: 0.0704369 max: 0.477456
[INFO] MatrixAssemblyU: 23.429 [ms]
DILUPBiCGStab:  Solving for Ux, Initial residual = 0.00460168, Final residual = 1.25375e-05, No Iterations 5
DILUPBiCGStab:  Solving for Uy, Initial residual = 0.00989311, Final residual = 2.11674e-05, No Iterations 5
DILUPBiCGStab:  Solving for Uz, Initial residual = 0.0202017, Final residual = 4.47392e-05, No Iterations 5
[INFO] MomentumPredictor: 175.441 [ms]
[INFO] MatrixAssemblyPI: 25.564 [ms]
[INFO] AdjustPhi: 0.789 [ms]
[INFO] ConstrainPressure: 0.002 [ms]
[INFO] MatrixAssemblyPII: 7.611 [ms]
nonePCG:  Solving for p, Initial residual = 0.0109648, Final residual = 9.98175e-05, No Iterations 296
[INFO] SolveP: 501.111 [ms]
time step continuity errors : sum local = 1.47676e-08, global = -3.19581e-21, cumulative = 9.19948e-21
[INFO] ContinuityError: 1.985 [ms]
[INFO] CorrectBoundary: 0.188 [ms]
[INFO] PISOStep: 549.771 [ms]
[INFO] MatrixAssemblyPI: 23.234 [ms]
[INFO] AdjustPhi: 2.866 [ms]
[INFO] ConstrainPressure: 0.002 [ms]
[INFO] MatrixAssemblyPII: 7.592 [ms]
nonePCG:  Solving for p, Initial residual = 0.0102391, Final residual = 9.97378e-05, No Iterations 291
[INFO] SolveP: 488.056 [ms]
time step continuity errors : sum local = 1.4268e-08, global = 1.07748e-20, cumulative = 1.99743e-20
[INFO] ContinuityError: 2.066 [ms]
[INFO] CorrectBoundary: 0.151 [ms]
[INFO] PISOStep: 534.763 [ms]
[INFO] TimeStep: 1286.4 [ms]
ExecutionTime = 33.35 s  ClockTime = 34 s

Time = 0.009

Courant Number mean: 0.0715996 max: 0.477912
[INFO] MatrixAssemblyU: 21.541 [ms]
DILUPBiCGStab:  Solving for Ux, Initial residual = 0.00425721, Final residual = 1.14198e-05, No Iterations 5
DILUPBiCGStab:  Solving for Uy, Initial residual = 0.00916531, Final residual = 1.94948e-05, No Iterations 5
DILUPBiCGStab:  Solving for Uz, Initial residual = 0.0186955, Final residual = 4.20844e-05, No Iterations 5
[INFO] MomentumPredictor: 183.149 [ms]
[INFO] MatrixAssemblyPI: 23.792 [ms]
[INFO] AdjustPhi: 2.884 [ms]
[INFO] ConstrainPressure: 0.001 [ms]
[INFO] MatrixAssemblyPII: 7.638 [ms]
nonePCG:  Solving for p, Initial residual = 0.00968082, Final residual = 9.78697e-05, No Iterations 297
[INFO] SolveP: 495.423 [ms]
time step continuity errors : sum local = 1.49074e-08, global = 1.15565e-20, cumulative = 3.15308e-20
[INFO] ContinuityError: 1.972 [ms]
[INFO] CorrectBoundary: 0.172 [ms]
[INFO] PISOStep: 542.047 [ms]
[INFO] MatrixAssemblyPI: 24.573 [ms]
[INFO] AdjustPhi: 0.856 [ms]
[INFO] ConstrainPressure: 0.002 [ms]
[INFO] MatrixAssemblyPII: 8.212 [ms]
nonePCG:  Solving for p, Initial residual = 0.00911534, Final residual = 9.90115e-05, No Iterations 289
[INFO] SolveP: 482.855 [ms]
time step continuity errors : sum local = 1.41368e-08, global = 6.19015e-21, cumulative = 3.77209e-20
[INFO] ContinuityError: 2.216 [ms]
[INFO] CorrectBoundary: 0.086 [ms]
[INFO] PISOStep: 528.147 [ms]
[INFO] TimeStep: 1277.85 [ms]
ExecutionTime = 34.62 s  ClockTime = 35 s

Time = 0.0095

Courant Number mean: 0.0726862 max: 0.478326
[INFO] MatrixAssemblyU: 23.389 [ms]
DILUPBiCGStab:  Solving for Ux, Initial residual = 0.00394835, Final residual = 1.04545e-05, No Iterations 5
DILUPBiCGStab:  Solving for Uy, Initial residual = 0.00853349, Final residual = 1.80816e-05, No Iterations 5
DILUPBiCGStab:  Solving for Uz, Initial residual = 0.0175062, Final residual = 4.30323e-05, No Iterations 5
[INFO] MomentumPredictor: 174.825 [ms]
[INFO] MatrixAssemblyPI: 25.103 [ms]
[INFO] AdjustPhi: 0.92 [ms]
[INFO] ConstrainPressure: 0.002 [ms]
[INFO] MatrixAssemblyPII: 8.063 [ms]
nonePCG:  Solving for p, Initial residual = 0.00880226, Final residual = 9.85049e-05, No Iterations 306
[INFO] SolveP: 518.814 [ms]
time step continuity errors : sum local = 1.52844e-08, global = -9.34342e-21, cumulative = 2.83775e-20
[INFO] ContinuityError: 3.021 [ms]
[INFO] CorrectBoundary: 0.278 [ms]
[INFO] PISOStep: 565.807 [ms]
[INFO] MatrixAssemblyPI: 24.426 [ms]
[INFO] AdjustPhi: 1.779 [ms]
[INFO] ConstrainPressure: 0.002 [ms]
[INFO] MatrixAssemblyPII: 8.188 [ms]
nonePCG:  Solving for p, Initial residual = 0.00832491, Final residual = 9.37895e-05, No Iterations 298
[INFO] SolveP: 497.098 [ms]
time step continuity errors : sum local = 1.36258e-08, global = 1.45687e-21, cumulative = 2.98344e-20
[INFO] ContinuityError: 2.122 [ms]
[INFO] CorrectBoundary: 0.665 [ms]
[INFO] PISOStep: 544.706 [ms]
[INFO] TimeStep: 1312.57 [ms]
ExecutionTime = 35.93 s  ClockTime = 36 s

Time = 0.01

Courant Number mean: 0.0737032 max: 0.478701
[INFO] MatrixAssemblyU: 23.533 [ms]
DILUPBiCGStab:  Solving for Ux, Initial residual = 0.00368389, Final residual = 9.61854e-06, No Iterations 5
DILUPBiCGStab:  Solving for Uy, Initial residual = 0.00794789, Final residual = 1.69685e-05, No Iterations 5
DILUPBiCGStab:  Solving for Uz, Initial residual = 0.0166568, Final residual = 4.33779e-05, No Iterations 5
[INFO] MomentumPredictor: 179.271 [ms]
[INFO] MatrixAssemblyPI: 25.308 [ms]
[INFO] AdjustPhi: 1.313 [ms]
[INFO] ConstrainPressure: 0.002 [ms]
[INFO] MatrixAssemblyPII: 7.932 [ms]
nonePCG:  Solving for p, Initial residual = 0.00834915, Final residual = 9.86068e-05, No Iterations 332
[INFO] SolveP: 554.796 [ms]
time step continuity errors : sum local = 1.59878e-08, global = -1.80491e-21, cumulative = 2.80295e-20
[INFO] ContinuityError: 2.398 [ms]
[INFO] CorrectBoundary: 0.156 [ms]
[INFO] PISOStep: 601.81 [ms]
[INFO] MatrixAssemblyPI: 24.299 [ms]
[INFO] AdjustPhi: 1.397 [ms]
[INFO] ConstrainPressure: 0.002 [ms]
[INFO] MatrixAssemblyPII: 8.136 [ms]
nonePCG:  Solving for p, Initial residual = 0.0079156, Final residual = 9.98042e-05, No Iterations 296
[INFO] SolveP: 499.779 [ms]
time step continuity errors : sum local = 1.45582e-08, global = -6.42967e-21, cumulative = 2.15998e-20
[INFO] ContinuityError: 3.506 [ms]
[INFO] CorrectBoundary: 1.092 [ms]
[INFO] PISOStep: 547.071 [ms]
[INFO] TimeStep: 1354.68 [ms]
ExecutionTime = 37.27 s  ClockTime = 38 s

End

Finalising parallel run
