/*---------------------------------------------------------------------------*\
| =========                 |                                                 |
| \\      /  F ield         | OpenFOAM: The Open Source CFD Toolbox           |
|  \\    /   O peration     | Version:  2306                                  |
|   \\  /    A nd           | Website:  www.openfoam.com                      |
|    \\/     M anipulation  |                                                 |
\*---------------------------------------------------------------------------*/
Build  : c423ebec-20231012 OPENFOAM=2306 version=v2306
Arch   : "LSB;label=32;scalar=64"
Exec   : decomposePar -force
Date   : Feb 16 2024
Time   : 09:04:28
Host   : hkn0230.localdomain
PID    : 3709404
--> FOAM Warning : 
    From Foam::fileName Foam::cwd_L()
    in file POSIX.C at line 552
    PWD is not the cwd() - reverting to physical description
I/O    : uncollated
--> FOAM Warning : 
    From Foam::fileName Foam::cwd_L()
    in file POSIX.C at line 552
    PWD is not the cwd() - reverting to physical description
Case   : /hkfs/work/workspace/scratch/eq4036-windsorbody_setup/workspace/adc0cf26e7a0903b588b5400d4b63cc4/case
nProcs : 1
trapFpe: Floating point exception trapping enabled (FOAM_SIGFPE).
fileModificationChecking : Monitoring run-time modified files using timeStampMaster (fileModificationSkew 5, maxFileModificationPolls 20)
allowSystemOperations : Allowing user-supplied system call operations

// * * * * * * * * * * * * * * * * * * * * * * * * * * * * * * * * * * * * * //
Create time

--> FOAM Warning : 
    From void* Foam::dlLibraryTable::openLibrary(const Foam::fileName&, bool)
    in file db/dynamicLibrary/dlLibraryTable/dlLibraryTable.C at line 188
    Could not load "libpetscFoam.so"
libpetscFoam.so: cannot open shared object file: No such file or directory


Decomposing mesh

Create mesh

Calculating distribution of cells
Decomposition method simple [48] (region region0)

Finished decomposition in 7.97 s

Calculating original mesh data

Distributing cells to processors

Distributing faces to processors

Distributing points to processors

Constructing processor meshes

Processor 0
    Number of cells = 336994
    Number of points = 359042
    Number of faces shared with processor 1 = 1683
    Number of faces shared with processor 4 = 6423
    Number of faces shared with processor 24 = 7712
    Number of faces shared with processor 28 = 1
    Number of processor patches = 4
    Number of processor faces = 15819
    Number of boundary faces = 25436

Processor 1
    Number of cells = 211305
    Number of points = 224950
    Number of faces shared with processor 0 = 1683
    Number of faces shared with processor 2 = 1852
    Number of faces shared with processor 5 = 4486
    Number of faces shared with processor 24 = 1
    Number of faces shared with processor 25 = 6480
    Number of faces shared with processor 26 = 2
    Number of processor patches = 6
    Number of processor faces = 14504
    Number of boundary faces = 9875

Processor 2
    Number of cells = 205668
    Number of points = 219116
    Number of faces shared with processor 1 = 1852
    Number of faces shared with processor 3 = 1826
    Number of faces shared with processor 6 = 4402
    Number of faces shared with processor 25 = 1
    Number of faces shared with processor 26 = 6504
    Number of faces shared with processor 27 = 2
    Number of processor patches = 6
    Number of processor faces = 14587
    Number of boundary faces = 8606

Processor 3
    Number of cells = 319742
    Number of points = 340702
    Number of faces shared with processor 2 = 1826
    Number of faces shared with processor 7 = 6627
    Number of faces shared with processor 27 = 8211
    Number of processor patches = 3
    Number of processor faces = 16664
    Number of boundary faces = 18724

Processor 4
    Number of cells = 269973
    Number of points = 289273
    Number of faces shared with processor 0 = 6423
    Number of faces shared with processor 5 = 1104
    Number of faces shared with processor 8 = 6341
    Number of faces shared with processor 28 = 1464
    Number of processor patches = 4
    Number of processor faces = 15332
    Number of boundary faces = 22530

Processor 5
    Number of cells = 213884
    Number of points = 227189
    Number of faces shared with processor 1 = 4486
    Number of faces shared with processor 4 = 1104
    Number of faces shared with processor 6 = 1488
    Number of faces shared with processor 9 = 4445
    Number of faces shared with processor 29 = 6385
    Number of processor patches = 5
    Number of processor faces = 17908
    Number of boundary faces = 8664

Processor 6
    Number of cells = 211953
    Number of points = 224954
    Number of faces shared with processor 2 = 4402
    Number of faces shared with processor 5 = 1488
    Number of faces shared with processor 7 = 1574
    Number of faces shared with processor 10 = 4426
    Number of faces shared with processor 30 = 6807
    Number of faces shared with processor 31 = 1
    Number of faces shared with processor 34 = 1
    Number of processor patches = 7
    Number of processor faces = 18699
    Number of boundary faces = 6857

Processor 7
    Number of cells = 279284
    Number of points = 301621
    Number of faces shared with processor 3 = 6627
    Number of faces shared with processor 6 = 1574
    Number of faces shared with processor 11 = 6922
    Number of faces shared with processor 31 = 5696
    Number of faces shared with processor 35 = 1
    Number of processor patches = 5
    Number of processor faces = 20820
    Number of boundary faces = 14084

Processor 8
    Number of cells = 342107
    Number of points = 364621
    Number of faces shared with processor 4 = 6341
    Number of faces shared with processor 9 = 1686
    Number of faces shared with processor 12 = 710
    Number of faces shared with processor 32 = 7680
    Number of processor patches = 4
    Number of processor faces = 16417
    Number of boundary faces = 25439

Processor 9
    Number of cells = 211157
    Number of points = 224920
    Number of faces shared with processor 5 = 4445
    Number of faces shared with processor 8 = 1686
    Number of faces shared with processor 10 = 1839
    Number of faces shared with processor 13 = 90
    Number of faces shared with processor 33 = 6384
    Number of processor patches = 5
    Number of processor faces = 14444
    Number of boundary faces = 9592

Processor 10
    Number of cells = 205525
    Number of points = 218114
    Number of faces shared with processor 6 = 4426
    Number of faces shared with processor 9 = 1839
    Number of faces shared with processor 11 = 1751
    Number of faces shared with processor 14 = 80
    Number of faces shared with processor 33 = 1
    Number of faces shared with processor 34 = 6423
    Number of faces shared with processor 35 = 1
    Number of processor patches = 7
    Number of processor faces = 14521
    Number of boundary faces = 8511

Processor 11
    Number of cells = 317612
    Number of points = 338805
    Number of faces shared with processor 7 = 6922
    Number of faces shared with processor 10 = 1751
    Number of faces shared with processor 15 = 562
    Number of faces shared with processor 35 = 8162
    Number of processor patches = 4
    Number of processor faces = 17397
    Number of boundary faces = 17873

Processor 12
    Number of cells = 338671
    Number of points = 360590
    Number of faces shared with processor 8 = 710
    Number of faces shared with processor 13 = 1621
    Number of faces shared with processor 16 = 6411
    Number of faces shared with processor 36 = 7377
    Number of processor patches = 4
    Number of processor faces = 16119
    Number of boundary faces = 24863

Processor 13
    Number of cells = 217991
    Number of points = 231714
    Number of faces shared with processor 9 = 90
    Number of faces shared with processor 12 = 1621
    Number of faces shared with processor 14 = 1861
    Number of faces shared with processor 17 = 4644
    Number of faces shared with processor 37 = 6256
    Number of processor patches = 5
    Number of processor faces = 14472
    Number of boundary faces = 9892

Processor 14
    Number of cells = 210297
    Number of points = 223778
    Number of faces shared with processor 10 = 80
    Number of faces shared with processor 13 = 1861
    Number of faces shared with processor 15 = 1820
    Number of faces shared with processor 18 = 4512
    Number of faces shared with processor 38 = 6266
    Number of processor patches = 5
    Number of processor faces = 14539
    Number of boundary faces = 8482

Processor 15
    Number of cells = 326643
    Number of points = 347739
    Number of faces shared with processor 11 = 562
    Number of faces shared with processor 14 = 1820
    Number of faces shared with processor 19 = 6830
    Number of faces shared with processor 38 = 10
    Number of faces shared with processor 39 = 8116
    Number of processor patches = 5
    Number of processor faces = 17338
    Number of boundary faces = 18214

Processor 16
    Number of cells = 269398
    Number of points = 288635
    Number of faces shared with processor 12 = 6411
    Number of faces shared with processor 17 = 1104
    Number of faces shared with processor 20 = 6328
    Number of faces shared with processor 40 = 1414
    Number of processor patches = 4
    Number of processor faces = 15257
    Number of boundary faces = 22483

Processor 17
    Number of cells = 221345
    Number of points = 234904
    Number of faces shared with processor 13 = 4644
    Number of faces shared with processor 16 = 1104
    Number of faces shared with processor 18 = 1550
    Number of faces shared with processor 21 = 4592
    Number of faces shared with processor 22 = 1
    Number of faces shared with processor 41 = 6377
    Number of faces shared with processor 42 = 1
    Number of processor patches = 7
    Number of processor faces = 18269
    Number of boundary faces = 8809

Processor 18
    Number of cells = 218259
    Number of points = 231407
    Number of faces shared with processor 14 = 4512
    Number of faces shared with processor 17 = 1550
    Number of faces shared with processor 19 = 1568
    Number of faces shared with processor 22 = 4576
    Number of faces shared with processor 42 = 6811
    Number of faces shared with processor 46 = 1
    Number of processor patches = 6
    Number of processor faces = 19018
    Number of boundary faces = 6830

Processor 19
    Number of cells = 285189
    Number of points = 307726
    Number of faces shared with processor 15 = 6830
    Number of faces shared with processor 18 = 1568
    Number of faces shared with processor 23 = 7096
    Number of faces shared with processor 43 = 5627
    Number of processor patches = 4
    Number of processor faces = 21121
    Number of boundary faces = 14111

Processor 20
    Number of cells = 343718
    Number of points = 366127
    Number of faces shared with processor 16 = 6328
    Number of faces shared with processor 21 = 1605
    Number of faces shared with processor 44 = 7434
    Number of processor patches = 3
    Number of processor faces = 15367
    Number of boundary faces = 26290

Processor 21
    Number of cells = 215233
    Number of points = 228992
    Number of faces shared with processor 17 = 4592
    Number of faces shared with processor 20 = 1605
    Number of faces shared with processor 22 = 1862
    Number of faces shared with processor 45 = 6200
    Number of processor patches = 4
    Number of processor faces = 14259
    Number of boundary faces = 9760

Processor 22
    Number of cells = 211322
    Number of points = 224002
    Number of faces shared with processor 17 = 1
    Number of faces shared with processor 18 = 4576
    Number of faces shared with processor 21 = 1862
    Number of faces shared with processor 23 = 1827
    Number of faces shared with processor 46 = 6244
    Number of faces shared with processor 47 = 8
    Number of processor patches = 6
    Number of processor faces = 14518
    Number of boundary faces = 8620

Processor 23
    Number of cells = 323866
    Number of points = 345127
    Number of faces shared with processor 19 = 7096
    Number of faces shared with processor 22 = 1827
    Number of faces shared with processor 46 = 2
    Number of faces shared with processor 47 = 7908
    Number of processor patches = 4
    Number of processor faces = 16833
    Number of boundary faces = 18437

Processor 24
    Number of cells = 230215
    Number of points = 252151
    Number of faces shared with processor 0 = 7712
    Number of faces shared with processor 1 = 1
    Number of faces shared with processor 25 = 2188
    Number of faces shared with processor 28 = 5907
    Number of processor patches = 4
    Number of processor faces = 15808
    Number of boundary faces = 14236

Processor 25
    Number of cells = 289025
    Number of points = 308127
    Number of faces shared with processor 1 = 6480
    Number of faces shared with processor 2 = 1
    Number of faces shared with processor 24 = 2188
    Number of faces shared with processor 26 = 2981
    Number of faces shared with processor 28 = 3
    Number of faces shared with processor 29 = 8482
    Number of processor patches = 6
    Number of processor faces = 20135
    Number of boundary faces = 2638

Processor 26
    Number of cells = 288458
    Number of points = 306798
    Number of faces shared with processor 1 = 2
    Number of faces shared with processor 2 = 6504
    Number of faces shared with processor 25 = 2981
    Number of faces shared with processor 27 = 3054
    Number of faces shared with processor 29 = 1
    Number of faces shared with processor 30 = 8585
    Number of faces shared with processor 31 = 2
    Number of processor patches = 7
    Number of processor faces = 21129
    Number of boundary faces = 216

Processor 27
    Number of cells = 220972
    Number of points = 240457
    Number of faces shared with processor 2 = 2
    Number of faces shared with processor 3 = 8211
    Number of faces shared with processor 26 = 3054
    Number of faces shared with processor 31 = 7734
    Number of processor patches = 4
    Number of processor faces = 19001
    Number of boundary faces = 1734

Processor 28
    Number of cells = 163033
    Number of points = 181093
    Number of faces shared with processor 0 = 1
    Number of faces shared with processor 4 = 1464
    Number of faces shared with processor 24 = 5907
    Number of faces shared with processor 25 = 3
    Number of faces shared with processor 29 = 953
    Number of faces shared with processor 32 = 5649
    Number of faces shared with processor 33 = 1
    Number of processor patches = 7
    Number of processor faces = 13978
    Number of boundary faces = 10944

Processor 29
    Number of cells = 367268
    Number of points = 386053
    Number of faces shared with processor 5 = 6385
    Number of faces shared with processor 25 = 8482
    Number of faces shared with processor 26 = 1
    Number of faces shared with processor 28 = 953
    Number of faces shared with processor 30 = 2972
    Number of faces shared with processor 33 = 8343
    Number of faces shared with processor 34 = 1
    Number of processor patches = 7
    Number of processor faces = 27137
    Number of boundary faces = 3400

Processor 30
    Number of cells = 378062
    Number of points = 396777
    Number of faces shared with processor 6 = 6807
    Number of faces shared with processor 26 = 8585
    Number of faces shared with processor 29 = 2972
    Number of faces shared with processor 31 = 2989
    Number of faces shared with processor 34 = 8657
    Number of processor patches = 5
    Number of processor faces = 30010
    Number of boundary faces = 32

Processor 31
    Number of cells = 218922
    Number of points = 235792
    Number of faces shared with processor 6 = 1
    Number of faces shared with processor 7 = 5696
    Number of faces shared with processor 26 = 2
    Number of faces shared with processor 27 = 7734
    Number of faces shared with processor 30 = 2989
    Number of faces shared with processor 34 = 2
    Number of faces shared with processor 35 = 7776
    Number of processor patches = 7
    Number of processor faces = 24200
    Number of boundary faces = 242

Processor 32
    Number of cells = 236407
    Number of points = 259359
    Number of faces shared with processor 8 = 7680
    Number of faces shared with processor 28 = 5649
    Number of faces shared with processor 33 = 2128
    Number of faces shared with processor 36 = 1136
    Number of processor patches = 4
    Number of processor faces = 16593
    Number of boundary faces = 13581

Processor 33
    Number of cells = 284543
    Number of points = 303302
    Number of faces shared with processor 9 = 6384
    Number of faces shared with processor 10 = 1
    Number of faces shared with processor 28 = 1
    Number of faces shared with processor 29 = 8343
    Number of faces shared with processor 32 = 2128
    Number of faces shared with processor 34 = 2957
    Number of faces shared with processor 37 = 144
    Number of processor patches = 7
    Number of processor faces = 19958
    Number of boundary faces = 2112

Processor 34
    Number of cells = 286251
    Number of points = 304454
    Number of faces shared with processor 6 = 1
    Number of faces shared with processor 10 = 6423
    Number of faces shared with processor 29 = 1
    Number of faces shared with processor 30 = 8657
    Number of faces shared with processor 31 = 2
    Number of faces shared with processor 33 = 2957
    Number of faces shared with processor 35 = 2921
    Number of faces shared with processor 38 = 128
    Number of processor patches = 8
    Number of processor faces = 21090
    Number of boundary faces = 88

Processor 35
    Number of cells = 218777
    Number of points = 238148
    Number of faces shared with processor 7 = 1
    Number of faces shared with processor 10 = 1
    Number of faces shared with processor 11 = 8162
    Number of faces shared with processor 31 = 7776
    Number of faces shared with processor 34 = 2921
    Number of faces shared with processor 39 = 896
    Number of processor patches = 6
    Number of processor faces = 19757
    Number of boundary faces = 792

Processor 36
    Number of cells = 227069
    Number of points = 248631
    Number of faces shared with processor 12 = 7377
    Number of faces shared with processor 32 = 1136
    Number of faces shared with processor 37 = 2021
    Number of faces shared with processor 40 = 5878
    Number of faces shared with processor 41 = 1
    Number of processor patches = 5
    Number of processor faces = 16413
    Number of boundary faces = 12865

Processor 37
    Number of cells = 283584
    Number of points = 302275
    Number of faces shared with processor 13 = 6256
    Number of faces shared with processor 33 = 144
    Number of faces shared with processor 36 = 2021
    Number of faces shared with processor 38 = 2937
    Number of faces shared with processor 40 = 1
    Number of faces shared with processor 41 = 8354
    Number of faces shared with processor 42 = 1
    Number of processor patches = 7
    Number of processor faces = 19714
    Number of boundary faces = 2477

Processor 38
    Number of cells = 282174
    Number of points = 300124
    Number of faces shared with processor 14 = 6266
    Number of faces shared with processor 15 = 10
    Number of faces shared with processor 34 = 128
    Number of faces shared with processor 37 = 2937
    Number of faces shared with processor 39 = 2899
    Number of faces shared with processor 41 = 1
    Number of faces shared with processor 42 = 8453
    Number of faces shared with processor 43 = 2
    Number of processor patches = 8
    Number of processor faces = 20696
    Number of boundary faces = 88

Processor 39
    Number of cells = 215950
    Number of points = 235162
    Number of faces shared with processor 15 = 8116
    Number of faces shared with processor 35 = 896
    Number of faces shared with processor 38 = 2899
    Number of faces shared with processor 43 = 7565
    Number of processor patches = 4
    Number of processor faces = 19476
    Number of boundary faces = 838

Processor 40
    Number of cells = 162395
    Number of points = 180356
    Number of faces shared with processor 16 = 1414
    Number of faces shared with processor 36 = 5878
    Number of faces shared with processor 37 = 1
    Number of faces shared with processor 41 = 933
    Number of faces shared with processor 44 = 5632
    Number of processor patches = 5
    Number of processor faces = 13858
    Number of boundary faces = 10882

Processor 41
    Number of cells = 359305
    Number of points = 377905
    Number of faces shared with processor 17 = 6377
    Number of faces shared with processor 36 = 1
    Number of faces shared with processor 37 = 8354
    Number of faces shared with processor 38 = 1
    Number of faces shared with processor 40 = 933
    Number of faces shared with processor 42 = 2955
    Number of faces shared with processor 44 = 2
    Number of faces shared with processor 45 = 8165
    Number of faces shared with processor 46 = 1
    Number of processor patches = 9
    Number of processor faces = 26789
    Number of boundary faces = 3364

Processor 42
    Number of cells = 372868
    Number of points = 391442
    Number of faces shared with processor 17 = 1
    Number of faces shared with processor 18 = 6811
    Number of faces shared with processor 37 = 1
    Number of faces shared with processor 38 = 8453
    Number of faces shared with processor 41 = 2955
    Number of faces shared with processor 43 = 2964
    Number of faces shared with processor 46 = 8557
    Number of processor patches = 7
    Number of processor faces = 29742
    Number of boundary faces = 32

Processor 43
    Number of cells = 213619
    Number of points = 230244
    Number of faces shared with processor 19 = 5627
    Number of faces shared with processor 38 = 2
    Number of faces shared with processor 39 = 7565
    Number of faces shared with processor 42 = 2964
    Number of faces shared with processor 46 = 2
    Number of faces shared with processor 47 = 7612
    Number of processor patches = 6
    Number of processor faces = 23772
    Number of boundary faces = 242

Processor 44
    Number of cells = 233588
    Number of points = 256200
    Number of faces shared with processor 20 = 7434
    Number of faces shared with processor 40 = 5632
    Number of faces shared with processor 41 = 2
    Number of faces shared with processor 45 = 2058
    Number of processor patches = 4
    Number of processor faces = 15126
    Number of boundary faces = 14422

Processor 45
    Number of cells = 278928
    Number of points = 297465
    Number of faces shared with processor 21 = 6200
    Number of faces shared with processor 41 = 8165
    Number of faces shared with processor 44 = 2058
    Number of faces shared with processor 46 = 2841
    Number of processor patches = 4
    Number of processor faces = 19264
    Number of boundary faces = 2297

Processor 46
    Number of cells = 282731
    Number of points = 300632
    Number of faces shared with processor 18 = 1
    Number of faces shared with processor 22 = 6244
    Number of faces shared with processor 23 = 2
    Number of faces shared with processor 41 = 1
    Number of faces shared with processor 42 = 8557
    Number of faces shared with processor 43 = 2
    Number of faces shared with processor 45 = 2841
    Number of faces shared with processor 47 = 2916
    Number of processor patches = 8
    Number of processor faces = 20564
    Number of boundary faces = 216

Processor 47
    Number of cells = 212992
    Number of points = 232141
    Number of faces shared with processor 22 = 8
    Number of faces shared with processor 23 = 7908
    Number of faces shared with processor 43 = 7612
    Number of faces shared with processor 46 = 2916
    Number of processor patches = 4
    Number of processor faces = 18444
    Number of boundary faces = 1688

Number of processor faces = 443438
Max number of cells = 378062 (43.86066829698932% above average 262797.3333333333)
Max number of processor patches = 9 (66.15384615384615% above average 5.416666666666667)
Max number of faces between processors = 30010 (62.42180417555555% above average 18476.58333333333)

Time = 0

Processor 0: field transfer
--> FOAM Warning : 
    From void* Foam::dlLibraryTable::openLibrary(const Foam::fileName&, bool)
    in file db/dynamicLibrary/dlLibraryTable/dlLibraryTable.C at line 188
    Could not load "libpetscFoam.so"
libpetscFoam.so: cannot open shared object file: No such file or directory
Processor 1: field transfer
--> FOAM Warning : 
    From void* Foam::dlLibraryTable::openLibrary(const Foam::fileName&, bool)
    in file db/dynamicLibrary/dlLibraryTable/dlLibraryTable.C at line 188
    Could not load "libpetscFoam.so"
libpetscFoam.so: cannot open shared object file: No such file or directory
Processor 2: field transfer
--> FOAM Warning : 
    From void* Foam::dlLibraryTable::openLibrary(const Foam::fileName&, bool)
    in file db/dynamicLibrary/dlLibraryTable/dlLibraryTable.C at line 188
    Could not load "libpetscFoam.so"
libpetscFoam.so: cannot open shared object file: No such file or directory
Processor 3: field transfer
--> FOAM Warning : 
    From void* Foam::dlLibraryTable::openLibrary(const Foam::fileName&, bool)
    in file db/dynamicLibrary/dlLibraryTable/dlLibraryTable.C at line 188
    Could not load "libpetscFoam.so"
libpetscFoam.so: cannot open shared object file: No such file or directory
Processor 4: field transfer
--> FOAM Warning : 
    From void* Foam::dlLibraryTable::openLibrary(const Foam::fileName&, bool)
    in file db/dynamicLibrary/dlLibraryTable/dlLibraryTable.C at line 188
    Could not load "libpetscFoam.so"
libpetscFoam.so: cannot open shared object file: No such file or directory
Processor 5: field transfer
--> FOAM Warning : 
    From void* Foam::dlLibraryTable::openLibrary(const Foam::fileName&, bool)
    in file db/dynamicLibrary/dlLibraryTable/dlLibraryTable.C at line 188
    Could not load "libpetscFoam.so"
libpetscFoam.so: cannot open shared object file: No such file or directory
Processor 6: field transfer
--> FOAM Warning : 
    From void* Foam::dlLibraryTable::openLibrary(const Foam::fileName&, bool)
    in file db/dynamicLibrary/dlLibraryTable/dlLibraryTable.C at line 188
    Could not load "libpetscFoam.so"
libpetscFoam.so: cannot open shared object file: No such file or directory
Processor 7: field transfer
--> FOAM Warning : 
    From void* Foam::dlLibraryTable::openLibrary(const Foam::fileName&, bool)
    in file db/dynamicLibrary/dlLibraryTable/dlLibraryTable.C at line 188
    Could not load "libpetscFoam.so"
libpetscFoam.so: cannot open shared object file: No such file or directory
Processor 8: field transfer
--> FOAM Warning : 
    From void* Foam::dlLibraryTable::openLibrary(const Foam::fileName&, bool)
    in file db/dynamicLibrary/dlLibraryTable/dlLibraryTable.C at line 188
    Could not load "libpetscFoam.so"
libpetscFoam.so: cannot open shared object file: No such file or directory
Processor 9: field transfer
--> FOAM Warning : 
    From void* Foam::dlLibraryTable::openLibrary(const Foam::fileName&, bool)
    in file db/dynamicLibrary/dlLibraryTable/dlLibraryTable.C at line 188
    Could not load "libpetscFoam.so"
libpetscFoam.so: cannot open shared object file: No such file or directory
Processor 10: field transfer
--> FOAM Warning : 
    From void* Foam::dlLibraryTable::openLibrary(const Foam::fileName&, bool)
    in file db/dynamicLibrary/dlLibraryTable/dlLibraryTable.C at line 188
    Could not load "libpetscFoam.so"
libpetscFoam.so: cannot open shared object file: No such file or directory
Processor 11: field transfer
--> FOAM Warning : 
    From void* Foam::dlLibraryTable::openLibrary(const Foam::fileName&, bool)
    in file db/dynamicLibrary/dlLibraryTable/dlLibraryTable.C at line 188
    Could not load "libpetscFoam.so"
libpetscFoam.so: cannot open shared object file: No such file or directory
Processor 12: field transfer
--> FOAM Warning : 
    From void* Foam::dlLibraryTable::openLibrary(const Foam::fileName&, bool)
    in file db/dynamicLibrary/dlLibraryTable/dlLibraryTable.C at line 188
    Could not load "libpetscFoam.so"
libpetscFoam.so: cannot open shared object file: No such file or directory
Processor 13: field transfer
--> FOAM Warning : 
    From void* Foam::dlLibraryTable::openLibrary(const Foam::fileName&, bool)
    in file db/dynamicLibrary/dlLibraryTable/dlLibraryTable.C at line 188
    Could not load "libpetscFoam.so"
libpetscFoam.so: cannot open shared object file: No such file or directory
Processor 14: field transfer
--> FOAM Warning : 
    From void* Foam::dlLibraryTable::openLibrary(const Foam::fileName&, bool)
    in file db/dynamicLibrary/dlLibraryTable/dlLibraryTable.C at line 188
    Could not load "libpetscFoam.so"
libpetscFoam.so: cannot open shared object file: No such file or directory
Processor 15: field transfer
--> FOAM Warning : 
    From void* Foam::dlLibraryTable::openLibrary(const Foam::fileName&, bool)
    in file db/dynamicLibrary/dlLibraryTable/dlLibraryTable.C at line 188
    Could not load "libpetscFoam.so"
libpetscFoam.so: cannot open shared object file: No such file or directory
Processor 16: field transfer
--> FOAM Warning : 
    From void* Foam::dlLibraryTable::openLibrary(const Foam::fileName&, bool)
    in file db/dynamicLibrary/dlLibraryTable/dlLibraryTable.C at line 188
    Could not load "libpetscFoam.so"
libpetscFoam.so: cannot open shared object file: No such file or directory
Processor 17: field transfer
--> FOAM Warning : 
    From void* Foam::dlLibraryTable::openLibrary(const Foam::fileName&, bool)
    in file db/dynamicLibrary/dlLibraryTable/dlLibraryTable.C at line 188
    Could not load "libpetscFoam.so"
libpetscFoam.so: cannot open shared object file: No such file or directory
Processor 18: field transfer
--> FOAM Warning : 
    From void* Foam::dlLibraryTable::openLibrary(const Foam::fileName&, bool)
    in file db/dynamicLibrary/dlLibraryTable/dlLibraryTable.C at line 188
    Could not load "libpetscFoam.so"
libpetscFoam.so: cannot open shared object file: No such file or directory
Processor 19: field transfer
--> FOAM Warning : 
    From void* Foam::dlLibraryTable::openLibrary(const Foam::fileName&, bool)
    in file db/dynamicLibrary/dlLibraryTable/dlLibraryTable.C at line 188
    Could not load "libpetscFoam.so"
libpetscFoam.so: cannot open shared object file: No such file or directory
Processor 20: field transfer
--> FOAM Warning : 
    From void* Foam::dlLibraryTable::openLibrary(const Foam::fileName&, bool)
    in file db/dynamicLibrary/dlLibraryTable/dlLibraryTable.C at line 188
    Could not load "libpetscFoam.so"
libpetscFoam.so: cannot open shared object file: No such file or directory
Processor 21: field transfer
--> FOAM Warning : 
    From void* Foam::dlLibraryTable::openLibrary(const Foam::fileName&, bool)
    in file db/dynamicLibrary/dlLibraryTable/dlLibraryTable.C at line 188
    Could not load "libpetscFoam.so"
libpetscFoam.so: cannot open shared object file: No such file or directory
Processor 22: field transfer
--> FOAM Warning : 
    From void* Foam::dlLibraryTable::openLibrary(const Foam::fileName&, bool)
    in file db/dynamicLibrary/dlLibraryTable/dlLibraryTable.C at line 188
    Could not load "libpetscFoam.so"
libpetscFoam.so: cannot open shared object file: No such file or directory
Processor 23: field transfer
--> FOAM Warning : 
    From void* Foam::dlLibraryTable::openLibrary(const Foam::fileName&, bool)
    in file db/dynamicLibrary/dlLibraryTable/dlLibraryTable.C at line 188
    Could not load "libpetscFoam.so"
libpetscFoam.so: cannot open shared object file: No such file or directory
Processor 24: field transfer
--> FOAM Warning : 
    From void* Foam::dlLibraryTable::openLibrary(const Foam::fileName&, bool)
    in file db/dynamicLibrary/dlLibraryTable/dlLibraryTable.C at line 188
    Could not load "libpetscFoam.so"
libpetscFoam.so: cannot open shared object file: No such file or directory
Processor 25: field transfer
--> FOAM Warning : 
    From void* Foam::dlLibraryTable::openLibrary(const Foam::fileName&, bool)
    in file db/dynamicLibrary/dlLibraryTable/dlLibraryTable.C at line 188
    Could not load "libpetscFoam.so"
libpetscFoam.so: cannot open shared object file: No such file or directory
Processor 26: field transfer
--> FOAM Warning : 
    From void* Foam::dlLibraryTable::openLibrary(const Foam::fileName&, bool)
    in file db/dynamicLibrary/dlLibraryTable/dlLibraryTable.C at line 188
    Could not load "libpetscFoam.so"
libpetscFoam.so: cannot open shared object file: No such file or directory
Processor 27: field transfer
--> FOAM Warning : 
    From void* Foam::dlLibraryTable::openLibrary(const Foam::fileName&, bool)
    in file db/dynamicLibrary/dlLibraryTable/dlLibraryTable.C at line 188
    Could not load "libpetscFoam.so"
libpetscFoam.so: cannot open shared object file: No such file or directory
Processor 28: field transfer
--> FOAM Warning : 
    From void* Foam::dlLibraryTable::openLibrary(const Foam::fileName&, bool)
    in file db/dynamicLibrary/dlLibraryTable/dlLibraryTable.C at line 188
    Could not load "libpetscFoam.so"
libpetscFoam.so: cannot open shared object file: No such file or directory
Processor 29: field transfer
--> FOAM Warning : 
    From void* Foam::dlLibraryTable::openLibrary(const Foam::fileName&, bool)
    in file db/dynamicLibrary/dlLibraryTable/dlLibraryTable.C at line 188
    Could not load "libpetscFoam.so"
libpetscFoam.so: cannot open shared object file: No such file or directory
Processor 30: field transfer
--> FOAM Warning : 
    From void* Foam::dlLibraryTable::openLibrary(const Foam::fileName&, bool)
    in file db/dynamicLibrary/dlLibraryTable/dlLibraryTable.C at line 188
    Could not load "libpetscFoam.so"
libpetscFoam.so: cannot open shared object file: No such file or directory
Processor 31: field transfer
--> FOAM Warning : 
    From void* Foam::dlLibraryTable::openLibrary(const Foam::fileName&, bool)
    in file db/dynamicLibrary/dlLibraryTable/dlLibraryTable.C at line 188
    Could not load "libpetscFoam.so"
libpetscFoam.so: cannot open shared object file: No such file or directory
Processor 32: field transfer
--> FOAM Warning : 
    From void* Foam::dlLibraryTable::openLibrary(const Foam::fileName&, bool)
    in file db/dynamicLibrary/dlLibraryTable/dlLibraryTable.C at line 188
    Could not load "libpetscFoam.so"
libpetscFoam.so: cannot open shared object file: No such file or directory
Processor 33: field transfer
--> FOAM Warning : 
    From void* Foam::dlLibraryTable::openLibrary(const Foam::fileName&, bool)
    in file db/dynamicLibrary/dlLibraryTable/dlLibraryTable.C at line 188
    Could not load "libpetscFoam.so"
libpetscFoam.so: cannot open shared object file: No such file or directory
Processor 34: field transfer
--> FOAM Warning : 
    From void* Foam::dlLibraryTable::openLibrary(const Foam::fileName&, bool)
    in file db/dynamicLibrary/dlLibraryTable/dlLibraryTable.C at line 188
    Could not load "libpetscFoam.so"
libpetscFoam.so: cannot open shared object file: No such file or directory
Processor 35: field transfer
--> FOAM Warning : 
    From void* Foam::dlLibraryTable::openLibrary(const Foam::fileName&, bool)
    in file db/dynamicLibrary/dlLibraryTable/dlLibraryTable.C at line 188
    Could not load "libpetscFoam.so"
libpetscFoam.so: cannot open shared object file: No such file or directory
Processor 36: field transfer
--> FOAM Warning : 
    From void* Foam::dlLibraryTable::openLibrary(const Foam::fileName&, bool)
    in file db/dynamicLibrary/dlLibraryTable/dlLibraryTable.C at line 188
    Could not load "libpetscFoam.so"
libpetscFoam.so: cannot open shared object file: No such file or directory
Processor 37: field transfer
--> FOAM Warning : 
    From void* Foam::dlLibraryTable::openLibrary(const Foam::fileName&, bool)
    in file db/dynamicLibrary/dlLibraryTable/dlLibraryTable.C at line 188
    Could not load "libpetscFoam.so"
libpetscFoam.so: cannot open shared object file: No such file or directory
Processor 38: field transfer
--> FOAM Warning : 
    From void* Foam::dlLibraryTable::openLibrary(const Foam::fileName&, bool)
    in file db/dynamicLibrary/dlLibraryTable/dlLibraryTable.C at line 188
    Could not load "libpetscFoam.so"
libpetscFoam.so: cannot open shared object file: No such file or directory
Processor 39: field transfer
--> FOAM Warning : 
    From void* Foam::dlLibraryTable::openLibrary(const Foam::fileName&, bool)
    in file db/dynamicLibrary/dlLibraryTable/dlLibraryTable.C at line 188
    Could not load "libpetscFoam.so"
libpetscFoam.so: cannot open shared object file: No such file or directory
Processor 40: field transfer
--> FOAM Warning : 
    From void* Foam::dlLibraryTable::openLibrary(const Foam::fileName&, bool)
    in file db/dynamicLibrary/dlLibraryTable/dlLibraryTable.C at line 188
    Could not load "libpetscFoam.so"
libpetscFoam.so: cannot open shared object file: No such file or directory
Processor 41: field transfer
--> FOAM Warning : 
    From void* Foam::dlLibraryTable::openLibrary(const Foam::fileName&, bool)
    in file db/dynamicLibrary/dlLibraryTable/dlLibraryTable.C at line 188
    Could not load "libpetscFoam.so"
libpetscFoam.so: cannot open shared object file: No such file or directory
Processor 42: field transfer
--> FOAM Warning : 
    From void* Foam::dlLibraryTable::openLibrary(const Foam::fileName&, bool)
    in file db/dynamicLibrary/dlLibraryTable/dlLibraryTable.C at line 188
    Could not load "libpetscFoam.so"
libpetscFoam.so: cannot open shared object file: No such file or directory
Processor 43: field transfer
--> FOAM Warning : 
    From void* Foam::dlLibraryTable::openLibrary(const Foam::fileName&, bool)
    in file db/dynamicLibrary/dlLibraryTable/dlLibraryTable.C at line 188
    Could not load "libpetscFoam.so"
libpetscFoam.so: cannot open shared object file: No such file or directory
Processor 44: field transfer
--> FOAM Warning : 
    From void* Foam::dlLibraryTable::openLibrary(const Foam::fileName&, bool)
    in file db/dynamicLibrary/dlLibraryTable/dlLibraryTable.C at line 188
    Could not load "libpetscFoam.so"
libpetscFoam.so: cannot open shared object file: No such file or directory
Processor 45: field transfer
--> FOAM Warning : 
    From void* Foam::dlLibraryTable::openLibrary(const Foam::fileName&, bool)
    in file db/dynamicLibrary/dlLibraryTable/dlLibraryTable.C at line 188
    Could not load "libpetscFoam.so"
libpetscFoam.so: cannot open shared object file: No such file or directory
Processor 46: field transfer
--> FOAM Warning : 
    From void* Foam::dlLibraryTable::openLibrary(const Foam::fileName&, bool)
    in file db/dynamicLibrary/dlLibraryTable/dlLibraryTable.C at line 188
    Could not load "libpetscFoam.so"
libpetscFoam.so: cannot open shared object file: No such file or directory
Processor 47: field transfer
--> FOAM Warning : 
    From void* Foam::dlLibraryTable::openLibrary(const Foam::fileName&, bool)
    in file db/dynamicLibrary/dlLibraryTable/dlLibraryTable.C at line 188
    Could not load "libpetscFoam.so"
libpetscFoam.so: cannot open shared object file: No such file or directory

End

