/*---------------------------------------------------------------------------*\
| =========                 |                                                 |
| \\      /  F ield         | OpenFOAM: The Open Source CFD Toolbox           |
|  \\    /   O peration     | Version:  2306                                  |
|   \\  /    A nd           | Website:  www.openfoam.com                      |
|    \\/     M anipulation  |                                                 |
\*---------------------------------------------------------------------------*/
Build  : c423ebec-20231012 OPENFOAM=2306 version=v2306
Arch   : "LSB;label=32;scalar=64"
Exec   : icoFoam -parallel -case /hkfs/work/workspace/scratch/eq4036-l3d_multi/workspace/f20c3e5322c9dc38be339b23e7980990/case
Date   : Feb 05 2024
Time   : 08:21:16
Host   : hkn1129.localdomain
PID    : 1188094
I/O    : uncollated
Case   : /hkfs/work/workspace/scratch/eq4036-l3d_multi/workspace/f20c3e5322c9dc38be339b23e7980990/case
nProcs : 760
Hosts  :
(
    (hkn1129.localdomain 76)
    (hkn1130.localdomain 76)
    (hkn1131.localdomain 76)
    (hkn1132.localdomain 76)
    (hkn1133.localdomain 76)
    (hkn1134.localdomain 76)
    (hkn1137.localdomain 76)
    (hkn1138.localdomain 76)
    (hkn1139.localdomain 76)
    (hkn1140.localdomain 76)
)
Pstream initialized with:
    floatTransfer      : false
    nProcsSimpleSum    : 0
    nonBlockingExchange: 0 (tuning: 0)
    exchange algorithm : -1
    commsType          : nonBlocking
    polling iterations : 0
trapFpe: Floating point exception trapping enabled (FOAM_SIGFPE).
fileModificationChecking : Monitoring run-time modified files using timeStampMaster (fileModificationSkew 5, maxFileModificationPolls 20)
allowSystemOperations : Allowing user-supplied system call operations

// * * * * * * * * * * * * * * * * * * * * * * * * * * * * * * * * * * * * * //
Create time

--> FOAM Warning : 
    From void* Foam::dlLibraryTable::openLibrary(const Foam::fileName&, bool)
    in file db/dynamicLibrary/dlLibraryTable/dlLibraryTable.C at line 188
    Could not load "libpetscFoam.so"
libpetscFoam.so: cannot open shared object file: No such file or directory
Create mesh for time = 0


PISO: Operating solver in PISO mode

Reading transportProperties

Reading field p

Reading field U

Reading/calculating face flux field phi


Starting time loop

Time = 8e-05

Courant Number mean: 6.72673e-18 max: 4.16334e-14
[INFO] MatrixAssemblyU: 107.257 [ms]
DILUPBiCGStab:  Solving for Ux, Initial residual = 1, Final residual = 0.0305432, No Iterations 5
DILUPBiCGStab:  Solving for Uy:  solution singularity
DILUPBiCGStab:  Solving for Uz:  solution singularity
[INFO] MomentumPredictor: 435.052 [ms]
[INFO] MatrixAssemblyPI: 107.541 [ms]
[INFO] AdjustPhi: 26.133 [ms]
[INFO] ConstrainPressure: 0.018 [ms]
[INFO] MatrixAssemblyPII: 27.862 [ms]
GAMG:  Solving for p, Initial residual = 1, Final residual = 5.7596e-05, No Iterations 139
[INFO] SolveP: 9906.48 [ms]
time step continuity errors : sum local = 7.13557e-10, global = -3.74096e-22, cumulative = -3.74096e-22
[INFO] ContinuityError: 20.475 [ms]
[INFO] CorrectBoundary: 1.669 [ms]
[INFO] PISOStep: 10135.6 [ms]
[INFO] MatrixAssemblyPI: 105.24 [ms]
[INFO] AdjustPhi: 10.013 [ms]
[INFO] ConstrainPressure: 0.006 [ms]
[INFO] MatrixAssemblyPII: 27.298 [ms]
GAMG:  Solving for p, Initial residual = 0.81402, Final residual = 7.30601e-05, No Iterations 112
[INFO] SolveP: 7753.02 [ms]
time step continuity errors : sum local = 1.10039e-09, global = -9.53946e-23, cumulative = -4.6949e-22
[INFO] ContinuityError: 12.8 [ms]
[INFO] CorrectBoundary: 1.929 [ms]
[INFO] PISOStep: 7956.47 [ms]
[INFO] TimeStep: 18651.9 [ms]
ExecutionTime = 20.55 s  ClockTime = 22 s

Time = 0.00016

Courant Number mean: 0.00670422 max: 0.350458
[INFO] MatrixAssemblyU: 87.848 [ms]
DILUPBiCGStab:  Solving for Ux, Initial residual = 0.107232, Final residual = 0.018966, No Iterations 5
DILUPBiCGStab:  Solving for Uy, Initial residual = 0.484935, Final residual = 0.0798691, No Iterations 5
DILUPBiCGStab:  Solving for Uz, Initial residual = 0.977714, Final residual = 0.176896, No Iterations 5
[INFO] MomentumPredictor: 753.059 [ms]
[INFO] MatrixAssemblyPI: 105.893 [ms]
[INFO] AdjustPhi: 10.934 [ms]
[INFO] ConstrainPressure: 0.003 [ms]
[INFO] MatrixAssemblyPII: 24.172 [ms]
GAMG:  Solving for p, Initial residual = 0.905924, Final residual = 9.99738e-05, No Iterations 115
[INFO] SolveP: 7975.5 [ms]
time step continuity errors : sum local = 3.56727e-09, global = -3.62305e-24, cumulative = -4.73113e-22
[INFO] ContinuityError: 10.502 [ms]
[INFO] CorrectBoundary: 1.178 [ms]
[INFO] PISOStep: 8173.98 [ms]
[INFO] MatrixAssemblyPI: 106.437 [ms]
[INFO] AdjustPhi: 6.914 [ms]
[INFO] ConstrainPressure: 0.004 [ms]
[INFO] MatrixAssemblyPII: 26.366 [ms]
GAMG:  Solving for p, Initial residual = 0.855447, Final residual = 9.75432e-05, No Iterations 108
[INFO] SolveP: 7504.64 [ms]
time step continuity errors : sum local = 3.54588e-09, global = 1.11204e-22, cumulative = -3.61909e-22
[INFO] ContinuityError: 12.457 [ms]
[INFO] CorrectBoundary: 1.062 [ms]
[INFO] PISOStep: 7704.61 [ms]
[INFO] TimeStep: 16731.8 [ms]
ExecutionTime = 37.19 s  ClockTime = 39 s

Time = 0.00024

Courant Number mean: 0.010586 max: 0.406458
[INFO] MatrixAssemblyU: 87.996 [ms]
DILUPBiCGStab:  Solving for Ux, Initial residual = 0.0514628, Final residual = 0.00789848, No Iterations 5
DILUPBiCGStab:  Solving for Uy, Initial residual = 0.242614, Final residual = 0.0423681, No Iterations 5
DILUPBiCGStab:  Solving for Uz, Initial residual = 0.857337, Final residual = 0.130403, No Iterations 5
[INFO] MomentumPredictor: 736.105 [ms]
[INFO] MatrixAssemblyPI: 106.898 [ms]
[INFO] AdjustPhi: 9.988 [ms]
[INFO] ConstrainPressure: 0.003 [ms]
[INFO] MatrixAssemblyPII: 24.306 [ms]
GAMG:  Solving for p, Initial residual = 0.939533, Final residual = 9.94801e-05, No Iterations 54
[INFO] SolveP: 3505.72 [ms]
time step continuity errors : sum local = 4.36213e-09, global = 1.679e-22, cumulative = -1.94009e-22
[INFO] ContinuityError: 12.647 [ms]
[INFO] CorrectBoundary: 1.482 [ms]
[INFO] PISOStep: 3705.78 [ms]
[INFO] MatrixAssemblyPI: 103.665 [ms]
[INFO] AdjustPhi: 13.501 [ms]
[INFO] ConstrainPressure: 0.003 [ms]
[INFO] MatrixAssemblyPII: 24.235 [ms]
GAMG:  Solving for p, Initial residual = 0.902784, Final residual = 8.70896e-05, No Iterations 78
[INFO] SolveP: 5306.35 [ms]
time step continuity errors : sum local = 3.79083e-09, global = 1.77404e-24, cumulative = -1.92235e-22
[INFO] ContinuityError: 13.571 [ms]
[INFO] CorrectBoundary: 2.287 [ms]
[INFO] PISOStep: 5506.23 [ms]
[INFO] TimeStep: 10046.8 [ms]
ExecutionTime = 47.18 s  ClockTime = 49 s

Time = 0.00032

Courant Number mean: 0.0130162 max: 0.381777
[INFO] MatrixAssemblyU: 82.045 [ms]
DILUPBiCGStab:  Solving for Ux, Initial residual = 0.0390066, Final residual = 0.00720655, No Iterations 5
DILUPBiCGStab:  Solving for Uy, Initial residual = 0.192852, Final residual = 0.036136, No Iterations 5
DILUPBiCGStab:  Solving for Uz, Initial residual = 0.736851, Final residual = 0.0938377, No Iterations 5
[INFO] MomentumPredictor: 771.87 [ms]
[INFO] MatrixAssemblyPI: 106.449 [ms]
[INFO] AdjustPhi: 11.553 [ms]
[INFO] ConstrainPressure: 0.003 [ms]
[INFO] MatrixAssemblyPII: 24.4 [ms]
GAMG:  Solving for p, Initial residual = 0.936899, Final residual = 6.08714e-05, No Iterations 69
[INFO] SolveP: 4569.26 [ms]
time step continuity errors : sum local = 3.26761e-09, global = -2.24432e-22, cumulative = -4.16667e-22
[INFO] ContinuityError: 13.091 [ms]
[INFO] CorrectBoundary: 2.227 [ms]
[INFO] PISOStep: 4769.6 [ms]
[INFO] MatrixAssemblyPI: 103.173 [ms]
[INFO] AdjustPhi: 8.9 [ms]
[INFO] ConstrainPressure: 0.004 [ms]
[INFO] MatrixAssemblyPII: 25.079 [ms]
GAMG:  Solving for p, Initial residual = 0.874709, Final residual = 9.97429e-05, No Iterations 70
[INFO] SolveP: 4572.52 [ms]
time step continuity errors : sum local = 5.46486e-09, global = -7.88924e-25, cumulative = -4.17456e-22
[INFO] ContinuityError: 8.715 [ms]
[INFO] CorrectBoundary: 0.664 [ms]
[INFO] PISOStep: 4763.77 [ms]
[INFO] TimeStep: 10401.6 [ms]
ExecutionTime = 57.53 s  ClockTime = 59 s

Time = 0.0004

Courant Number mean: 0.0149677 max: 0.439317
[INFO] MatrixAssemblyU: 88.433 [ms]
DILUPBiCGStab:  Solving for Ux, Initial residual = 0.0343583, Final residual = 0.00665052, No Iterations 5
DILUPBiCGStab:  Solving for Uy, Initial residual = 0.16002, Final residual = 0.0294947, No Iterations 5
DILUPBiCGStab:  Solving for Uz, Initial residual = 0.670132, Final residual = 0.0721559, No Iterations 5
[INFO] MomentumPredictor: 763.034 [ms]
[INFO] MatrixAssemblyPI: 109.074 [ms]
[INFO] AdjustPhi: 12.037 [ms]
[INFO] ConstrainPressure: 0.003 [ms]
[INFO] MatrixAssemblyPII: 23.821 [ms]
GAMG:  Solving for p, Initial residual = 0.954302, Final residual = 6.59381e-05, No Iterations 96
[INFO] SolveP: 6443.89 [ms]
time step continuity errors : sum local = 4.04967e-09, global = 8.0738e-23, cumulative = -3.36718e-22
[INFO] ContinuityError: 15.726 [ms]
[INFO] CorrectBoundary: 2.497 [ms]
[INFO] PISOStep: 6649.76 [ms]
[INFO] MatrixAssemblyPI: 104.113 [ms]
[INFO] AdjustPhi: 13.398 [ms]
[INFO] ConstrainPressure: 0.003 [ms]
[INFO] MatrixAssemblyPII: 24.298 [ms]
GAMG:  Solving for p, Initial residual = 0.90966, Final residual = 8.73788e-05, No Iterations 74
[INFO] SolveP: 4989.32 [ms]
time step continuity errors : sum local = 5.33268e-09, global = -1.39886e-22, cumulative = -4.76604e-22
[INFO] ContinuityError: 9.137 [ms]
[INFO] CorrectBoundary: 0.469 [ms]
[INFO] PISOStep: 5190.81 [ms]
[INFO] TimeStep: 12704.6 [ms]
ExecutionTime = 70.16 s  ClockTime = 72 s

Time = 0.00048

Courant Number mean: 0.016513 max: 0.386326
[INFO] MatrixAssemblyU: 88.706 [ms]
DILUPBiCGStab:  Solving for Ux, Initial residual = 0.0312364, Final residual = 0.00621047, No Iterations 5
DILUPBiCGStab:  Solving for Uy, Initial residual = 0.146041, Final residual = 0.0251579, No Iterations 5
DILUPBiCGStab:  Solving for Uz, Initial residual = 0.618939, Final residual = 0.0634152, No Iterations 5
[INFO] MomentumPredictor: 717.812 [ms]
[INFO] MatrixAssemblyPI: 106.093 [ms]
[INFO] AdjustPhi: 13.205 [ms]
[INFO] ConstrainPressure: 0.004 [ms]
[INFO] MatrixAssemblyPII: 24.24 [ms]
GAMG:  Solving for p, Initial residual = 0.950895, Final residual = 9.44397e-05, No Iterations 55
[INFO] SolveP: 3572.66 [ms]
time step continuity errors : sum local = 6.62016e-09, global = -1.85886e-22, cumulative = -6.6249e-22
[INFO] ContinuityError: 12.625 [ms]
[INFO] CorrectBoundary: 1.905 [ms]
[INFO] PISOStep: 3772.76 [ms]
[INFO] MatrixAssemblyPI: 103.808 [ms]
[INFO] AdjustPhi: 8.861 [ms]
[INFO] ConstrainPressure: 0.004 [ms]
[INFO] MatrixAssemblyPII: 24.374 [ms]
GAMG:  Solving for p, Initial residual = 0.885009, Final residual = 9.93628e-05, No Iterations 47
[INFO] SolveP: 3147.48 [ms]
time step continuity errors : sum local = 7.06377e-09, global = -1.46695e-22, cumulative = -8.09185e-22
[INFO] ContinuityError: 11.346 [ms]
[INFO] CorrectBoundary: 1.619 [ms]
[INFO] PISOStep: 3343.05 [ms]
[INFO] TimeStep: 7932.89 [ms]
ExecutionTime = 78.06 s  ClockTime = 80 s

Time = 0.00056

Courant Number mean: 0.0178933 max: 0.475352
[INFO] MatrixAssemblyU: 83.432 [ms]
DILUPBiCGStab:  Solving for Ux, Initial residual = 0.030031, Final residual = 0.00584573, No Iterations 5
DILUPBiCGStab:  Solving for Uy, Initial residual = 0.144016, Final residual = 0.0232166, No Iterations 5
DILUPBiCGStab:  Solving for Uz, Initial residual = 0.609549, Final residual = 0.0573108, No Iterations 5
[INFO] MomentumPredictor: 731.754 [ms]
[INFO] MatrixAssemblyPI: 106.264 [ms]
[INFO] AdjustPhi: 11.169 [ms]
[INFO] ConstrainPressure: 0.003 [ms]
[INFO] MatrixAssemblyPII: 24.29 [ms]
GAMG:  Solving for p, Initial residual = 0.962256, Final residual = 9.75924e-05, No Iterations 103
[INFO] SolveP: 6854.08 [ms]
time step continuity errors : sum local = 7.61816e-09, global = -1.05384e-22, cumulative = -9.14569e-22
[INFO] ContinuityError: 9.195 [ms]
[INFO] CorrectBoundary: 0.902 [ms]
[INFO] PISOStep: 7052.58 [ms]
[INFO] MatrixAssemblyPI: 105.761 [ms]
[INFO] AdjustPhi: 9.155 [ms]
[INFO] ConstrainPressure: 0.003 [ms]
[INFO] MatrixAssemblyPII: 26.393 [ms]
GAMG:  Solving for p, Initial residual = 0.911104, Final residual = 9.55929e-05, No Iterations 69
[INFO] SolveP: 4351.38 [ms]
time step continuity errors : sum local = 7.43565e-09, global = -2.024e-22, cumulative = -1.11697e-21
[INFO] ContinuityError: 12.979 [ms]
[INFO] CorrectBoundary: 0.603 [ms]
[INFO] PISOStep: 4548.93 [ms]
[INFO] TimeStep: 12428.8 [ms]
ExecutionTime = 90.43 s  ClockTime = 92 s

Time = 0.00064

Courant Number mean: 0.0190619 max: 0.390886
[INFO] MatrixAssemblyU: 83.979 [ms]
DILUPBiCGStab:  Solving for Ux, Initial residual = 0.0294406, Final residual = 0.00552093, No Iterations 5
DILUPBiCGStab:  Solving for Uy, Initial residual = 0.137882, Final residual = 0.0208661, No Iterations 5
DILUPBiCGStab:  Solving for Uz, Initial residual = 0.599807, Final residual = 0.0542702, No Iterations 5
[INFO] MomentumPredictor: 715.887 [ms]
[INFO] MatrixAssemblyPI: 105.19 [ms]
[INFO] AdjustPhi: 13.157 [ms]
[INFO] ConstrainPressure: 0.003 [ms]
[INFO] MatrixAssemblyPII: 24.478 [ms]
GAMG:  Solving for p, Initial residual = 0.959331, Final residual = 8.50439e-05, No Iterations 62
[INFO] SolveP: 4035.2 [ms]
time step continuity errors : sum local = 7.46558e-09, global = 7.52848e-23, cumulative = -1.04168e-21
[INFO] ContinuityError: 11.795 [ms]
[INFO] CorrectBoundary: 1.849 [ms]
[INFO] PISOStep: 4237.74 [ms]
[INFO] MatrixAssemblyPI: 104.542 [ms]
[INFO] AdjustPhi: 8.18 [ms]
[INFO] ConstrainPressure: 0.005 [ms]
[INFO] MatrixAssemblyPII: 24.435 [ms]
GAMG:  Solving for p, Initial residual = 0.89063, Final residual = 9.78593e-05, No Iterations 80
[INFO] SolveP: 5177.36 [ms]
time step continuity errors : sum local = 8.71781e-09, global = -4.14772e-22, cumulative = -1.45646e-21
[INFO] ContinuityError: 12.573 [ms]
[INFO] CorrectBoundary: 1.723 [ms]
[INFO] PISOStep: 5371.44 [ms]
[INFO] TimeStep: 10420.3 [ms]
ExecutionTime = 100.78 s  ClockTime = 103 s

Time = 0.00072

Courant Number mean: 0.020184 max: 0.523314
[INFO] MatrixAssemblyU: 83.901 [ms]
DILUPBiCGStab:  Solving for Ux, Initial residual = 0.0292233, Final residual = 0.0051621, No Iterations 5
DILUPBiCGStab:  Solving for Uy, Initial residual = 0.143963, Final residual = 0.0202149, No Iterations 5
DILUPBiCGStab:  Solving for Uz, Initial residual = 0.608827, Final residual = 0.0525931, No Iterations 5
[INFO] MomentumPredictor: 730.182 [ms]
[INFO] MatrixAssemblyPI: 106.61 [ms]
[INFO] AdjustPhi: 10.976 [ms]
[INFO] ConstrainPressure: 0.003 [ms]
[INFO] MatrixAssemblyPII: 24.337 [ms]
GAMG:  Solving for p, Initial residual = 0.967061, Final residual = 9.67782e-05, No Iterations 81
[INFO] SolveP: 5362.11 [ms]
time step continuity errors : sum local = 9.47779e-09, global = -1.93778e-22, cumulative = -1.65023e-21
[INFO] ContinuityError: 12.894 [ms]
[INFO] CorrectBoundary: 2.086 [ms]
[INFO] PISOStep: 5562.52 [ms]
[INFO] MatrixAssemblyPI: 104.02 [ms]
[INFO] AdjustPhi: 10.817 [ms]
[INFO] ConstrainPressure: 0.003 [ms]
[INFO] MatrixAssemblyPII: 24.705 [ms]
GAMG:  Solving for p, Initial residual = 0.911225, Final residual = 9.45655e-05, No Iterations 81
[INFO] SolveP: 5456.39 [ms]
time step continuity errors : sum local = 9.23261e-09, global = 5.0944e-23, cumulative = -1.59929e-21
[INFO] ContinuityError: 11.751 [ms]
[INFO] CorrectBoundary: 0.483 [ms]
[INFO] PISOStep: 5656.27 [ms]
[INFO] TimeStep: 12044.6 [ms]
ExecutionTime = 112.77 s  ClockTime = 115 s

Time = 0.0008

Courant Number mean: 0.0211455 max: 0.400428
[INFO] MatrixAssemblyU: 87.277 [ms]
DILUPBiCGStab:  Solving for Ux, Initial residual = 0.030089, Final residual = 0.0050819, No Iterations 5
DILUPBiCGStab:  Solving for Uy, Initial residual = 0.142037, Final residual = 0.0190605, No Iterations 5
DILUPBiCGStab:  Solving for Uz, Initial residual = 0.609349, Final residual = 0.0499528, No Iterations 5
[INFO] MomentumPredictor: 699.37 [ms]
[INFO] MatrixAssemblyPI: 107.007 [ms]
[INFO] AdjustPhi: 11.185 [ms]
[INFO] ConstrainPressure: 0.002 [ms]
[INFO] MatrixAssemblyPII: 24.302 [ms]
GAMG:  Solving for p, Initial residual = 0.965635, Final residual = 9.75212e-05, No Iterations 97
[INFO] SolveP: 6087.35 [ms]
time step continuity errors : sum local = 1.08325e-08, global = -2.61474e-22, cumulative = -1.86076e-21
[INFO] ContinuityError: 14.556 [ms]
[INFO] CorrectBoundary: 0.905 [ms]
[INFO] PISOStep: 6289.21 [ms]
[INFO] MatrixAssemblyPI: 103.622 [ms]
[INFO] AdjustPhi: 12.019 [ms]
[INFO] ConstrainPressure: 0.004 [ms]
[INFO] MatrixAssemblyPII: 24.424 [ms]
GAMG:  Solving for p, Initial residual = 0.894305, Final residual = 9.38301e-05, No Iterations 66
[INFO] SolveP: 4176.74 [ms]
time step continuity errors : sum local = 1.05602e-08, global = -4.94406e-22, cumulative = -2.35517e-21
[INFO] ContinuityError: 12.328 [ms]
[INFO] CorrectBoundary: 1.087 [ms]
[INFO] PISOStep: 4372.27 [ms]
[INFO] TimeStep: 11458.4 [ms]
ExecutionTime = 124.15 s  ClockTime = 126 s

Time = 0.00088

Courant Number mean: 0.0221173 max: 0.591275
[INFO] MatrixAssemblyU: 81.308 [ms]
DILUPBiCGStab:  Solving for Ux, Initial residual = 0.0306932, Final residual = 0.0047867, No Iterations 5
DILUPBiCGStab:  Solving for Uy, Initial residual = 0.153598, Final residual = 0.0193286, No Iterations 5
DILUPBiCGStab:  Solving for Uz, Initial residual = 0.628217, Final residual = 0.0517319, No Iterations 5
[INFO] MomentumPredictor: 725.675 [ms]
[INFO] MatrixAssemblyPI: 107.578 [ms]
[INFO] AdjustPhi: 9.453 [ms]
[INFO] ConstrainPressure: 0.002 [ms]
[INFO] MatrixAssemblyPII: 24.42 [ms]
GAMG:  Solving for p, Initial residual = 0.972027, Final residual = 8.83301e-05, No Iterations 88
[INFO] SolveP: 5681.78 [ms]
time step continuity errors : sum local = 1.10999e-08, global = -1.50156e-22, cumulative = -2.50533e-21
[INFO] ContinuityError: 13.019 [ms]
[INFO] CorrectBoundary: 1.882 [ms]
[INFO] PISOStep: 5881.65 [ms]
[INFO] MatrixAssemblyPI: 104.603 [ms]
[INFO] AdjustPhi: 10.972 [ms]
[INFO] ConstrainPressure: 0.003 [ms]
[INFO] MatrixAssemblyPII: 24.848 [ms]
GAMG:  Solving for p, Initial residual = 0.910904, Final residual = 9.84623e-05, No Iterations 91
[INFO] SolveP: 5935.61 [ms]
time step continuity errors : sum local = 1.23698e-08, global = -1.40394e-22, cumulative = -2.64572e-21
[INFO] ContinuityError: 12.955 [ms]
[INFO] CorrectBoundary: 2.02 [ms]
[INFO] PISOStep: 6134.04 [ms]
[INFO] TimeStep: 12835.9 [ms]
ExecutionTime = 136.92 s  ClockTime = 139 s

Time = 0.00096

Courant Number mean: 0.022944 max: 0.415983
[INFO] MatrixAssemblyU: 97.41 [ms]
DILUPBiCGStab:  Solving for Ux, Initial residual = 0.0325603, Final residual = 0.00483148, No Iterations 5
DILUPBiCGStab:  Solving for Uy, Initial residual = 0.153206, Final residual = 0.0180522, No Iterations 5
DILUPBiCGStab:  Solving for Uz, Initial residual = 0.632896, Final residual = 0.0494312, No Iterations 5
[INFO] MomentumPredictor: 709.472 [ms]
[INFO] MatrixAssemblyPI: 107.847 [ms]
[INFO] AdjustPhi: 13.136 [ms]
[INFO] ConstrainPressure: 0.006 [ms]
[INFO] MatrixAssemblyPII: 25.529 [ms]
GAMG:  Solving for p, Initial residual = 0.971701, Final residual = 8.36081e-05, No Iterations 91
[INFO] SolveP: 6169.52 [ms]
time step continuity errors : sum local = 1.20349e-08, global = -1.25395e-22, cumulative = -2.77112e-21
[INFO] ContinuityError: 11.553 [ms]
[INFO] CorrectBoundary: 1.08 [ms]
[INFO] PISOStep: 6372.38 [ms]
[INFO] MatrixAssemblyPI: 102.906 [ms]
[INFO] AdjustPhi: 15.029 [ms]
[INFO] ConstrainPressure: 0.003 [ms]
[INFO] MatrixAssemblyPII: 24.735 [ms]
GAMG:  Solving for p, Initial residual = 0.898466, Final residual = 9.81956e-05, No Iterations 92
[INFO] SolveP: 5720.76 [ms]
time step continuity errors : sum local = 1.43111e-08, global = -8.21008e-23, cumulative = -2.85322e-21
[INFO] ContinuityError: 13.745 [ms]
[INFO] CorrectBoundary: 0.52 [ms]
[INFO] PISOStep: 5921.85 [ms]
[INFO] TimeStep: 13112.8 [ms]
ExecutionTime = 149.97 s  ClockTime = 152 s

Time = 0.00104

Courant Number mean: 0.0238189 max: 0.725997
[INFO] MatrixAssemblyU: 83.709 [ms]
DILUPBiCGStab:  Solving for Ux, Initial residual = 0.034033, Final residual = 0.00463222, No Iterations 5
DILUPBiCGStab:  Solving for Uy, Initial residual = 0.169357, Final residual = 0.0195206, No Iterations 5
DILUPBiCGStab:  Solving for Uz, Initial residual = 0.648116, Final residual = 0.0492642, No Iterations 5
[INFO] MomentumPredictor: 727.768 [ms]
[INFO] MatrixAssemblyPI: 106.607 [ms]
[INFO] AdjustPhi: 11.258 [ms]
[INFO] ConstrainPressure: 0.002 [ms]
[INFO] MatrixAssemblyPII: 24.305 [ms]
GAMG:  Solving for p, Initial residual = 0.976457, Final residual = 6.65954e-05, No Iterations 66
[INFO] SolveP: 4225.58 [ms]
time step continuity errors : sum local = 1.09312e-08, global = -7.34404e-22, cumulative = -3.58762e-21
[INFO] ContinuityError: 13.967 [ms]
[INFO] CorrectBoundary: 2.823 [ms]
[INFO] PISOStep: 4431.9 [ms]
[INFO] MatrixAssemblyPI: 103.842 [ms]
[INFO] AdjustPhi: 8.547 [ms]
[INFO] ConstrainPressure: 0.004 [ms]
[INFO] MatrixAssemblyPII: 24.255 [ms]
GAMG:  Solving for p, Initial residual = 0.911747, Final residual = 9.59932e-05, No Iterations 80
[INFO] SolveP: 5279.38 [ms]
time step continuity errors : sum local = 1.57785e-08, global = -1.25219e-22, cumulative = -3.71284e-21
[INFO] ContinuityError: 10.826 [ms]
[INFO] CorrectBoundary: 1.004 [ms]
[INFO] PISOStep: 5475.24 [ms]
[INFO] TimeStep: 10731.1 [ms]
ExecutionTime = 160.64 s  ClockTime = 163 s

Time = 0.00112

Courant Number mean: 0.0245513 max: 0.545939
[INFO] MatrixAssemblyU: 83.895 [ms]
DILUPBiCGStab:  Solving for Ux, Initial residual = 0.0368173, Final residual = 0.00474292, No Iterations 5
DILUPBiCGStab:  Solving for Uy, Initial residual = 0.170344, Final residual = 0.0178022, No Iterations 5
DILUPBiCGStab:  Solving for Uz, Initial residual = 0.657897, Final residual = 0.0498846, No Iterations 5
[INFO] MomentumPredictor: 724.369 [ms]
[INFO] MatrixAssemblyPI: 106.751 [ms]
[INFO] AdjustPhi: 10.321 [ms]
[INFO] ConstrainPressure: 0.003 [ms]
[INFO] MatrixAssemblyPII: 24.47 [ms]
GAMG:  Solving for p, Initial residual = 0.97672, Final residual = 9.1739e-05, No Iterations 65
[INFO] SolveP: 4323.97 [ms]
time step continuity errors : sum local = 1.72469e-08, global = 4.50819e-23, cumulative = -3.66776e-21
[INFO] ContinuityError: 15.165 [ms]
[INFO] CorrectBoundary: 0.733 [ms]
[INFO] PISOStep: 4524.73 [ms]
[INFO] MatrixAssemblyPI: 103.548 [ms]
[INFO] AdjustPhi: 11.633 [ms]
[INFO] ConstrainPressure: 0.004 [ms]
[INFO] MatrixAssemblyPII: 24.373 [ms]
GAMG:  Solving for p, Initial residual = 0.902045, Final residual = 9.87647e-05, No Iterations 85
[INFO] SolveP: 5525.68 [ms]
time step continuity errors : sum local = 1.87931e-08, global = -1.20996e-22, cumulative = -3.78875e-21
[INFO] ContinuityError: 11.726 [ms]
[INFO] CorrectBoundary: 0.654 [ms]
[INFO] PISOStep: 5722.06 [ms]
[INFO] TimeStep: 11067.2 [ms]
ExecutionTime = 171.65 s  ClockTime = 174 s

Time = 0.0012

Courant Number mean: 0.0253607 max: 0.973409
[INFO] MatrixAssemblyU: 89.539 [ms]
DILUPBiCGStab:  Solving for Ux, Initial residual = 0.0392643, Final residual = 0.00466201, No Iterations 5
DILUPBiCGStab:  Solving for Uy, Initial residual = 0.191948, Final residual = 0.020742, No Iterations 5
DILUPBiCGStab:  Solving for Uz, Initial residual = 0.670024, Final residual = 0.0489327, No Iterations 5
[INFO] MomentumPredictor: 727.49 [ms]
[INFO] MatrixAssemblyPI: 106.997 [ms]
[INFO] AdjustPhi: 11.916 [ms]
[INFO] ConstrainPressure: 0.003 [ms]
[INFO] MatrixAssemblyPII: 24.838 [ms]
GAMG:  Solving for p, Initial residual = 0.980125, Final residual = 9.88965e-05, No Iterations 69
[INFO] SolveP: 4385.16 [ms]
time step continuity errors : sum local = 2.13203e-08, global = -3.85288e-22, cumulative = -4.17404e-21
[INFO] ContinuityError: 11.579 [ms]
[INFO] CorrectBoundary: 1.031 [ms]
[INFO] PISOStep: 4583.62 [ms]
[INFO] MatrixAssemblyPI: 103.468 [ms]
[INFO] AdjustPhi: 12.014 [ms]
[INFO] ConstrainPressure: 0.003 [ms]
[INFO] MatrixAssemblyPII: 24.553 [ms]
GAMG:  Solving for p, Initial residual = 0.912117, Final residual = 9.50904e-05, No Iterations 76
[INFO] SolveP: 4755.29 [ms]
time step continuity errors : sum local = 2.05243e-08, global = 1.62245e-22, cumulative = -4.0118e-21
[INFO] ContinuityError: 11.915 [ms]
[INFO] CorrectBoundary: 0.59 [ms]
[INFO] PISOStep: 4952.02 [ms]
[INFO] TimeStep: 10363 [ms]
ExecutionTime = 181.96 s  ClockTime = 184 s

Time = 0.00128

Courant Number mean: 0.0260251 max: 0.847971
[INFO] MatrixAssemblyU: 82.66 [ms]
DILUPBiCGStab:  Solving for Ux, Initial residual = 0.0431287, Final residual = 0.00482602, No Iterations 5
DILUPBiCGStab:  Solving for Uy, Initial residual = 0.203484, Final residual = 0.0217481, No Iterations 5
DILUPBiCGStab:  Solving for Uz, Initial residual = 0.679522, Final residual = 0.0496848, No Iterations 5
[INFO] MomentumPredictor: 718.325 [ms]
[INFO] MatrixAssemblyPI: 106.416 [ms]
[INFO] AdjustPhi: 10.17 [ms]
[INFO] ConstrainPressure: 0.003 [ms]
[INFO] MatrixAssemblyPII: 24.861 [ms]
GAMG:  Solving for p, Initial residual = 0.980791, Final residual = 9.89445e-05, No Iterations 89
[INFO] SolveP: 5709.22 [ms]
time step continuity errors : sum local = 2.44935e-08, global = -6.50575e-22, cumulative = -4.66237e-21
[INFO] ContinuityError: 13.63 [ms]
[INFO] CorrectBoundary: 3.06 [ms]
[INFO] PISOStep: 5912.18 [ms]
[INFO] MatrixAssemblyPI: 103.593 [ms]
[INFO] AdjustPhi: 8.605 [ms]
[INFO] ConstrainPressure: 0.005 [ms]
[INFO] MatrixAssemblyPII: 23.902 [ms]
GAMG:  Solving for p, Initial residual = 0.905045, Final residual = 7.19302e-05, No Iterations 74
[INFO] SolveP: 4756.99 [ms]
time step continuity errors : sum local = 1.7977e-08, global = 2.77622e-23, cumulative = -4.63461e-21
[INFO] ContinuityError: 11.64 [ms]
[INFO] CorrectBoundary: 1.369 [ms]
[INFO] PISOStep: 4953.05 [ms]
[INFO] TimeStep: 11677.2 [ms]
ExecutionTime = 193.56 s  ClockTime = 196 s

Time = 0.00136

Courant Number mean: 0.0267932 max: 1.33569
[INFO] MatrixAssemblyU: 83.195 [ms]
DILUPBiCGStab:  Solving for Ux, Initial residual = 0.0467002, Final residual = 0.00485943, No Iterations 5
DILUPBiCGStab:  Solving for Uy, Initial residual = 0.21793, Final residual = 0.0210244, No Iterations 5
DILUPBiCGStab:  Solving for Uz, Initial residual = 0.691215, Final residual = 0.0502149, No Iterations 5
[INFO] MomentumPredictor: 732.84 [ms]
[INFO] MatrixAssemblyPI: 106.732 [ms]
[INFO] AdjustPhi: 10.521 [ms]
[INFO] ConstrainPressure: 0.003 [ms]
[INFO] MatrixAssemblyPII: 24.27 [ms]
GAMG:  Solving for p, Initial residual = 0.98277, Final residual = 9.91198e-05, No Iterations 83
[INFO] SolveP: 5457.26 [ms]
time step continuity errors : sum local = 2.81394e-08, global = 3.76086e-22, cumulative = -4.25852e-21
[INFO] ContinuityError: 9.747 [ms]
[INFO] CorrectBoundary: 1.011 [ms]
[INFO] PISOStep: 5658.03 [ms]
[INFO] MatrixAssemblyPI: 105.313 [ms]
[INFO] AdjustPhi: 7.812 [ms]
[INFO] ConstrainPressure: 0.003 [ms]
[INFO] MatrixAssemblyPII: 25.796 [ms]
GAMG:  Solving for p, Initial residual = 0.912261, Final residual = 9.62861e-05, No Iterations 75
[INFO] SolveP: 4833.98 [ms]
time step continuity errors : sum local = 2.74141e-08, global = -3.47552e-22, cumulative = -4.60608e-21
[INFO] ContinuityError: 15.032 [ms]
[INFO] CorrectBoundary: 0.983 [ms]
[INFO] PISOStep: 5031.02 [ms]
[INFO] TimeStep: 11517 [ms]
ExecutionTime = 205.03 s  ClockTime = 208 s

Time = 0.00144

Courant Number mean: 0.0274097 max: 1.30059
[INFO] MatrixAssemblyU: 83.93 [ms]
DILUPBiCGStab:  Solving for Ux, Initial residual = 0.0520146, Final residual = 0.00510482, No Iterations 5
DILUPBiCGStab:  Solving for Uy, Initial residual = 0.237399, Final residual = 0.0243336, No Iterations 5
DILUPBiCGStab:  Solving for Uz, Initial residual = 0.697336, Final residual = 0.0495824, No Iterations 5
[INFO] MomentumPredictor: 765.34 [ms]
[INFO] MatrixAssemblyPI: 106.887 [ms]
[INFO] AdjustPhi: 12.056 [ms]
[INFO] ConstrainPressure: 0.003 [ms]
[INFO] MatrixAssemblyPII: 24.223 [ms]
GAMG:  Solving for p, Initial residual = 0.983774, Final residual = 9.77854e-05, No Iterations 75
[INFO] SolveP: 4845.4 [ms]
time step continuity errors : sum local = 3.19557e-08, global = -1.07464e-21, cumulative = -5.68072e-21
[INFO] ContinuityError: 11.256 [ms]
[INFO] CorrectBoundary: 1.409 [ms]
[INFO] PISOStep: 5049.26 [ms]
[INFO] MatrixAssemblyPI: 104.156 [ms]
[INFO] AdjustPhi: 8.489 [ms]
[INFO] ConstrainPressure: 0.005 [ms]
[INFO] MatrixAssemblyPII: 24.032 [ms]
GAMG:  Solving for p, Initial residual = 0.907649, Final residual = 9.48839e-05, No Iterations 86
[INFO] SolveP: 5513.67 [ms]
time step continuity errors : sum local = 3.12729e-08, global = -6.33702e-22, cumulative = -6.31442e-21
[INFO] ContinuityError: 12.278 [ms]
[INFO] CorrectBoundary: 1.941 [ms]
[INFO] PISOStep: 5710.81 [ms]
[INFO] TimeStep: 11623.3 [ms]
ExecutionTime = 216.59 s  ClockTime = 219 s

Time = 0.00152

Courant Number mean: 0.0281553 max: 1.87172
[INFO] MatrixAssemblyU: 82.563 [ms]
DILUPBiCGStab:  Solving for Ux, Initial residual = 0.0570325, Final residual = 0.00525023, No Iterations 5
DILUPBiCGStab:  Solving for Uy, Initial residual = 0.260018, Final residual = 0.0256468, No Iterations 5
DILUPBiCGStab:  Solving for Uz, Initial residual = 0.706365, Final residual = 0.0501889, No Iterations 5
[INFO] MomentumPredictor: 713.364 [ms]
[INFO] MatrixAssemblyPI: 106.505 [ms]
[INFO] AdjustPhi: 8.813 [ms]
[INFO] ConstrainPressure: 0.003 [ms]
[INFO] MatrixAssemblyPII: 24.435 [ms]
GAMG:  Solving for p, Initial residual = 0.984835, Final residual = 9.718e-05, No Iterations 93
[INFO] SolveP: 6051.44 [ms]
time step continuity errors : sum local = 3.65612e-08, global = 6.18905e-22, cumulative = -5.69552e-21
[INFO] ContinuityError: 13.352 [ms]
[INFO] CorrectBoundary: 1.719 [ms]
[INFO] PISOStep: 6251.02 [ms]
[INFO] MatrixAssemblyPI: 104.585 [ms]
[INFO] AdjustPhi: 12.431 [ms]
[INFO] ConstrainPressure: 0.002 [ms]
[INFO] MatrixAssemblyPII: 24.79 [ms]
GAMG:  Solving for p, Initial residual = 0.912934, Final residual = 8.94151e-05, No Iterations 51
[INFO] SolveP: 3273.31 [ms]
time step continuity errors : sum local = 3.38008e-08, global = -2.02769e-22, cumulative = -5.89829e-21
[INFO] ContinuityError: 14.273 [ms]
[INFO] CorrectBoundary: 1.728 [ms]
[INFO] PISOStep: 3472.95 [ms]
[INFO] TimeStep: 10530.4 [ms]
ExecutionTime = 227.06 s  ClockTime = 230 s

Time = 0.0016

Courant Number mean: 0.028745 max: 1.97559
[INFO] MatrixAssemblyU: 83.697 [ms]
DILUPBiCGStab:  Solving for Ux, Initial residual = 0.0643312, Final residual = 0.00561869, No Iterations 5
DILUPBiCGStab:  Solving for Uy, Initial residual = 0.275791, Final residual = 0.0261228, No Iterations 5
DILUPBiCGStab:  Solving for Uz, Initial residual = 0.712364, Final residual = 0.0503399, No Iterations 5
[INFO] MomentumPredictor: 731.427 [ms]
[INFO] MatrixAssemblyPI: 108.693 [ms]
[INFO] AdjustPhi: 10.315 [ms]
[INFO] ConstrainPressure: 0.005 [ms]
[INFO] MatrixAssemblyPII: 25.608 [ms]
GAMG:  Solving for p, Initial residual = 0.985859, Final residual = 9.88043e-05, No Iterations 96
[INFO] SolveP: 6189.19 [ms]
time step continuity errors : sum local = 4.28557e-08, global = -7.98519e-22, cumulative = -6.6968e-21
[INFO] ContinuityError: 10.936 [ms]
[INFO] CorrectBoundary: 0.958 [ms]
[INFO] PISOStep: 6390.02 [ms]
[INFO] MatrixAssemblyPI: 103.629 [ms]
[INFO] AdjustPhi: 10.146 [ms]
[INFO] ConstrainPressure: 0.003 [ms]
[INFO] MatrixAssemblyPII: 24.29 [ms]
GAMG:  Solving for p, Initial residual = 0.909565, Final residual = 9.63015e-05, No Iterations 65
[INFO] SolveP: 4103.45 [ms]
time step continuity errors : sum local = 4.21124e-08, global = -5.17056e-22, cumulative = -7.21386e-21
[INFO] ContinuityError: 11.767 [ms]
[INFO] CorrectBoundary: 0.773 [ms]
[INFO] PISOStep: 4299.89 [ms]
[INFO] TimeStep: 11517.8 [ms]
ExecutionTime = 238.51 s  ClockTime = 241 s

End

Finalising parallel run
