/*---------------------------------------------------------------------------*\
| =========                 |                                                 |
| \\      /  F ield         | OpenFOAM: The Open Source CFD Toolbox           |
|  \\    /   O peration     | Version:  2306                                  |
|   \\  /    A nd           | Website:  www.openfoam.com                      |
|    \\/     M anipulation  |                                                 |
\*---------------------------------------------------------------------------*/
Build  : a6e826bd55-20230630 OPENFOAM=2306 version=v2306
Arch   : "LSB;label=32;scalar=64"
Exec   : simpleFoam -parallel -case /home/greole/data/code/exasim_project/micro_benchmarks/WindsorBody/workspace/bfb03708868627cc954ddf536694887a/case
Date   : Aug 02 2023
Time   : 13:01:00
Host   : nla-gpu2.ianm.kit.edu
PID    : 79898
I/O    : uncollated
Case   : /home/greole/data/code/exasim_project/micro_benchmarks/WindsorBody/workspace/bfb03708868627cc954ddf536694887a/case
nProcs : 32
Hosts  :
(
    (nla-gpu2.ianm.kit.edu 32)
)
Pstream initialized with:
    floatTransfer      : false
    nProcsSimpleSum    : 0
    nonBlockingExchange: 0 (tuning: 0)
    exchange algorithm : -1
    commsType          : nonBlocking
    polling iterations : 0
trapFpe: Floating point exception trapping enabled (FOAM_SIGFPE).
fileModificationChecking : Monitoring run-time modified files using timeStampMaster (fileModificationSkew 5, maxFileModificationPolls 20)
allowSystemOperations : Allowing user-supplied system call operations

// * * * * * * * * * * * * * * * * * * * * * * * * * * * * * * * * * * * * * //
Create time

--> FOAM Warning : 
    From void* Foam::dlLibraryTable::openLibrary(const Foam::fileName&, bool)
    in file db/dynamicLibrary/dlLibraryTable/dlLibraryTable.C at line 188
    Could not load "libpetscFoam.so"
libpetscFoam.so: cannot open shared object file: No such file or directory
Create mesh for time = 0


SIMPLE: convergence criteria
    field p	 tolerance 1e-08
    field U	 tolerance 1e-08
    field k	 tolerance 1e-08
    field omega	 tolerance 1e-08
    field nuTilda	 tolerance 1e-08

Reading field p

Reading field U

Reading/calculating face flux field phi

Selecting incompressible transport model Newtonian
Selecting turbulence model type RAS
Selecting RAS turbulence model SpalartAllmaras
Selecting patchDistMethod meshWave
ft2 term: inactive
RAS
{
    RASModel        SpalartAllmaras;
    turbulence      on;
    printCoeffs     on;
    sigmaNut        0.66666;
    kappa           0.41;
    Cb1             0.1355;
    Cb2             0.622;
    Cw2             0.3;
    Cw3             2;
    Cv1             7.1;
    Cs              0.3;
    ck              0.07000000000000001;
    ft2             false;
    Ct3             1.2;
    Ct4             0.5;
}

No MRF models present

Creating finite volume options from "system/fvOptions"

Selecting finite volume options type velocityDampingConstraint
    Source: velocityDamping
    - selecting all cells
    - selected 6307136 cell(s) with volume 27.82583051608611

Starting time loop

--> FOAM Warning : 
    From bool Foam::functionObjectList::read()
    in file db/functionObjects/functionObjectList/functionObjectList.C at line 1035
    Reading "system/controlDict" at line 2 to 41
    Entry 'lref' is not a dictionary
--> FOAM Warning : 
    From bool Foam::functionObjectList::read()
    in file db/functionObjects/functionObjectList/functionObjectList.C at line 1035
    Reading "system/controlDict" at line 2 to 41
    Entry 'Aref' is not a dictionary
--> FOAM Warning : 
    From bool Foam::functionObjectList::read()
    in file db/functionObjects/functionObjectList/functionObjectList.C at line 1035
    Reading "system/controlDict" at line 2 to 41
    Entry 'yawAngle' is not a dictionary
--> FOAM Warning : 
    From bool Foam::functionObjectList::read()
    in file db/functionObjects/functionObjectList/functionObjectList.C at line 1035
    Reading "system/controlDict" at line 2 to 41
    Entry 'lDomain' is not a dictionary
--> FOAM Warning : 
    From bool Foam::functionObjectList::read()
    in file db/functionObjects/functionObjectList/functionObjectList.C at line 1035
    Reading "system/controlDict" at line 2 to 41
    Entry 'bDomain' is not a dictionary
--> FOAM Warning : 
    From bool Foam::functionObjectList::read()
    in file db/functionObjects/functionObjectList/functionObjectList.C at line 1035
    Reading "system/controlDict" at line 2 to 41
    Entry 'hDomain' is not a dictionary
--> FOAM Warning : 
    From bool Foam::functionObjectList::read()
    in file db/functionObjects/functionObjectList/functionObjectList.C at line 1035
    Reading "system/controlDict" at line 2 to 41
    Entry 'xCenter' is not a dictionary
--> FOAM Warning : 
    From bool Foam::functionObjectList::read()
    in file db/functionObjects/functionObjectList/functionObjectList.C at line 1035
    Reading "system/controlDict" at line 2 to 41
    Entry 'yCenter' is not a dictionary
--> FOAM Warning : 
    From bool Foam::functionObjectList::read()
    in file db/functionObjects/functionObjectList/functionObjectList.C at line 1035
    Reading "system/controlDict" at line 2 to 41
    Entry 'zCenter' is not a dictionary
--> FOAM Warning : 
    From bool Foam::functionObjectList::read()
    in file db/functionObjects/functionObjectList/functionObjectList.C at line 1035
    Reading "system/controlDict" at line 2 to 41
    Entry 'inletPatch' is not a dictionary
--> FOAM Warning : 
    From bool Foam::functionObjectList::read()
    in file db/functionObjects/functionObjectList/functionObjectList.C at line 1035
    Reading "system/controlDict" at line 2 to 41
    Entry 'outletPatch' is not a dictionary
--> FOAM Warning : 
    From bool Foam::functionObjectList::read()
    in file db/functionObjects/functionObjectList/functionObjectList.C at line 1035
    Reading "system/controlDict" at line 2 to 41
    Entry 'wallPatches' is not a dictionary
--> FOAM Warning : 
    From bool Foam::functionObjectList::read()
    in file db/functionObjects/functionObjectList/functionObjectList.C at line 1035
    Reading "system/controlDict" at line 2 to 41
    Entry 'forcesWallPatches' is not a dictionary
--> FOAM Warning : 
    From bool Foam::functionObjectList::read()
    in file db/functionObjects/functionObjectList/functionObjectList.C at line 1035
    Reading "system/controlDict" at line 2 to 41
    Entry 'symmPatches' is not a dictionary
--> FOAM Warning : 
    From bool Foam::functionObjectList::read()
    in file db/functionObjects/functionObjectList/functionObjectList.C at line 1035
    Reading "system/controlDict" at line 2 to 41
    Entry 'Uinf' is not a dictionary
--> FOAM Warning : 
    From bool Foam::functionObjectList::read()
    in file db/functionObjects/functionObjectList/functionObjectList.C at line 1035
    Reading "system/controlDict" at line 2 to 41
    Entry 'UinfMag' is not a dictionary
--> FOAM Warning : 
    From bool Foam::functionObjectList::read()
    in file db/functionObjects/functionObjectList/functionObjectList.C at line 1035
    Reading "system/controlDict" at line 2 to 41
    Entry 'nu' is not a dictionary
--> FOAM Warning : 
    From bool Foam::functionObjectList::read()
    in file db/functionObjects/functionObjectList/functionObjectList.C at line 1035
    Reading "system/controlDict" at line 2 to 41
    Entry 'pref' is not a dictionary
--> FOAM Warning : 
    From bool Foam::functionObjectList::read()
    in file db/functionObjects/functionObjectList/functionObjectList.C at line 1035
    Reading "system/controlDict" at line 2 to 41
    Entry 'viscRatio' is not a dictionary
--> FOAM Warning : 
    From bool Foam::functionObjectList::read()
    in file db/functionObjects/functionObjectList/functionObjectList.C at line 1035
    Reading "system/controlDict" at line 2 to 41
    Entry 'Tu' is not a dictionary
--> FOAM Warning : 
    From bool Foam::functionObjectList::read()
    in file db/functionObjects/functionObjectList/functionObjectList.C at line 1035
    Reading "system/controlDict" at line 2 to 41
    Entry 'LESturbModel' is not a dictionary
--> FOAM Warning : 
    From bool Foam::functionObjectList::read()
    in file db/functionObjects/functionObjectList/functionObjectList.C at line 1035
    Reading "system/controlDict" at line 2 to 41
    Entry 'RASturbModel' is not a dictionary
--> FOAM Warning : 
    From bool Foam::functionObjectList::read()
    in file db/functionObjects/functionObjectList/functionObjectList.C at line 1035
    Reading "system/controlDict" at line 2 to 41
    Entry 'deltaTurb' is not a dictionary
--> FOAM Warning : 
    From bool Foam::functionObjectList::read()
    in file db/functionObjects/functionObjectList/functionObjectList.C at line 1035
    Reading "system/controlDict" at line 2 to 41
    Entry 'dt' is not a dictionary
--> FOAM Warning : 
    From bool Foam::functionObjectList::read()
    in file db/functionObjects/functionObjectList/functionObjectList.C at line 1035
    Reading "system/controlDict" at line 2 to 41
    Entry 'tAvg' is not a dictionary
--> FOAM Warning : 
    From bool Foam::functionObjectList::read()
    in file db/functionObjects/functionObjectList/functionObjectList.C at line 1035
    Reading "system/controlDict" at line 2 to 41
    Entry 'tEnd' is not a dictionary
--> FOAM Warning : 
    From bool Foam::functionObjectList::read()
    in file db/functionObjects/functionObjectList/functionObjectList.C at line 1035
    Reading "system/controlDict" at line 2 to 41
    Entry 'writeInterval_' is not a dictionary
--> FOAM Warning : 
    From bool Foam::functionObjectList::read()
    in file db/functionObjects/functionObjectList/functionObjectList.C at line 1035
    Reading "system/controlDict" at line 2 to 41
    Entry 'nCores' is not a dictionary
--> FOAM Warning : 
    From bool Foam::functionObjectList::read()
    in file db/functionObjects/functionObjectList/functionObjectList.C at line 1035
    Reading "system/controlDict" at line 2 to 41
    Entry 'interpScheme' is not a dictionary
--> FOAM Warning : 
    From bool Foam::functionObjectList::read()
    in file db/functionObjects/functionObjectList/functionObjectList.C at line 1035
    Reading "system/controlDict" at line 2 to 41
    Entry 'probeField' is not a dictionary
wallShearStress wallShearStress:
    processing wall patches: 
        Windsor_Body
        CFDWT_Floor
        Windsor_Pins
        Windsor_Base

pressure calc_cp:
    Operating mode: staticCoeff
    Not including hydrostatic effects

forceCoeffs forceCoeffsAll:
    rho: rhoInf
    Freestream density (rhoInf) set to 1
    Not including porosity effects
    magUInf: 40
    lRef   : 0.6375
    Aref   : 0.1124
    rhoInf : 1
    Selecting all coefficients
    - Drag force: Cd
    - Drag force front: Cd(f)
    - Drag force rear: Cd(r)
    - Lift force: Cl
    - Lift force front: Cl(f)
    - Lift force rear: Cl(r)
    - Pitch moment: CmPitch
    - Roll moment: CmRoll
    - Yaw moment: CmYaw
    - Side force: Cs
    - Side force front: Cs(f)
    - Side force rear: Cs(r)


forceCoeffs dragCoeffBase:
    rho: rhoInf
    Freestream density (rhoInf) set to 1
    Not including porosity effects
    magUInf: 40
    lRef   : 0.6375
    Aref   : 0.1124
    rhoInf : 1
    Selecting coefficients:
    - Drag force: Cd


Time = 1

velocityDampingConstraint velocityDamping damped 0 (0%) of cells, with max limit 300
[INFO] MatrixAssemblyU: 481.879 [ms]
smoothSolver:  Solving for Ux, Initial residual = 0.9999999999990106, Final residual = 0.08740394529067033, No Iterations 15
smoothSolver:  Solving for Uy, Initial residual = 1, Final residual = 0.08989488380680079, No Iterations 31
smoothSolver:  Solving for Uz, Initial residual = 1, Final residual = 0.03329925895369379, No Iterations 2
[INFO] MomentumPredictor: 465.798 [ms]
[INFO] MatrixAssemblyPI: 77.206 [ms]
[INFO] MatrixAssemblyPII: 36.76 [ms]
DICPCG:  Solving for p, Initial residual = 1, Final residual = 0.009749285767434109, No Iterations 425
[INFO] SolveP: 3877.073 [ms]
time step continuity errors : sum local = 0.003577049829701706, global = 7.534585503544534e-05, cumulative = 7.534585503544534e-05
[INFO] postSolveP: 20.335 [ms]
smoothSolver:  Solving for nuTilda, Initial residual = 0.9999999997998184, Final residual = 0.06433580958130709, No Iterations 3
[INFO] TimeStep: 5236.376 [ms]
ExecutionTime = 10.83 s  ClockTime = 11 s

--> FOAM Warning : 
    From virtual bool Foam::functionObjects::fieldSelection::checkSelection()
    in file functionObjects/fieldSelections/fieldSelection/fieldSelection.C at line 166
    Field k not found
--> FOAM Warning : 
    From virtual bool Foam::functionObjects::fieldSelection::checkSelection()
    in file functionObjects/fieldSelections/fieldSelection/fieldSelection.C at line 166
    Field gammaInt not found
--> FOAM Warning : 
    From virtual bool Foam::functionObjects::fieldSelection::checkSelection()
    in file functionObjects/fieldSelections/fieldSelection/fieldSelection.C at line 166
    Field omega not found
--> FOAM Warning : 
    From virtual bool Foam::functionObjects::fieldSelection::checkSelection()
    in file functionObjects/fieldSelections/fieldSelection/fieldSelection.C at line 166
    Field ReThetat not found
--> FOAM Warning : 
    From virtual bool Foam::functionObjects::fieldSelection::checkSelection()
    in file functionObjects/fieldSelections/fieldSelection/fieldSelection.C at line 166
    Field epsilon not found
--> FOAM Warning : 
    From virtual bool Foam::functionObjects::solverFieldSelection::updateSelection()
    in file functionObjects/fieldSelections/solverFieldSelection/solverFieldSelection.C at line 85
    Valid solver fields are: 3(U nuTilda p)Time = 2

velocityDampingConstraint velocityDamping damped 0 (0%) of cells, with max limit 300
[INFO] MatrixAssemblyU: 436.916 [ms]
smoothSolver:  Solving for Ux, Initial residual = 0.2130906179045103, Final residual = 0.01845808819999515, No Iterations 13
smoothSolver:  Solving for Uy, Initial residual = 0.3553547731385733, Final residual = 0.03329117680147465, No Iterations 13
smoothSolver:  Solving for Uz, Initial residual = 0.3288001178472367, Final residual = 0.02816824976420721, No Iterations 13
[INFO] MomentumPredictor: 388.675 [ms]
[INFO] MatrixAssemblyPI: 78.01000000000001 [ms]
[INFO] MatrixAssemblyPII: 37.556 [ms]
DICPCG:  Solving for p, Initial residual = 0.2096327300653091, Final residual = 0.002084678436868317, No Iterations 344
[INFO] SolveP: 3138.782 [ms]
time step continuity errors : sum local = 0.04272054975264422, global = 0.001802074471321704, cumulative = 0.001877420326357149
[INFO] postSolveP: 19.353 [ms]
smoothSolver:  Solving for nuTilda, Initial residual = 0.4059940290938809, Final residual = 0.02535193482977088, No Iterations 1
[INFO] TimeStep: 4366.266 [ms]
ExecutionTime = 15.52 s  ClockTime = 16 s

Time = 3

velocityDampingConstraint velocityDamping damped 830 (0.01%) of cells, with max limit 300
[INFO] MatrixAssemblyU: 463.2 [ms]
smoothSolver:  Solving for Ux, Initial residual = 0.1246658301955598, Final residual = 0.01183553331674694, No Iterations 9
smoothSolver:  Solving for Uy, Initial residual = 0.2061270722729064, Final residual = 0.01989178089245765, No Iterations 10
smoothSolver:  Solving for Uz, Initial residual = 0.2187511597248952, Final residual = 0.02147907241186109, No Iterations 9
[INFO] MomentumPredictor: 295.99 [ms]
[INFO] MatrixAssemblyPI: 77.512 [ms]
[INFO] MatrixAssemblyPII: 36.676 [ms]
DICPCG:  Solving for p, Initial residual = 0.1188400747175631, Final residual = 0.001172051790987037, No Iterations 191
[INFO] SolveP: 1755.816 [ms]
time step continuity errors : sum local = 0.01308011668276143, global = -0.0008511119806581159, cumulative = 0.001026308345699033
[INFO] postSolveP: 18.742 [ms]
smoothSolver:  Solving for nuTilda, Initial residual = 0.209018876135266, Final residual = 0.01314864534529519, No Iterations 2
[INFO] TimeStep: 2918.416 [ms]
ExecutionTime = 18.78 s  ClockTime = 19 s

Time = 4

velocityDampingConstraint velocityDamping damped 0 (0%) of cells, with max limit 300
[INFO] MatrixAssemblyU: 454.85 [ms]
smoothSolver:  Solving for Ux, Initial residual = 0.05383525296273198, Final residual = 0.004980688554890281, No Iterations 11
smoothSolver:  Solving for Uy, Initial residual = 0.1233241427607359, Final residual = 0.01114914625254688, No Iterations 11
smoothSolver:  Solving for Uz, Initial residual = 0.1338115192198305, Final residual = 0.01313562517924266, No Iterations 10
[INFO] MomentumPredictor: 331.445 [ms]
[INFO] MatrixAssemblyPI: 77.35299999999999 [ms]
[INFO] MatrixAssemblyPII: 36.585 [ms]
DICPCG:  Solving for p, Initial residual = 0.1355684539537133, Final residual = 0.001332964998928427, No Iterations 106
[INFO] SolveP: 983.503 [ms]
time step continuity errors : sum local = 0.01321241508078591, global = -0.001926411671288216, cumulative = -0.0009001033255891828
[INFO] postSolveP: 20.39 [ms]
smoothSolver:  Solving for nuTilda, Initial residual = 0.1247324756290799, Final residual = 0.01051235604248893, No Iterations 2
[INFO] TimeStep: 2177.447 [ms]
ExecutionTime = 21.31 s  ClockTime = 21 s

Time = 5

velocityDampingConstraint velocityDamping damped 114 (0%) of cells, with max limit 300
[INFO] MatrixAssemblyU: 450.927 [ms]
smoothSolver:  Solving for Ux, Initial residual = 0.0435373627981552, Final residual = 0.004215907225569385, No Iterations 10
smoothSolver:  Solving for Uy, Initial residual = 0.09790646299573753, Final residual = 0.009405749350006135, No Iterations 11
smoothSolver:  Solving for Uz, Initial residual = 0.1136475636077343, Final residual = 0.009595879352457164, No Iterations 11
[INFO] MomentumPredictor: 331.136 [ms]
[INFO] MatrixAssemblyPI: 77.708 [ms]
[INFO] MatrixAssemblyPII: 37.098 [ms]
DICPCG:  Solving for p, Initial residual = 0.09753450191896222, Final residual = 0.0009710026808185116, No Iterations 119
[INFO] SolveP: 1094.674 [ms]
time step continuity errors : sum local = 0.00765225157439862, global = -0.002154091637442989, cumulative = -0.003054194963032172
[INFO] postSolveP: 19.114 [ms]
smoothSolver:  Solving for nuTilda, Initial residual = 0.07084838171694711, Final residual = 0.00431045377920143, No Iterations 3
[INFO] TimeStep: 2289.19 [ms]
ExecutionTime = 23.93 s  ClockTime = 24 s

Time = 6

velocityDampingConstraint velocityDamping damped 0 (0%) of cells, with max limit 300
[INFO] MatrixAssemblyU: 449.295 [ms]
smoothSolver:  Solving for Ux, Initial residual = 0.02984893645133384, Final residual = 0.002672003506718148, No Iterations 12
smoothSolver:  Solving for Uy, Initial residual = 0.0746558209614894, Final residual = 0.006915150337855016, No Iterations 12
smoothSolver:  Solving for Uz, Initial residual = 0.08032587464863743, Final residual = 0.006848701744474241, No Iterations 12
[INFO] MomentumPredictor: 364.435 [ms]
[INFO] MatrixAssemblyPI: 77.66200000000001 [ms]
[INFO] MatrixAssemblyPII: 36.781 [ms]
DICPCG:  Solving for p, Initial residual = 0.08913421292438733, Final residual = 0.0008896094006468435, No Iterations 271
[INFO] SolveP: 2478.256 [ms]
time step continuity errors : sum local = 0.007079807900293921, global = -0.0004997607949611892, cumulative = -0.003553955757993361
[INFO] postSolveP: 19.207 [ms]
smoothSolver:  Solving for nuTilda, Initial residual = 0.06414398583727024, Final residual = 0.003006098379308881, No Iterations 3
[INFO] TimeStep: 3703.879 [ms]
ExecutionTime = 27.96 s  ClockTime = 28 s

Time = 7

velocityDampingConstraint velocityDamping damped 17 (0%) of cells, with max limit 300
[INFO] MatrixAssemblyU: 451.278 [ms]
smoothSolver:  Solving for Ux, Initial residual = 0.02748670900334606, Final residual = 0.002441501985952225, No Iterations 12
smoothSolver:  Solving for Uy, Initial residual = 0.0683993117355325, Final residual = 0.006438444611502293, No Iterations 12
smoothSolver:  Solving for Uz, Initial residual = 0.07153810317676285, Final residual = 0.006203396632403498, No Iterations 12
[INFO] MomentumPredictor: 363.639 [ms]
[INFO] MatrixAssemblyPI: 77.426 [ms]
[INFO] MatrixAssemblyPII: 36.625 [ms]
DICPCG:  Solving for p, Initial residual = 0.08623750763671771, Final residual = 0.000843874925296711, No Iterations 120
[INFO] SolveP: 1107.19 [ms]
time step continuity errors : sum local = 0.005943278987801781, global = 0.001037794733918165, cumulative = -0.002516161024075196
[INFO] postSolveP: 20.318 [ms]
smoothSolver:  Solving for nuTilda, Initial residual = 0.04909303783046817, Final residual = 0.003229829629651841, No Iterations 3
[INFO] TimeStep: 2335.757 [ms]
ExecutionTime = 30.63 s  ClockTime = 31 s

Time = 8

velocityDampingConstraint velocityDamping damped 0 (0%) of cells, with max limit 300
[INFO] MatrixAssemblyU: 448.274 [ms]
smoothSolver:  Solving for Ux, Initial residual = 0.02325683933161201, Final residual = 0.002145770108153597, No Iterations 12
smoothSolver:  Solving for Uy, Initial residual = 0.06025521824778178, Final residual = 0.00591127339562931, No Iterations 12
smoothSolver:  Solving for Uz, Initial residual = 0.0620540238777525, Final residual = 0.005587406627209112, No Iterations 12
[INFO] MomentumPredictor: 363.688 [ms]
[INFO] MatrixAssemblyPI: 77.477 [ms]
[INFO] MatrixAssemblyPII: 36.95 [ms]
DICPCG:  Solving for p, Initial residual = 0.07864831332457985, Final residual = 0.0007795113359824355, No Iterations 251
[INFO] SolveP: 2293.414 [ms]
time step continuity errors : sum local = 0.005536909043540936, global = -9.569659769174489e-05, cumulative = -0.002611857621766941
[INFO] postSolveP: 19.122 [ms]
smoothSolver:  Solving for nuTilda, Initial residual = 0.0652438197765364, Final residual = 0.005864135123648492, No Iterations 2
[INFO] TimeStep: 3507.033 [ms]
ExecutionTime = 34.46 s  ClockTime = 35 s

Time = 9

velocityDampingConstraint velocityDamping damped 0 (0%) of cells, with max limit 300
[INFO] MatrixAssemblyU: 448.552 [ms]
smoothSolver:  Solving for Ux, Initial residual = 0.02046670714242237, Final residual = 0.001905663657790793, No Iterations 12
smoothSolver:  Solving for Uy, Initial residual = 0.05491750747475143, Final residual = 0.005463124644053814, No Iterations 12
smoothSolver:  Solving for Uz, Initial residual = 0.05537108362476248, Final residual = 0.005150330772689504, No Iterations 12
[INFO] MomentumPredictor: 363.532 [ms]
[INFO] MatrixAssemblyPI: 77.871 [ms]
[INFO] MatrixAssemblyPII: 36.652 [ms]
DICPCG:  Solving for p, Initial residual = 0.06523587212472672, Final residual = 0.0006327931809031405, No Iterations 114
[INFO] SolveP: 1045.315 [ms]
time step continuity errors : sum local = 0.00501766263959127, global = -0.0003047584533036088, cumulative = -0.00291661607507055
[INFO] postSolveP: 18.865 [ms]
smoothSolver:  Solving for nuTilda, Initial residual = 0.04411679185051871, Final residual = 0.003201735481132153, No Iterations 3
[INFO] TimeStep: 2266.771 [ms]
ExecutionTime = 37.06 s  ClockTime = 37 s

Time = 10

velocityDampingConstraint velocityDamping damped 0 (0%) of cells, with max limit 300
[INFO] MatrixAssemblyU: 445.757 [ms]
smoothSolver:  Solving for Ux, Initial residual = 0.01828448233598716, Final residual = 0.001726238875877624, No Iterations 12
smoothSolver:  Solving for Uy, Initial residual = 0.05034249698039776, Final residual = 0.005017484452775041, No Iterations 12
smoothSolver:  Solving for Uz, Initial residual = 0.05045723070679849, Final residual = 0.004752278225837701, No Iterations 12
[INFO] MomentumPredictor: 365.161 [ms]
[INFO] MatrixAssemblyPI: 77.919 [ms]
[INFO] MatrixAssemblyPII: 37.037 [ms]
DICPCG:  Solving for p, Initial residual = 0.06048829497778616, Final residual = 0.000598123413251033, No Iterations 109
[INFO] SolveP: 999.099 [ms]
time step continuity errors : sum local = 0.004627489747988336, global = -0.0003308269698471015, cumulative = -0.003247443044917651
[INFO] postSolveP: 19.186 [ms]
smoothSolver:  Solving for nuTilda, Initial residual = 0.06961804106263998, Final residual = 0.005490769833808847, No Iterations 2
[INFO] TimeStep: 2210.401 [ms]
ExecutionTime = 39.6 s  ClockTime = 40 s

Time = 11

velocityDampingConstraint velocityDamping damped 0 (0%) of cells, with max limit 300
[INFO] MatrixAssemblyU: 445.324 [ms]
smoothSolver:  Solving for Ux, Initial residual = 0.01663652224371136, Final residual = 0.001603049487773925, No Iterations 12
smoothSolver:  Solving for Uy, Initial residual = 0.04746381143688504, Final residual = 0.004703810866578721, No Iterations 12
smoothSolver:  Solving for Uz, Initial residual = 0.04720527245569897, Final residual = 0.004495087337696355, No Iterations 12
[INFO] MomentumPredictor: 364.017 [ms]
[INFO] MatrixAssemblyPI: 81.006 [ms]
[INFO] MatrixAssemblyPII: 37.338 [ms]
DICPCG:  Solving for p, Initial residual = 0.05659294726265623, Final residual = 0.0005546285598002228, No Iterations 114
[INFO] SolveP: 1048.363 [ms]
time step continuity errors : sum local = 0.004271711066941038, global = -0.0002496014514091292, cumulative = -0.00349704449632678
[INFO] postSolveP: 20.185 [ms]
smoothSolver:  Solving for nuTilda, Initial residual = 0.03913186637714298, Final residual = 0.003027118012004447, No Iterations 3
[INFO] TimeStep: 2270.843 [ms]
ExecutionTime = 42.21 s  ClockTime = 42 s

Time = 12

velocityDampingConstraint velocityDamping damped 0 (0%) of cells, with max limit 300
[INFO] MatrixAssemblyU: 444.354 [ms]
smoothSolver:  Solving for Ux, Initial residual = 0.01553418368720296, Final residual = 0.001519306642575814, No Iterations 12
smoothSolver:  Solving for Uy, Initial residual = 0.04538791296974264, Final residual = 0.004468762326774949, No Iterations 12
smoothSolver:  Solving for Uz, Initial residual = 0.04477042140556617, Final residual = 0.004286008294695757, No Iterations 12
[INFO] MomentumPredictor: 365.036 [ms]
[INFO] MatrixAssemblyPI: 77.953 [ms]
[INFO] MatrixAssemblyPII: 36.859 [ms]
DICPCG:  Solving for p, Initial residual = 0.05294445496061548, Final residual = 0.0005283882599105358, No Iterations 110
[INFO] SolveP: 1010.689 [ms]
time step continuity errors : sum local = 0.004071225314469623, global = -0.0001447334886250194, cumulative = -0.0036417779849518
[INFO] postSolveP: 19.319 [ms]
smoothSolver:  Solving for nuTilda, Initial residual = 0.06547213588223709, Final residual = 0.005103295276046711, No Iterations 2
[INFO] TimeStep: 2220.972 [ms]
ExecutionTime = 44.76 s  ClockTime = 45 s

Time = 13

velocityDampingConstraint velocityDamping damped 0 (0%) of cells, with max limit 300
[INFO] MatrixAssemblyU: 444.523 [ms]
smoothSolver:  Solving for Ux, Initial residual = 0.01453023133493102, Final residual = 0.001445730256527082, No Iterations 12
smoothSolver:  Solving for Uy, Initial residual = 0.04347648941104823, Final residual = 0.004274245745400833, No Iterations 12
smoothSolver:  Solving for Uz, Initial residual = 0.04297637257606102, Final residual = 0.004140049331175087, No Iterations 12
[INFO] MomentumPredictor: 364.633 [ms]
[INFO] MatrixAssemblyPI: 78.991 [ms]
[INFO] MatrixAssemblyPII: 36.871 [ms]
DICPCG:  Solving for p, Initial residual = 0.04989680174828089, Final residual = 0.0004931358982242574, No Iterations 103
[INFO] SolveP: 948.222 [ms]
time step continuity errors : sum local = 0.003803795868808507, global = 7.099832111709037e-07, cumulative = -0.003641068001740629
[INFO] postSolveP: 18.846 [ms]
smoothSolver:  Solving for nuTilda, Initial residual = 0.03472282138818249, Final residual = 0.002830090302912032, No Iterations 3
[INFO] TimeStep: 2166.569 [ms]
ExecutionTime = 47.27 s  ClockTime = 47 s

Time = 14

velocityDampingConstraint velocityDamping damped 0 (0%) of cells, with max limit 300
[INFO] MatrixAssemblyU: 446.307 [ms]
smoothSolver:  Solving for Ux, Initial residual = 0.01371849505484087, Final residual = 0.001175266148769863, No Iterations 13
smoothSolver:  Solving for Uy, Initial residual = 0.04168643860384115, Final residual = 0.004109355434652242, No Iterations 12
smoothSolver:  Solving for Uz, Initial residual = 0.04199332054071252, Final residual = 0.004065060531836043, No Iterations 12
[INFO] MomentumPredictor: 371.433 [ms]
[INFO] MatrixAssemblyPI: 77.84999999999999 [ms]
[INFO] MatrixAssemblyPII: 37.095 [ms]
DICPCG:  Solving for p, Initial residual = 0.04763023827542223, Final residual = 0.0004758330179385855, No Iterations 96
[INFO] SolveP: 881.273 [ms]
time step continuity errors : sum local = 0.003678063957559701, global = 0.0001852478170194157, cumulative = -0.003455820184721213
[INFO] postSolveP: 18.941 [ms]
smoothSolver:  Solving for nuTilda, Initial residual = 0.05813091429471826, Final residual = 0.00480301251941539, No Iterations 2
[INFO] TimeStep: 2100.2 [ms]
ExecutionTime = 49.7 s  ClockTime = 50 s

Time = 15

velocityDampingConstraint velocityDamping damped 0 (0%) of cells, with max limit 300
[INFO] MatrixAssemblyU: 444.412 [ms]
smoothSolver:  Solving for Ux, Initial residual = 0.01285767587623964, Final residual = 0.001113054060879509, No Iterations 13
smoothSolver:  Solving for Uy, Initial residual = 0.04031275335950152, Final residual = 0.004001051035276829, No Iterations 12
smoothSolver:  Solving for Uz, Initial residual = 0.0416566516919088, Final residual = 0.004056347745595353, No Iterations 12
[INFO] MomentumPredictor: 373.093 [ms]
[INFO] MatrixAssemblyPI: 78.557 [ms]
[INFO] MatrixAssemblyPII: 36.702 [ms]
DICPCG:  Solving for p, Initial residual = 0.04610129694283018, Final residual = 0.0004565866983007619, No Iterations 98
[INFO] SolveP: 905.01 [ms]
time step continuity errors : sum local = 0.003540093539836357, global = 0.0003599112242385569, cumulative = -0.003095908960482656
[INFO] postSolveP: 19.021 [ms]
smoothSolver:  Solving for nuTilda, Initial residual = 0.03137667178220332, Final residual = 0.002663036118265515, No Iterations 3
[INFO] TimeStep: 2131.967 [ms]
ExecutionTime = 52.17 s  ClockTime = 52 s

Time = 16

velocityDampingConstraint velocityDamping damped 0 (0%) of cells, with max limit 300
[INFO] MatrixAssemblyU: 444.775 [ms]
smoothSolver:  Solving for Ux, Initial residual = 0.0122189028512603, Final residual = 0.001057585197996366, No Iterations 13
smoothSolver:  Solving for Uy, Initial residual = 0.03941355992558565, Final residual = 0.003929276662395313, No Iterations 12
smoothSolver:  Solving for Uz, Initial residual = 0.04158192276107856, Final residual = 0.004058704341058807, No Iterations 12
[INFO] MomentumPredictor: 371.968 [ms]
[INFO] MatrixAssemblyPI: 79.2 [ms]
[INFO] MatrixAssemblyPII: 36.682 [ms]
DICPCG:  Solving for p, Initial residual = 0.04475611003551833, Final residual = 0.0004448255615943136, No Iterations 98
[INFO] SolveP: 904.556 [ms]
time step continuity errors : sum local = 0.003462020912748719, global = 0.0005329663076696378, cumulative = -0.002562942652813018
[INFO] postSolveP: 19.698 [ms]
smoothSolver:  Solving for nuTilda, Initial residual = 0.05168623270084089, Final residual = 0.004554317495850426, No Iterations 2
[INFO] TimeStep: 2123.534 [ms]
ExecutionTime = 54.63 s  ClockTime = 55 s

Time = 17

velocityDampingConstraint velocityDamping damped 0 (0%) of cells, with max limit 300
[INFO] MatrixAssemblyU: 443.6 [ms]
smoothSolver:  Solving for Ux, Initial residual = 0.01159644762151724, Final residual = 0.001009172911518221, No Iterations 13
smoothSolver:  Solving for Uy, Initial residual = 0.03887738512848765, Final residual = 0.003316308075672601, No Iterations 13
smoothSolver:  Solving for Uz, Initial residual = 0.04154153045051328, Final residual = 0.004063350020723821, No Iterations 12
[INFO] MomentumPredictor: 383.439 [ms]
[INFO] MatrixAssemblyPI: 77.809 [ms]
[INFO] MatrixAssemblyPII: 37.206 [ms]
DICPCG:  Solving for p, Initial residual = 0.04428815573991662, Final residual = 0.0004392017874718591, No Iterations 104
[INFO] SolveP: 960.072 [ms]
time step continuity errors : sum local = 0.003442227474385255, global = 0.0006695747814177567, cumulative = -0.001893367871395262
[INFO] postSolveP: 19.544 [ms]
smoothSolver:  Solving for nuTilda, Initial residual = 0.02892776632634607, Final residual = 0.002514192835966102, No Iterations 3
[INFO] TimeStep: 2200.805 [ms]
ExecutionTime = 57.16 s  ClockTime = 57 s

Time = 18

velocityDampingConstraint velocityDamping damped 0 (0%) of cells, with max limit 300
[INFO] MatrixAssemblyU: 444.827 [ms]
smoothSolver:  Solving for Ux, Initial residual = 0.01125160894508751, Final residual = 0.0009697433833177131, No Iterations 13
smoothSolver:  Solving for Uy, Initial residual = 0.03861615539828753, Final residual = 0.003303784390710295, No Iterations 13
smoothSolver:  Solving for Uz, Initial residual = 0.04178760936818153, Final residual = 0.00407311283305883, No Iterations 12
[INFO] MomentumPredictor: 379.109 [ms]
[INFO] MatrixAssemblyPI: 78.181 [ms]
[INFO] MatrixAssemblyPII: 36.863 [ms]
DICPCG:  Solving for p, Initial residual = 0.04403910071465156, Final residual = 0.0004304282558256652, No Iterations 121
[INFO] SolveP: 1110.145 [ms]
time step continuity errors : sum local = 0.003401113991091912, global = 0.0007611070802183246, cumulative = -0.001132260791176937
[INFO] postSolveP: 19.194 [ms]
smoothSolver:  Solving for nuTilda, Initial residual = 0.04635418603880872, Final residual = 0.004304414089047377, No Iterations 2
[INFO] TimeStep: 2335.959 [ms]
ExecutionTime = 59.83 s  ClockTime = 60 s

Time = 19

velocityDampingConstraint velocityDamping damped 0 (0%) of cells, with max limit 300
[INFO] MatrixAssemblyU: 445.387 [ms]
smoothSolver:  Solving for Ux, Initial residual = 0.01088536710277135, Final residual = 0.0009386657888047268, No Iterations 13
smoothSolver:  Solving for Uy, Initial residual = 0.03890373893776437, Final residual = 0.00333112054700208, No Iterations 13
smoothSolver:  Solving for Uz, Initial residual = 0.04248611299436494, Final residual = 0.004112859195424716, No Iterations 12
[INFO] MomentumPredictor: 381.733 [ms]
[INFO] MatrixAssemblyPI: 78.55200000000001 [ms]
[INFO] MatrixAssemblyPII: 36.671 [ms]
DICPCG:  Solving for p, Initial residual = 0.04405612844846812, Final residual = 0.0004386291789534549, No Iterations 125
[INFO] SolveP: 1149.778 [ms]
time step continuity errors : sum local = 0.003504431117394241, global = 0.0007625800680330761, cumulative = -0.0003696807231438609
[INFO] postSolveP: 19.23 [ms]
smoothSolver:  Solving for nuTilda, Initial residual = 0.02699803939272434, Final residual = 0.002365648262563142, No Iterations 3
[INFO] TimeStep: 2387.534 [ms]
ExecutionTime = 62.55 s  ClockTime = 63 s

Time = 20

velocityDampingConstraint velocityDamping damped 0 (0%) of cells, with max limit 300
[INFO] MatrixAssemblyU: 446.468 [ms]
smoothSolver:  Solving for Ux, Initial residual = 0.0106950880977768, Final residual = 0.0009181974778971967, No Iterations 13
smoothSolver:  Solving for Uy, Initial residual = 0.03933954646014547, Final residual = 0.003351658612090379, No Iterations 13
smoothSolver:  Solving for Uz, Initial residual = 0.04309703315739487, Final residual = 0.004148387822201644, No Iterations 12
[INFO] MomentumPredictor: 381.65 [ms]
[INFO] MatrixAssemblyPI: 78.43300000000001 [ms]
[INFO] MatrixAssemblyPII: 37.092 [ms]
DICPCG:  Solving for p, Initial residual = 0.04388527384317405, Final residual = 0.0004387534049621868, No Iterations 123
[INFO] SolveP: 1131.15 [ms]
time step continuity errors : sum local = 0.003547598683624397, global = 0.0007395491174351964, cumulative = 0.0003698683942913355
[INFO] postSolveP: 19.158 [ms]
smoothSolver:  Solving for nuTilda, Initial residual = 0.0418184881278524, Final residual = 0.004051253136500491, No Iterations 2
[INFO] TimeStep: 2361.682 [ms]
ExecutionTime = 65.23999999999999 s  ClockTime = 66 s

Time = 21

velocityDampingConstraint velocityDamping damped 0 (0%) of cells, with max limit 300
[INFO] MatrixAssemblyU: 446.387 [ms]
smoothSolver:  Solving for Ux, Initial residual = 0.01048641600526597, Final residual = 0.0009044082501856644, No Iterations 13
smoothSolver:  Solving for Uy, Initial residual = 0.03988417748181365, Final residual = 0.003962258539579768, No Iterations 12
smoothSolver:  Solving for Uz, Initial residual = 0.04344885362731778, Final residual = 0.004149893143084453, No Iterations 12
[INFO] MomentumPredictor: 372.319 [ms]
[INFO] MatrixAssemblyPI: 78.655 [ms]
[INFO] MatrixAssemblyPII: 36.903 [ms]
DICPCG:  Solving for p, Initial residual = 0.0438602430856022, Final residual = 0.0004381475408807113, No Iterations 126
[INFO] SolveP: 1158.942 [ms]
time step continuity errors : sum local = 0.003588343878368257, global = 0.000717772966116798, cumulative = 0.001087641360408133
[INFO] postSolveP: 18.876 [ms]
smoothSolver:  Solving for nuTilda, Initial residual = 0.02520645246053602, Final residual = 0.002220840598939006, No Iterations 3
[INFO] TimeStep: 2387.782 [ms]
ExecutionTime = 67.95999999999999 s  ClockTime = 68 s

Time = 22

velocityDampingConstraint velocityDamping damped 0 (0%) of cells, with max limit 300
[INFO] MatrixAssemblyU: 446.248 [ms]
smoothSolver:  Solving for Ux, Initial residual = 0.01045425560483441, Final residual = 0.0008923616733806322, No Iterations 13
smoothSolver:  Solving for Uy, Initial residual = 0.04056104349681464, Final residual = 0.003995528664472916, No Iterations 12
smoothSolver:  Solving for Uz, Initial residual = 0.04333207282009644, Final residual = 0.004105010753959191, No Iterations 12
[INFO] MomentumPredictor: 371.55 [ms]
[INFO] MatrixAssemblyPI: 78.44499999999999 [ms]
[INFO] MatrixAssemblyPII: 36.66 [ms]
DICPCG:  Solving for p, Initial residual = 0.04357815100530469, Final residual = 0.0004350778341428719, No Iterations 125
[INFO] SolveP: 1150.746 [ms]
time step continuity errors : sum local = 0.003612768740794773, global = 0.0006874278061888011, cumulative = 0.001775069166596934
[INFO] postSolveP: 18.981 [ms]
smoothSolver:  Solving for nuTilda, Initial residual = 0.03796658393931519, Final residual = 0.002020602824006817, No Iterations 3
[INFO] TimeStep: 2377.435 [ms]
ExecutionTime = 70.67 s  ClockTime = 71 s

Time = 23

velocityDampingConstraint velocityDamping damped 0 (0%) of cells, with max limit 300
[INFO] MatrixAssemblyU: 446.375 [ms]
smoothSolver:  Solving for Ux, Initial residual = 0.01032888534501393, Final residual = 0.0008830210578869935, No Iterations 13
smoothSolver:  Solving for Uy, Initial residual = 0.04118298574699571, Final residual = 0.004005802084543137, No Iterations 12
smoothSolver:  Solving for Uz, Initial residual = 0.04291270193905656, Final residual = 0.004023550091679865, No Iterations 12
[INFO] MomentumPredictor: 372.556 [ms]
[INFO] MatrixAssemblyPI: 77.491 [ms]
[INFO] MatrixAssemblyPII: 37.048 [ms]
DICPCG:  Solving for p, Initial residual = 0.04324190357605272, Final residual = 0.0004272553463632734, No Iterations 125
[INFO] SolveP: 1151.146 [ms]
time step continuity errors : sum local = 0.003604022488408152, global = 0.000687569905206355, cumulative = 0.002462639071803289
[INFO] postSolveP: 19.216 [ms]
smoothSolver:  Solving for nuTilda, Initial residual = 0.02339164797171701, Final residual = 0.002089596472580471, No Iterations 3
[INFO] TimeStep: 2380.027 [ms]
ExecutionTime = 73.39 s  ClockTime = 74 s

Time = 24

velocityDampingConstraint velocityDamping damped 0 (0%) of cells, with max limit 300
[INFO] MatrixAssemblyU: 448.166 [ms]
smoothSolver:  Solving for Ux, Initial residual = 0.01034931494200945, Final residual = 0.001029961712732068, No Iterations 12
smoothSolver:  Solving for Uy, Initial residual = 0.0418872592016203, Final residual = 0.004047022352487667, No Iterations 12
smoothSolver:  Solving for Uz, Initial residual = 0.04248954669074712, Final residual = 0.003948148866162232, No Iterations 12
[INFO] MomentumPredictor: 363.528 [ms]
[INFO] MatrixAssemblyPI: 77.33799999999999 [ms]
[INFO] MatrixAssemblyPII: 36.92 [ms]
DICPCG:  Solving for p, Initial residual = 0.04281830739123175, Final residual = 0.0004177255059952199, No Iterations 124
[INFO] SolveP: 1143.614 [ms]
time step continuity errors : sum local = 0.003581465705548053, global = 0.0006952947062588211, cumulative = 0.00315793377806211
[INFO] postSolveP: 19.289 [ms]
smoothSolver:  Solving for nuTilda, Initial residual = 0.0344695631954172, Final residual = 0.001911194750437694, No Iterations 3
[INFO] TimeStep: 2368.988 [ms]
ExecutionTime = 76.09 s  ClockTime = 76 s

Time = 25

velocityDampingConstraint velocityDamping damped 0 (0%) of cells, with max limit 300
[INFO] MatrixAssemblyU: 446.393 [ms]
smoothSolver:  Solving for Ux, Initial residual = 0.01029125776708082, Final residual = 0.0008812763788039238, No Iterations 13
smoothSolver:  Solving for Uy, Initial residual = 0.0426986767365742, Final residual = 0.00413968231797599, No Iterations 12
smoothSolver:  Solving for Uz, Initial residual = 0.04221496135508064, Final residual = 0.003910159456902048, No Iterations 12
[INFO] MomentumPredictor: 371.499 [ms]
[INFO] MatrixAssemblyPI: 78.125 [ms]
[INFO] MatrixAssemblyPII: 36.917 [ms]
DICPCG:  Solving for p, Initial residual = 0.04218808838318538, Final residual = 0.0004143559421424023, No Iterations 127
[INFO] SolveP: 1177.615 [ms]
time step continuity errors : sum local = 0.003609753073717065, global = 0.0007118797398538252, cumulative = 0.003869813517915936
[INFO] postSolveP: 18.948 [ms]
smoothSolver:  Solving for nuTilda, Initial residual = 0.02153553946850871, Final residual = 0.001958093261966002, No Iterations 3
[INFO] TimeStep: 2405.58 [ms]
ExecutionTime = 78.81999999999999 s  ClockTime = 79 s

Time = 26

velocityDampingConstraint velocityDamping damped 0 (0%) of cells, with max limit 300
[INFO] MatrixAssemblyU: 446.218 [ms]
smoothSolver:  Solving for Ux, Initial residual = 0.01036889401093111, Final residual = 0.001034342798141405, No Iterations 12
smoothSolver:  Solving for Uy, Initial residual = 0.04366450898041135, Final residual = 0.004298292300800912, No Iterations 12
smoothSolver:  Solving for Uz, Initial residual = 0.04224837623540426, Final residual = 0.003953461559851029, No Iterations 12
[INFO] MomentumPredictor: 362.585 [ms]
[INFO] MatrixAssemblyPI: 77.901 [ms]
[INFO] MatrixAssemblyPII: 36.86 [ms]
DICPCG:  Solving for p, Initial residual = 0.04180887371640448, Final residual = 0.0004154126231946756, No Iterations 124
[INFO] SolveP: 1136.8 [ms]
time step continuity errors : sum local = 0.003672175294755049, global = 0.0007089332587971052, cumulative = 0.004578746776713041
[INFO] postSolveP: 19.064 [ms]
smoothSolver:  Solving for nuTilda, Initial residual = 0.03150173225349454, Final residual = 0.001805296182306957, No Iterations 3
[INFO] TimeStep: 2355.619 [ms]
ExecutionTime = 81.52 s  ClockTime = 82 s

Time = 27

velocityDampingConstraint velocityDamping damped 0 (0%) of cells, with max limit 300
[INFO] MatrixAssemblyU: 448.02 [ms]
smoothSolver:  Solving for Ux, Initial residual = 0.01037903210109653, Final residual = 0.001036781938382084, No Iterations 12
smoothSolver:  Solving for Uy, Initial residual = 0.04476284671191885, Final residual = 0.004470566867561776, No Iterations 12
smoothSolver:  Solving for Uz, Initial residual = 0.04255626889303538, Final residual = 0.004031340216025445, No Iterations 12
[INFO] MomentumPredictor: 365.764 [ms]
[INFO] MatrixAssemblyPI: 77.639 [ms]
[INFO] MatrixAssemblyPII: 36.99 [ms]
DICPCG:  Solving for p, Initial residual = 0.04208017324502279, Final residual = 0.0004204355090348494, No Iterations 116
[INFO] SolveP: 1065.708 [ms]
time step continuity errors : sum local = 0.003765111241481853, global = 0.0007355033022155588, cumulative = 0.005314250078928599
[INFO] postSolveP: 19.009 [ms]
smoothSolver:  Solving for nuTilda, Initial residual = 0.01984447452990829, Final residual = 0.001833017202231035, No Iterations 3
[INFO] TimeStep: 2289.632 [ms]
ExecutionTime = 84.13 s  ClockTime = 85 s

Time = 28

velocityDampingConstraint velocityDamping damped 0 (0%) of cells, with max limit 300
[INFO] MatrixAssemblyU: 446.714 [ms]
smoothSolver:  Solving for Ux, Initial residual = 0.01052638486555708, Final residual = 0.001041243949585564, No Iterations 12
smoothSolver:  Solving for Uy, Initial residual = 0.04614555487784444, Final residual = 0.003966917244733003, No Iterations 13
smoothSolver:  Solving for Uz, Initial residual = 0.04355753425581298, Final residual = 0.004143634505890555, No Iterations 12
[INFO] MomentumPredictor: 371.294 [ms]
[INFO] MatrixAssemblyPI: 78.142 [ms]
[INFO] MatrixAssemblyPII: 37.193 [ms]
DICPCG:  Solving for p, Initial residual = 0.04300858569435812, Final residual = 0.0004254240393180247, No Iterations 117
[INFO] SolveP: 1074.037 [ms]
time step continuity errors : sum local = 0.003858366673790802, global = 0.0007498907999929839, cumulative = 0.006064140878921583
[INFO] postSolveP: 19.051 [ms]
smoothSolver:  Solving for nuTilda, Initial residual = 0.02896971242303191, Final residual = 0.001698858271341506, No Iterations 3
[INFO] TimeStep: 2302.694 [ms]
ExecutionTime = 86.77 s  ClockTime = 87 s

Time = 29

velocityDampingConstraint velocityDamping damped 0 (0%) of cells, with max limit 300
[INFO] MatrixAssemblyU: 446.54 [ms]
smoothSolver:  Solving for Ux, Initial residual = 0.01056542298229937, Final residual = 0.001043761678486303, No Iterations 12
smoothSolver:  Solving for Uy, Initial residual = 0.04774645920166221, Final residual = 0.004107236875776225, No Iterations 13
smoothSolver:  Solving for Uz, Initial residual = 0.04498950607010156, Final residual = 0.004287511505579601, No Iterations 12
[INFO] MomentumPredictor: 373.471 [ms]
[INFO] MatrixAssemblyPI: 77.66 [ms]
[INFO] MatrixAssemblyPII: 36.996 [ms]
DICPCG:  Solving for p, Initial residual = 0.04384056279749716, Final residual = 0.0004325990108366918, No Iterations 101
[INFO] SolveP: 930.819 [ms]
time step continuity errors : sum local = 0.003980406173852143, global = 0.000785761490878494, cumulative = 0.006849902369800077
[INFO] postSolveP: 18.995 [ms]
smoothSolver:  Solving for nuTilda, Initial residual = 0.01835837347785765, Final residual = 0.001710040407021183, No Iterations 3
[INFO] TimeStep: 2161.41 [ms]
ExecutionTime = 89.26000000000001 s  ClockTime = 90 s

Time = 30

velocityDampingConstraint velocityDamping damped 0 (0%) of cells, with max limit 300
[INFO] MatrixAssemblyU: 446.727 [ms]
smoothSolver:  Solving for Ux, Initial residual = 0.01075935078471744, Final residual = 0.001049583010465206, No Iterations 12
smoothSolver:  Solving for Uy, Initial residual = 0.04979708984784465, Final residual = 0.004253576380253807, No Iterations 13
smoothSolver:  Solving for Uz, Initial residual = 0.04659611888203144, Final residual = 0.004423213604411945, No Iterations 12
[INFO] MomentumPredictor: 371.282 [ms]
[INFO] MatrixAssemblyPI: 77.574 [ms]
[INFO] MatrixAssemblyPII: 36.721 [ms]
DICPCG:  Solving for p, Initial residual = 0.0448251118134939, Final residual = 0.000446215691910064, No Iterations 101
[INFO] SolveP: 931.921 [ms]
time step continuity errors : sum local = 0.004155997758596013, global = 0.0007871888142376371, cumulative = 0.007637091184037714
[INFO] postSolveP: 19.024 [ms]
smoothSolver:  Solving for nuTilda, Initial residual = 0.02678363989152181, Final residual = 0.001592120924712805, No Iterations 3
[INFO] TimeStep: 2160.364 [ms]
ExecutionTime = 91.76000000000001 s  ClockTime = 92 s

Time = 31

velocityDampingConstraint velocityDamping damped 0 (0%) of cells, with max limit 300
[INFO] MatrixAssemblyU: 446.386 [ms]
smoothSolver:  Solving for Ux, Initial residual = 0.01082863641521771, Final residual = 0.001057124937752203, No Iterations 12
smoothSolver:  Solving for Uy, Initial residual = 0.05214427354345945, Final residual = 0.005211094888167939, No Iterations 12
smoothSolver:  Solving for Uz, Initial residual = 0.0482953435116828, Final residual = 0.004587399334790125, No Iterations 12
[INFO] MomentumPredictor: 364.916 [ms]
[INFO] MatrixAssemblyPI: 77.946 [ms]
[INFO] MatrixAssemblyPII: 36.592 [ms]
DICPCG:  Solving for p, Initial residual = 0.046049794223584, Final residual = 0.0004595104242729232, No Iterations 97
[INFO] SolveP: 893.677 [ms]
time step continuity errors : sum local = 0.004337308753159158, global = 0.0007917110766244846, cumulative = 0.008428802260662199
[INFO] postSolveP: 18.99 [ms]
smoothSolver:  Solving for nuTilda, Initial residual = 0.01709249429213277, Final residual = 0.001592020627457024, No Iterations 3
[INFO] TimeStep: 2116.386 [ms]
ExecutionTime = 94.20999999999999 s  ClockTime = 95 s

Time = 32

velocityDampingConstraint velocityDamping damped 0 (0%) of cells, with max limit 300
[INFO] MatrixAssemblyU: 447.199 [ms]
smoothSolver:  Solving for Ux, Initial residual = 0.01094843857804726, Final residual = 0.001064950732453378, No Iterations 12
smoothSolver:  Solving for Uy, Initial residual = 0.05451728380658558, Final residual = 0.005450952874350517, No Iterations 12
smoothSolver:  Solving for Uz, Initial residual = 0.04982656260626362, Final residual = 0.004786971654197669, No Iterations 12
[INFO] MomentumPredictor: 363.534 [ms]
[INFO] MatrixAssemblyPI: 79.12 [ms]
[INFO] MatrixAssemblyPII: 37.088 [ms]
DICPCG:  Solving for p, Initial residual = 0.04755793416848882, Final residual = 0.000468232455886528, No Iterations 97
[INFO] SolveP: 892.9450000000001 [ms]
time step continuity errors : sum local = 0.00447243416114963, global = 0.0007329664156720344, cumulative = 0.009161768676334234
[INFO] postSolveP: 19.95 [ms]
smoothSolver:  Solving for nuTilda, Initial residual = 0.02488122535138322, Final residual = 0.001490216011058717, No Iterations 3
[INFO] TimeStep: 2117.386 [ms]
ExecutionTime = 96.66 s  ClockTime = 97 s

Time = 33

velocityDampingConstraint velocityDamping damped 0 (0%) of cells, with max limit 300
[INFO] MatrixAssemblyU: 447.561 [ms]
smoothSolver:  Solving for Ux, Initial residual = 0.01090656802063878, Final residual = 0.001071994293074287, No Iterations 12
smoothSolver:  Solving for Uy, Initial residual = 0.05682308018827563, Final residual = 0.005677952124839243, No Iterations 12
smoothSolver:  Solving for Uz, Initial residual = 0.05195624840669445, Final residual = 0.005054715112306078, No Iterations 12
[INFO] MomentumPredictor: 364.593 [ms]
[INFO] MatrixAssemblyPI: 77.672 [ms]
[INFO] MatrixAssemblyPII: 37.041 [ms]
DICPCG:  Solving for p, Initial residual = 0.04941331662790121, Final residual = 0.0004880213397864229, No Iterations 95
[INFO] SolveP: 876.9 [ms]
time step continuity errors : sum local = 0.004713291115722455, global = 0.000647583653896378, cumulative = 0.009809352330230612
[INFO] postSolveP: 19.212 [ms]
smoothSolver:  Solving for nuTilda, Initial residual = 0.01599697517401258, Final residual = 0.001482835189758199, No Iterations 3
[INFO] TimeStep: 2098.494 [ms]
ExecutionTime = 99.09999999999999 s  ClockTime = 100 s

Time = 34

velocityDampingConstraint velocityDamping damped 0 (0%) of cells, with max limit 300
[INFO] MatrixAssemblyU: 445.927 [ms]
smoothSolver:  Solving for Ux, Initial residual = 0.01102501270356067, Final residual = 0.0010828542253725, No Iterations 12
smoothSolver:  Solving for Uy, Initial residual = 0.05929864377985348, Final residual = 0.00592759857488146, No Iterations 12
smoothSolver:  Solving for Uz, Initial residual = 0.05441676419986388, Final residual = 0.005350546311803784, No Iterations 12
[INFO] MomentumPredictor: 363.332 [ms]
[INFO] MatrixAssemblyPI: 77.533 [ms]
[INFO] MatrixAssemblyPII: 36.967 [ms]
DICPCG:  Solving for p, Initial residual = 0.05162257397983776, Final residual = 0.0004936670749319694, No Iterations 94
[INFO] SolveP: 870.708 [ms]
time step continuity errors : sum local = 0.004815539461457866, global = 0.0005363018236897817, cumulative = 0.01034565415392039
[INFO] postSolveP: 19.159 [ms]
smoothSolver:  Solving for nuTilda, Initial residual = 0.02323694037564855, Final residual = 0.001396181770211317, No Iterations 3
[INFO] TimeStep: 2089.755 [ms]
ExecutionTime = 101.51 s  ClockTime = 102 s

Time = 35

velocityDampingConstraint velocityDamping damped 0 (0%) of cells, with max limit 300
[INFO] MatrixAssemblyU: 446.015 [ms]
smoothSolver:  Solving for Ux, Initial residual = 0.01108201925179292, Final residual = 0.001095864254057997, No Iterations 12
smoothSolver:  Solving for Uy, Initial residual = 0.0618029585096548, Final residual = 0.005290314292310395, No Iterations 13
smoothSolver:  Solving for Uz, Initial residual = 0.05692440446706135, Final residual = 0.005625820424265977, No Iterations 12
[INFO] MomentumPredictor: 372.419 [ms]
[INFO] MatrixAssemblyPI: 78.04600000000001 [ms]
[INFO] MatrixAssemblyPII: 36.873 [ms]
DICPCG:  Solving for p, Initial residual = 0.05353307725557342, Final residual = 0.0005294169183873547, No Iterations 93
[INFO] SolveP: 857.989 [ms]
time step continuity errors : sum local = 0.005218128059178878, global = 0.0004114516725782777, cumulative = 0.01075710582649867
[INFO] postSolveP: 18.832 [ms]
smoothSolver:  Solving for nuTilda, Initial residual = 0.01502972963359018, Final residual = 0.001385249105409395, No Iterations 3
[INFO] TimeStep: 2086.492 [ms]
ExecutionTime = 103.94 s  ClockTime = 105 s

Time = 36

velocityDampingConstraint velocityDamping damped 0 (0%) of cells, with max limit 300
[INFO] MatrixAssemblyU: 447.513 [ms]
smoothSolver:  Solving for Ux, Initial residual = 0.01135595444856645, Final residual = 0.001117428174158951, No Iterations 12
smoothSolver:  Solving for Uy, Initial residual = 0.06375770832901487, Final residual = 0.005543788907885469, No Iterations 13
smoothSolver:  Solving for Uz, Initial residual = 0.05957902335023258, Final residual = 0.005892106169123893, No Iterations 12
[INFO] MomentumPredictor: 371.097 [ms]
[INFO] MatrixAssemblyPI: 77.624 [ms]
[INFO] MatrixAssemblyPII: 36.859 [ms]
DICPCG:  Solving for p, Initial residual = 0.0549701424597275, Final residual = 0.000544847780683177, No Iterations 93
[INFO] SolveP: 862.821 [ms]
time step continuity errors : sum local = 0.005411682334105163, global = 0.0002643591450195068, cumulative = 0.01102146497151818
[INFO] postSolveP: 18.932 [ms]
smoothSolver:  Solving for nuTilda, Initial residual = 0.02182499447096427, Final residual = 0.001310355987257817, No Iterations 3
[INFO] TimeStep: 2091.296 [ms]
ExecutionTime = 106.36 s  ClockTime = 107 s

Time = 37

velocityDampingConstraint velocityDamping damped 0 (0%) of cells, with max limit 300
[INFO] MatrixAssemblyU: 445.566 [ms]
smoothSolver:  Solving for Ux, Initial residual = 0.01157469302432487, Final residual = 0.001143501320270465, No Iterations 12
smoothSolver:  Solving for Uy, Initial residual = 0.06557176596474473, Final residual = 0.005785080021021173, No Iterations 13
smoothSolver:  Solving for Uz, Initial residual = 0.06221330823255159, Final residual = 0.006117687103574934, No Iterations 12
[INFO] MomentumPredictor: 370.602 [ms]
[INFO] MatrixAssemblyPI: 78.242 [ms]
[INFO] MatrixAssemblyPII: 37.148 [ms]
DICPCG:  Solving for p, Initial residual = 0.05667373096258924, Final residual = 0.0005565609034017979, No Iterations 92
[INFO] SolveP: 846.535 [ms]
time step continuity errors : sum local = 0.005567770888762143, global = 0.0001133221211437782, cumulative = 0.01113478709266196
[INFO] postSolveP: 18.831 [ms]
smoothSolver:  Solving for nuTilda, Initial residual = 0.01422272436824531, Final residual = 0.001298211631182344, No Iterations 3
[INFO] TimeStep: 2073.477 [ms]
ExecutionTime = 108.77 s  ClockTime = 109 s

Time = 38

velocityDampingConstraint velocityDamping damped 0 (0%) of cells, with max limit 300
[INFO] MatrixAssemblyU: 445.777 [ms]
smoothSolver:  Solving for Ux, Initial residual = 0.01189480698757307, Final residual = 0.001166925162611056, No Iterations 12
smoothSolver:  Solving for Uy, Initial residual = 0.06715371337452573, Final residual = 0.00597224002733822, No Iterations 13
smoothSolver:  Solving for Uz, Initial residual = 0.06498315432105697, Final residual = 0.006318744940363522, No Iterations 12
[INFO] MomentumPredictor: 371.415 [ms]
[INFO] MatrixAssemblyPI: 78.42700000000001 [ms]
[INFO] MatrixAssemblyPII: 37.251 [ms]
DICPCG:  Solving for p, Initial residual = 0.05746304775112174, Final residual = 0.0005582350425400572, No Iterations 91
[INFO] SolveP: 841.605 [ms]
time step continuity errors : sum local = 0.005614657006542266, global = -4.781909154284408e-05, cumulative = 0.01108696800111911
[INFO] postSolveP: 18.891 [ms]
smoothSolver:  Solving for nuTilda, Initial residual = 0.02059930819810905, Final residual = 0.001234423876008709, No Iterations 3
[INFO] TimeStep: 2069.181 [ms]
ExecutionTime = 111.18 s  ClockTime = 112 s

Time = 39

velocityDampingConstraint velocityDamping damped 0 (0%) of cells, with max limit 300
[INFO] MatrixAssemblyU: 447.595 [ms]
smoothSolver:  Solving for Ux, Initial residual = 0.01199323585369114, Final residual = 0.001180005371543025, No Iterations 12
smoothSolver:  Solving for Uy, Initial residual = 0.06872237620243574, Final residual = 0.006148709255094881, No Iterations 13
smoothSolver:  Solving for Uz, Initial residual = 0.06751352913604995, Final residual = 0.00654051207966328, No Iterations 12
[INFO] MomentumPredictor: 372.324 [ms]
[INFO] MatrixAssemblyPI: 77.312 [ms]
[INFO] MatrixAssemblyPII: 36.881 [ms]
DICPCG:  Solving for p, Initial residual = 0.05752230095788059, Final residual = 0.0005670117376378206, No Iterations 90
[INFO] SolveP: 833.205 [ms]
time step continuity errors : sum local = 0.005723344542604047, global = -0.0002130726561006333, cumulative = 0.01087389534501848
[INFO] postSolveP: 18.971 [ms]
smoothSolver:  Solving for nuTilda, Initial residual = 0.01356165266600414, Final residual = 0.001223913378604381, No Iterations 3
[INFO] TimeStep: 2063.435 [ms]
ExecutionTime = 113.57 s  ClockTime = 114 s

Time = 40

velocityDampingConstraint velocityDamping damped 0 (0%) of cells, with max limit 300
[INFO] MatrixAssemblyU: 446.123 [ms]
smoothSolver:  Solving for Ux, Initial residual = 0.01213996877096632, Final residual = 0.001190990011286455, No Iterations 12
smoothSolver:  Solving for Uy, Initial residual = 0.07000061102404738, Final residual = 0.006321415478970024, No Iterations 13
smoothSolver:  Solving for Uz, Initial residual = 0.06938183516561178, Final residual = 0.006780988703101333, No Iterations 12
[INFO] MomentumPredictor: 372.236 [ms]
[INFO] MatrixAssemblyPI: 77.70999999999999 [ms]
[INFO] MatrixAssemblyPII: 36.789 [ms]
DICPCG:  Solving for p, Initial residual = 0.05774824664424678, Final residual = 0.0005759277735077614, No Iterations 88
[INFO] SolveP: 813.129 [ms]
time step continuity errors : sum local = 0.005822639292133152, global = -0.0003720586443137472, cumulative = 0.01050183670070473
[INFO] postSolveP: 19.114 [ms]
smoothSolver:  Solving for nuTilda, Initial residual = 0.01949300315181219, Final residual = 0.001170574882898527, No Iterations 3
[INFO] TimeStep: 2040.407 [ms]
ExecutionTime = 115.96 s  ClockTime = 117 s

Time = 41

velocityDampingConstraint velocityDamping damped 0 (0%) of cells, with max limit 300
[INFO] MatrixAssemblyU: 447.084 [ms]
smoothSolver:  Solving for Ux, Initial residual = 0.01208043455867323, Final residual = 0.001200892301665176, No Iterations 12
smoothSolver:  Solving for Uy, Initial residual = 0.07065745653607962, Final residual = 0.006492132706582075, No Iterations 13
smoothSolver:  Solving for Uz, Initial residual = 0.07061517673166223, Final residual = 0.006991477806461565, No Iterations 12
[INFO] MomentumPredictor: 373.023 [ms]
[INFO] MatrixAssemblyPI: 79.929 [ms]
[INFO] MatrixAssemblyPII: 37.179 [ms]
DICPCG:  Solving for p, Initial residual = 0.05743459119341029, Final residual = 0.0005648308534814294, No Iterations 87
[INFO] SolveP: 804.078 [ms]
time step continuity errors : sum local = 0.005711451629897292, global = -0.0005069420406371212, cumulative = 0.009994894660067611
[INFO] postSolveP: 19.287 [ms]
smoothSolver:  Solving for nuTilda, Initial residual = 0.01296199514485457, Final residual = 0.001162076584866907, No Iterations 3
[INFO] TimeStep: 2035.951 [ms]
ExecutionTime = 118.33 s  ClockTime = 119 s

Time = 42

velocityDampingConstraint velocityDamping damped 0 (0%) of cells, with max limit 300
[INFO] MatrixAssemblyU: 446.038 [ms]
smoothSolver:  Solving for Ux, Initial residual = 0.0121226500793348, Final residual = 0.00120892361456606, No Iterations 12
smoothSolver:  Solving for Uy, Initial residual = 0.07121018586786736, Final residual = 0.006687420531686401, No Iterations 13
smoothSolver:  Solving for Uz, Initial residual = 0.07129219442778893, Final residual = 0.006110159766779806, No Iterations 13
[INFO] MomentumPredictor: 380.391 [ms]
[INFO] MatrixAssemblyPI: 77.678 [ms]
[INFO] MatrixAssemblyPII: 36.542 [ms]
DICPCG:  Solving for p, Initial residual = 0.05716066241199656, Final residual = 0.0005715641862535741, No Iterations 84
[INFO] SolveP: 780.1 [ms]
time step continuity errors : sum local = 0.00577224145644295, global = -0.0006477088799933785, cumulative = 0.009347185780074232
[INFO] postSolveP: 18.888 [ms]
smoothSolver:  Solving for nuTilda, Initial residual = 0.01848297893296079, Final residual = 0.001115413221206712, No Iterations 3
[INFO] TimeStep: 2019.196 [ms]
ExecutionTime = 120.68 s  ClockTime = 121 s

Time = 43

velocityDampingConstraint velocityDamping damped 0 (0%) of cells, with max limit 300
[INFO] MatrixAssemblyU: 448.078 [ms]
smoothSolver:  Solving for Ux, Initial residual = 0.01203114847026994, Final residual = 0.001035513355294876, No Iterations 13
smoothSolver:  Solving for Uy, Initial residual = 0.07194156116345124, Final residual = 0.006913160548799768, No Iterations 13
smoothSolver:  Solving for Uz, Initial residual = 0.07096435350447927, Final residual = 0.00620078904450055, No Iterations 13
[INFO] MomentumPredictor: 388.987 [ms]
[INFO] MatrixAssemblyPI: 77.57299999999999 [ms]
[INFO] MatrixAssemblyPII: 36.842 [ms]
DICPCG:  Solving for p, Initial residual = 0.05649931785789342, Final residual = 0.0005543386539311933, No Iterations 88
[INFO] SolveP: 814.093 [ms]
time step continuity errors : sum local = 0.005579772444704078, global = -0.0008013155671205967, cumulative = 0.008545870212953634
[INFO] postSolveP: 19.299 [ms]
smoothSolver:  Solving for nuTilda, Initial residual = 0.01237412891304073, Final residual = 0.001105977650258835, No Iterations 3
[INFO] TimeStep: 2061.463 [ms]
ExecutionTime = 123.08 s  ClockTime = 124 s

Time = 44

velocityDampingConstraint velocityDamping damped 0 (0%) of cells, with max limit 300
[INFO] MatrixAssemblyU: 446.545 [ms]
smoothSolver:  Solving for Ux, Initial residual = 0.01205182845229896, Final residual = 0.001043494454240123, No Iterations 13
smoothSolver:  Solving for Uy, Initial residual = 0.07250201140263471, Final residual = 0.007123733946566956, No Iterations 13
smoothSolver:  Solving for Uz, Initial residual = 0.07032467922036836, Final residual = 0.006271723637132232, No Iterations 13
[INFO] MomentumPredictor: 386.775 [ms]
[INFO] MatrixAssemblyPI: 77.54300000000001 [ms]
[INFO] MatrixAssemblyPII: 36.925 [ms]
DICPCG:  Solving for p, Initial residual = 0.05580146249286737, Final residual = 0.0005466065386475685, No Iterations 101
[INFO] SolveP: 929.534 [ms]
time step continuity errors : sum local = 0.005458178290045049, global = -0.0009618270346796807, cumulative = 0.007584043178273953
[INFO] postSolveP: 18.744 [ms]
smoothSolver:  Solving for nuTilda, Initial residual = 0.01754330246358659, Final residual = 0.001063261604085276, No Iterations 3
[INFO] TimeStep: 2174.291 [ms]
ExecutionTime = 125.6 s  ClockTime = 126 s

Time = 45

velocityDampingConstraint velocityDamping damped 0 (0%) of cells, with max limit 300
[INFO] MatrixAssemblyU: 446.845 [ms]
smoothSolver:  Solving for Ux, Initial residual = 0.01190887022096046, Final residual = 0.001051887212867978, No Iterations 13
smoothSolver:  Solving for Uy, Initial residual = 0.07261322816388832, Final residual = 0.007257450594935278, No Iterations 13
smoothSolver:  Solving for Uz, Initial residual = 0.0694414169873185, Final residual = 0.006327061334492208, No Iterations 13
[INFO] MomentumPredictor: 390.388 [ms]
[INFO] MatrixAssemblyPI: 78.182 [ms]
[INFO] MatrixAssemblyPII: 37.02 [ms]
DICPCG:  Solving for p, Initial residual = 0.05533514127487088, Final residual = 0.0005515883357856407, No Iterations 89
[INFO] SolveP: 820.189 [ms]
time step continuity errors : sum local = 0.005439064683909561, global = -0.001107742549388805, cumulative = 0.006476300628885149
[INFO] postSolveP: 18.819 [ms]
smoothSolver:  Solving for nuTilda, Initial residual = 0.01181451158437264, Final residual = 0.00105224843590955, No Iterations 3
[INFO] TimeStep: 2068.26 [ms]
ExecutionTime = 128 s  ClockTime = 129 s

Time = 46

velocityDampingConstraint velocityDamping damped 0 (0%) of cells, with max limit 300
[INFO] MatrixAssemblyU: 449.581 [ms]
smoothSolver:  Solving for Ux, Initial residual = 0.01177832837163694, Final residual = 0.001054737696924884, No Iterations 13
smoothSolver:  Solving for Uy, Initial residual = 0.07239091768832036, Final residual = 0.006233882152475972, No Iterations 14
smoothSolver:  Solving for Uz, Initial residual = 0.06805912107057548, Final residual = 0.00635815452270345, No Iterations 13
[INFO] MomentumPredictor: 394.945 [ms]
[INFO] MatrixAssemblyPI: 77.76600000000001 [ms]
[INFO] MatrixAssemblyPII: 36.79 [ms]
DICPCG:  Solving for p, Initial residual = 0.05463592120818649, Final residual = 0.0005389730001686263, No Iterations 125
[INFO] SolveP: 1144.978 [ms]
time step continuity errors : sum local = 0.005263681181923578, global = -0.001108418096279247, cumulative = 0.005367882532605902
[INFO] postSolveP: 18.893 [ms]
smoothSolver:  Solving for nuTilda, Initial residual = 0.01665942575798338, Final residual = 0.001014692358582321, No Iterations 3
[INFO] TimeStep: 2398.748 [ms]
ExecutionTime = 130.73 s  ClockTime = 131 s

Time = 47

velocityDampingConstraint velocityDamping damped 0 (0%) of cells, with max limit 300
[INFO] MatrixAssemblyU: 446.917 [ms]
smoothSolver:  Solving for Ux, Initial residual = 0.01155219641421654, Final residual = 0.001061303403877394, No Iterations 13
smoothSolver:  Solving for Uy, Initial residual = 0.0720778515005832, Final residual = 0.006239116331588091, No Iterations 14
smoothSolver:  Solving for Uz, Initial residual = 0.06669084674158664, Final residual = 0.006393625805129086, No Iterations 13
[INFO] MomentumPredictor: 397.223 [ms]
[INFO] MatrixAssemblyPI: 78.44199999999999 [ms]
[INFO] MatrixAssemblyPII: 37.048 [ms]
DICPCG:  Solving for p, Initial residual = 0.05403173121044783, Final residual = 0.0005350513154837272, No Iterations 89
[INFO] SolveP: 821.168 [ms]
time step continuity errors : sum local = 0.00517116285575779, global = -0.001095455867527658, cumulative = 0.004272426665078244
[INFO] postSolveP: 19.333 [ms]
smoothSolver:  Solving for nuTilda, Initial residual = 0.01129551201811431, Final residual = 0.00100494583422311, No Iterations 3
[INFO] TimeStep: 2075.769 [ms]
ExecutionTime = 133.15 s  ClockTime = 134 s

Time = 48

velocityDampingConstraint velocityDamping damped 0 (0%) of cells, with max limit 300
[INFO] MatrixAssemblyU: 446.919 [ms]
smoothSolver:  Solving for Ux, Initial residual = 0.01152055003452374, Final residual = 0.001068022811991559, No Iterations 13
smoothSolver:  Solving for Uy, Initial residual = 0.07148119688656851, Final residual = 0.006193459086624188, No Iterations 14
smoothSolver:  Solving for Uz, Initial residual = 0.06527462389151215, Final residual = 0.006360326082216773, No Iterations 13
[INFO] MomentumPredictor: 397.909 [ms]
[INFO] MatrixAssemblyPI: 78.282 [ms]
[INFO] MatrixAssemblyPII: 36.986 [ms]
DICPCG:  Solving for p, Initial residual = 0.05327872391107214, Final residual = 0.0005305747815442598, No Iterations 226
[INFO] SolveP: 2064.904 [ms]
time step continuity errors : sum local = 0.005085091792802277, global = -0.0003829189591436627, cumulative = 0.003889507705934582
[INFO] postSolveP: 18.614 [ms]
smoothSolver:  Solving for nuTilda, Initial residual = 0.01587767744682512, Final residual = 0.0009738778948247534, No Iterations 3
[INFO] TimeStep: 3320.829 [ms]
ExecutionTime = 136.79 s  ClockTime = 138 s

Time = 49

velocityDampingConstraint velocityDamping damped 0 (0%) of cells, with max limit 300
[INFO] MatrixAssemblyU: 447.843 [ms]
smoothSolver:  Solving for Ux, Initial residual = 0.01164200365604154, Final residual = 0.001076428416638234, No Iterations 13
smoothSolver:  Solving for Uy, Initial residual = 0.07127544331343195, Final residual = 0.006191506715239587, No Iterations 14
smoothSolver:  Solving for Uz, Initial residual = 0.06474814403090942, Final residual = 0.006365984043203735, No Iterations 13
[INFO] MomentumPredictor: 398.33 [ms]
[INFO] MatrixAssemblyPI: 77.71299999999999 [ms]
[INFO] MatrixAssemblyPII: 36.749 [ms]
DICPCG:  Solving for p, Initial residual = 0.05469812840165896, Final residual = 0.0005313361157777251, No Iterations 90
[INFO] SolveP: 837.601 [ms]
time step continuity errors : sum local = 0.004889025911736497, global = 0.0006211635348556995, cumulative = 0.004510671240790281
[INFO] postSolveP: 19.274 [ms]
smoothSolver:  Solving for nuTilda, Initial residual = 0.01086223150746078, Final residual = 0.0009679773033168495, No Iterations 3
[INFO] TimeStep: 2093.728 [ms]
ExecutionTime = 139.22 s  ClockTime = 140 s

Time = 50

velocityDampingConstraint velocityDamping damped 0 (0%) of cells, with max limit 300
[INFO] MatrixAssemblyU: 448.967 [ms]
smoothSolver:  Solving for Ux, Initial residual = 0.0116084463685632, Final residual = 0.001076769902352166, No Iterations 13
smoothSolver:  Solving for Uy, Initial residual = 0.06996582270871253, Final residual = 0.00611258235682372, No Iterations 14
smoothSolver:  Solving for Uz, Initial residual = 0.06369233337059012, Final residual = 0.006326261835607352, No Iterations 13
[INFO] MomentumPredictor: 396.363 [ms]
[INFO] MatrixAssemblyPI: 78.134 [ms]
[INFO] MatrixAssemblyPII: 36.985 [ms]
DICPCG:  Solving for p, Initial residual = 0.05407703282972237, Final residual = 0.000540302546337371, No Iterations 222
[INFO] SolveP: 2035.224 [ms]
time step continuity errors : sum local = 0.004951356677015529, global = -3.038859164603066e-05, cumulative = 0.00448028264914425
[INFO] postSolveP: 19.649 [ms]
smoothSolver:  Solving for nuTilda, Initial residual = 0.01519433066146194, Final residual = 0.0009420041839672061, No Iterations 3
[INFO] TimeStep: 3293.894 [ms]
ExecutionTime = 142.85 s  ClockTime = 144 s

End

Finalising parallel run
