/*---------------------------------------------------------------------------*\
| =========                 |                                                 |
| \\      /  F ield         | OpenFOAM: The Open Source CFD Toolbox           |
|  \\    /   O peration     | Version:  2306                                  |
|   \\  /    A nd           | Website:  www.openfoam.com                      |
|    \\/     M anipulation  |                                                 |
\*---------------------------------------------------------------------------*/
Build  : c423ebec-20231012 OPENFOAM=2306 version=v2306
Arch   : "LSB;label=32;scalar=64"
Exec   : decomposePar -force
Date   : Feb 16 2024
Time   : 09:04:16
Host   : hkn1268.localdomain
PID    : 1045579
--> FOAM Warning : 
    From Foam::fileName Foam::cwd_L()
    in file POSIX.C at line 552
    PWD is not the cwd() - reverting to physical description
I/O    : uncollated
--> FOAM Warning : 
    From Foam::fileName Foam::cwd_L()
    in file POSIX.C at line 552
    PWD is not the cwd() - reverting to physical description
Case   : /hkfs/work/workspace/scratch/eq4036-windsorbody_setup/workspace/663886335f2b89b64a133b7a26a73a85/case
nProcs : 1
trapFpe: Floating point exception trapping enabled (FOAM_SIGFPE).
fileModificationChecking : Monitoring run-time modified files using timeStampMaster (fileModificationSkew 5, maxFileModificationPolls 20)
allowSystemOperations : Allowing user-supplied system call operations

// * * * * * * * * * * * * * * * * * * * * * * * * * * * * * * * * * * * * * //
Create time

--> FOAM Warning : 
    From void* Foam::dlLibraryTable::openLibrary(const Foam::fileName&, bool)
    in file db/dynamicLibrary/dlLibraryTable/dlLibraryTable.C at line 188
    Could not load "libpetscFoam.so"
libpetscFoam.so: cannot open shared object file: No such file or directory


Decomposing mesh

Create mesh

Calculating distribution of cells
Decomposition method simple [48] (region region0)

Finished decomposition in 3.79 s

Calculating original mesh data

Distributing cells to processors

Distributing faces to processors

Distributing points to processors

Constructing processor meshes

Processor 0
    Number of cells = 173059
    Number of points = 187674
    Number of faces shared with processor 1 = 1113
    Number of faces shared with processor 4 = 6969
    Number of faces shared with processor 24 = 4763
    Number of faces shared with processor 28 = 2
    Number of processor patches = 4
    Number of processor faces = 12847
    Number of boundary faces = 11136

Processor 1
    Number of cells = 117051
    Number of points = 126899
    Number of faces shared with processor 0 = 1113
    Number of faces shared with processor 2 = 1177
    Number of faces shared with processor 4 = 14
    Number of faces shared with processor 5 = 4783
    Number of faces shared with processor 24 = 2
    Number of faces shared with processor 25 = 3500
    Number of processor patches = 6
    Number of processor faces = 10589
    Number of boundary faces = 5757

Processor 2
    Number of cells = 114626
    Number of points = 124502
    Number of faces shared with processor 1 = 1177
    Number of faces shared with processor 3 = 1207
    Number of faces shared with processor 6 = 4395
    Number of faces shared with processor 7 = 1
    Number of faces shared with processor 25 = 1
    Number of faces shared with processor 26 = 3450
    Number of faces shared with processor 27 = 1
    Number of processor patches = 7
    Number of processor faces = 10232
    Number of boundary faces = 5632

Processor 3
    Number of cells = 202111
    Number of points = 217145
    Number of faces shared with processor 2 = 1207
    Number of faces shared with processor 7 = 6930
    Number of faces shared with processor 26 = 11
    Number of faces shared with processor 27 = 5758
    Number of faces shared with processor 31 = 1
    Number of processor patches = 5
    Number of processor faces = 13907
    Number of boundary faces = 12628

Processor 4
    Number of cells = 166597
    Number of points = 181296
    Number of faces shared with processor 0 = 6969
    Number of faces shared with processor 1 = 14
    Number of faces shared with processor 5 = 590
    Number of faces shared with processor 8 = 6434
    Number of faces shared with processor 24 = 16
    Number of faces shared with processor 28 = 2604
    Number of processor patches = 6
    Number of processor faces = 16627
    Number of boundary faces = 14509

Processor 5
    Number of cells = 95788
    Number of points = 104681
    Number of faces shared with processor 1 = 4783
    Number of faces shared with processor 4 = 590
    Number of faces shared with processor 6 = 651
    Number of faces shared with processor 9 = 4520
    Number of faces shared with processor 25 = 1
    Number of faces shared with processor 29 = 2979
    Number of processor patches = 6
    Number of processor faces = 13524
    Number of boundary faces = 4129

Processor 6
    Number of cells = 92083
    Number of points = 100304
    Number of faces shared with processor 2 = 4395
    Number of faces shared with processor 5 = 651
    Number of faces shared with processor 7 = 694
    Number of faces shared with processor 10 = 4371
    Number of faces shared with processor 30 = 2961
    Number of processor patches = 5
    Number of processor faces = 13072
    Number of boundary faces = 2980

Processor 7
    Number of cells = 120875
    Number of points = 134298
    Number of faces shared with processor 2 = 1
    Number of faces shared with processor 3 = 6930
    Number of faces shared with processor 6 = 694
    Number of faces shared with processor 11 = 6762
    Number of faces shared with processor 27 = 3
    Number of faces shared with processor 31 = 2504
    Number of processor patches = 6
    Number of processor faces = 16894
    Number of boundary faces = 6098

Processor 8
    Number of cells = 136955
    Number of points = 150074
    Number of faces shared with processor 4 = 6434
    Number of faces shared with processor 9 = 583
    Number of faces shared with processor 12 = 6288
    Number of faces shared with processor 13 = 2
    Number of faces shared with processor 32 = 728
    Number of processor patches = 5
    Number of processor faces = 14035
    Number of boundary faces = 11474

Processor 9
    Number of cells = 108589
    Number of points = 117717
    Number of faces shared with processor 5 = 4520
    Number of faces shared with processor 8 = 583
    Number of faces shared with processor 10 = 744
    Number of faces shared with processor 13 = 4556
    Number of faces shared with processor 29 = 2
    Number of faces shared with processor 33 = 3278
    Number of processor patches = 6
    Number of processor faces = 13683
    Number of boundary faces = 4363

Processor 10
    Number of cells = 104904
    Number of points = 113600
    Number of faces shared with processor 6 = 4371
    Number of faces shared with processor 9 = 744
    Number of faces shared with processor 11 = 744
    Number of faces shared with processor 14 = 4371
    Number of faces shared with processor 34 = 3384
    Number of processor patches = 5
    Number of processor faces = 13614
    Number of boundary faces = 3384

Processor 11
    Number of cells = 139517
    Number of points = 154234
    Number of faces shared with processor 7 = 6762
    Number of faces shared with processor 10 = 744
    Number of faces shared with processor 15 = 6864
    Number of faces shared with processor 31 = 2
    Number of faces shared with processor 35 = 2829
    Number of processor patches = 5
    Number of processor faces = 17201
    Number of boundary faces = 6961

Processor 12
    Number of cells = 132875
    Number of points = 145670
    Number of faces shared with processor 8 = 6288
    Number of faces shared with processor 13 = 552
    Number of faces shared with processor 16 = 6328
    Number of faces shared with processor 36 = 686
    Number of processor patches = 4
    Number of processor faces = 13854
    Number of boundary faces = 11047

Processor 13
    Number of cells = 109856
    Number of points = 119010
    Number of faces shared with processor 8 = 2
    Number of faces shared with processor 9 = 4556
    Number of faces shared with processor 12 = 552
    Number of faces shared with processor 14 = 744
    Number of faces shared with processor 17 = 4595
    Number of faces shared with processor 33 = 2
    Number of faces shared with processor 37 = 3247
    Number of processor patches = 7
    Number of processor faces = 13698
    Number of boundary faces = 4408

Processor 14
    Number of cells = 106522
    Number of points = 115312
    Number of faces shared with processor 10 = 4371
    Number of faces shared with processor 13 = 744
    Number of faces shared with processor 15 = 775
    Number of faces shared with processor 18 = 4426
    Number of faces shared with processor 38 = 3421
    Number of faces shared with processor 42 = 1
    Number of processor patches = 6
    Number of processor faces = 13738
    Number of boundary faces = 3446

Processor 15
    Number of cells = 143150
    Number of points = 158154
    Number of faces shared with processor 11 = 6864
    Number of faces shared with processor 14 = 775
    Number of faces shared with processor 19 = 7045
    Number of faces shared with processor 39 = 2878
    Number of processor patches = 4
    Number of processor faces = 17562
    Number of boundary faces = 7150

Processor 16
    Number of cells = 166426
    Number of points = 182016
    Number of faces shared with processor 12 = 6328
    Number of faces shared with processor 17 = 675
    Number of faces shared with processor 20 = 7818
    Number of faces shared with processor 40 = 2373
    Number of faces shared with processor 44 = 10
    Number of processor patches = 5
    Number of processor faces = 17204
    Number of boundary faces = 15027

Processor 17
    Number of cells = 99416
    Number of points = 108352
    Number of faces shared with processor 13 = 4595
    Number of faces shared with processor 16 = 675
    Number of faces shared with processor 18 = 670
    Number of faces shared with processor 21 = 4479
    Number of faces shared with processor 22 = 1
    Number of faces shared with processor 37 = 2
    Number of faces shared with processor 41 = 2997
    Number of faces shared with processor 42 = 1
    Number of processor patches = 8
    Number of processor faces = 13420
    Number of boundary faces = 3985

Processor 18
    Number of cells = 91704
    Number of points = 99979
    Number of faces shared with processor 14 = 4426
    Number of faces shared with processor 17 = 670
    Number of faces shared with processor 19 = 651
    Number of faces shared with processor 22 = 4462
    Number of faces shared with processor 42 = 3002
    Number of faces shared with processor 46 = 1
    Number of processor patches = 6
    Number of processor faces = 13212
    Number of boundary faces = 2946

Processor 19
    Number of cells = 122014
    Number of points = 136019
    Number of faces shared with processor 15 = 7045
    Number of faces shared with processor 18 = 651
    Number of faces shared with processor 23 = 6816
    Number of faces shared with processor 39 = 1
    Number of faces shared with processor 43 = 2495
    Number of faces shared with processor 47 = 18
    Number of processor patches = 6
    Number of processor faces = 17026
    Number of boundary faces = 6043

Processor 20
    Number of cells = 177441
    Number of points = 192429
    Number of faces shared with processor 16 = 7818
    Number of faces shared with processor 21 = 977
    Number of faces shared with processor 44 = 5058
    Number of processor patches = 3
    Number of processor faces = 13853
    Number of boundary faces = 11295

Processor 21
    Number of cells = 116532
    Number of points = 126070
    Number of faces shared with processor 17 = 4479
    Number of faces shared with processor 20 = 977
    Number of faces shared with processor 22 = 1227
    Number of faces shared with processor 45 = 3221
    Number of processor patches = 4
    Number of processor faces = 9904
    Number of boundary faces = 5772

Processor 22
    Number of cells = 115282
    Number of points = 124310
    Number of faces shared with processor 17 = 1
    Number of faces shared with processor 18 = 4462
    Number of faces shared with processor 21 = 1227
    Number of faces shared with processor 23 = 1119
    Number of faces shared with processor 42 = 2
    Number of faces shared with processor 46 = 3405
    Number of processor patches = 6
    Number of processor faces = 10216
    Number of boundary faces = 5651

Processor 23
    Number of cells = 200195
    Number of points = 214604
    Number of faces shared with processor 19 = 6816
    Number of faces shared with processor 22 = 1119
    Number of faces shared with processor 46 = 10
    Number of faces shared with processor 47 = 5459
    Number of processor patches = 4
    Number of processor faces = 13404
    Number of boundary faces = 12388

Processor 24
    Number of cells = 76756
    Number of points = 93012
    Number of faces shared with processor 0 = 4763
    Number of faces shared with processor 1 = 2
    Number of faces shared with processor 4 = 16
    Number of faces shared with processor 25 = 1371
    Number of faces shared with processor 28 = 9280
    Number of faces shared with processor 32 = 133
    Number of processor patches = 6
    Number of processor faces = 15565
    Number of boundary faces = 2006

Processor 25
    Number of cells = 121547
    Number of points = 135950
    Number of faces shared with processor 1 = 3500
    Number of faces shared with processor 2 = 1
    Number of faces shared with processor 5 = 1
    Number of faces shared with processor 24 = 1371
    Number of faces shared with processor 26 = 1655
    Number of faces shared with processor 28 = 15
    Number of faces shared with processor 29 = 9669
    Number of faces shared with processor 30 = 1
    Number of processor patches = 8
    Number of processor faces = 16213
    Number of boundary faces = 234

Processor 26
    Number of cells = 121291
    Number of points = 135192
    Number of faces shared with processor 2 = 3450
    Number of faces shared with processor 3 = 11
    Number of faces shared with processor 25 = 1655
    Number of faces shared with processor 27 = 1651
    Number of faces shared with processor 30 = 8815
    Number of faces shared with processor 31 = 1
    Number of processor patches = 6
    Number of processor faces = 15583
    Number of boundary faces = 208

Processor 27
    Number of cells = 124749
    Number of points = 140432
    Number of faces shared with processor 2 = 1
    Number of faces shared with processor 3 = 5758
    Number of faces shared with processor 7 = 3
    Number of faces shared with processor 26 = 1651
    Number of faces shared with processor 31 = 7862
    Number of faces shared with processor 35 = 70
    Number of processor patches = 6
    Number of processor faces = 15345
    Number of boundary faces = 1616

Processor 28
    Number of cells = 150381
    Number of points = 165399
    Number of faces shared with processor 0 = 2
    Number of faces shared with processor 4 = 2604
    Number of faces shared with processor 24 = 9280
    Number of faces shared with processor 25 = 15
    Number of faces shared with processor 29 = 696
    Number of faces shared with processor 32 = 5751
    Number of processor patches = 6
    Number of processor faces = 18348
    Number of boundary faces = 12001

Processor 29
    Number of cells = 166214
    Number of points = 180629
    Number of faces shared with processor 5 = 2979
    Number of faces shared with processor 9 = 2
    Number of faces shared with processor 25 = 9669
    Number of faces shared with processor 28 = 696
    Number of faces shared with processor 30 = 1301
    Number of faces shared with processor 32 = 2
    Number of faces shared with processor 33 = 8460
    Number of processor patches = 7
    Number of processor faces = 23109
    Number of boundary faces = 2405

Processor 30
    Number of cells = 165327
    Number of points = 178593
    Number of faces shared with processor 6 = 2961
    Number of faces shared with processor 25 = 1
    Number of faces shared with processor 26 = 8815
    Number of faces shared with processor 29 = 1301
    Number of faces shared with processor 31 = 1290
    Number of faces shared with processor 33 = 1
    Number of faces shared with processor 34 = 8583
    Number of faces shared with processor 35 = 1
    Number of processor patches = 8
    Number of processor faces = 22953
    Number of boundary faces = 8

Processor 31
    Number of cells = 93925
    Number of points = 105791
    Number of faces shared with processor 3 = 1
    Number of faces shared with processor 7 = 2504
    Number of faces shared with processor 11 = 2
    Number of faces shared with processor 26 = 1
    Number of faces shared with processor 27 = 7862
    Number of faces shared with processor 30 = 1290
    Number of faces shared with processor 35 = 7561
    Number of processor patches = 7
    Number of processor faces = 19221
    Number of boundary faces = 118

Processor 32
    Number of cells = 82862
    Number of points = 94941
    Number of faces shared with processor 8 = 728
    Number of faces shared with processor 24 = 133
    Number of faces shared with processor 28 = 5751
    Number of faces shared with processor 29 = 2
    Number of faces shared with processor 33 = 468
    Number of faces shared with processor 36 = 5443
    Number of processor patches = 6
    Number of processor faces = 12525
    Number of boundary faces = 5607

Processor 33
    Number of cells = 182963
    Number of points = 196690
    Number of faces shared with processor 9 = 3278
    Number of faces shared with processor 13 = 2
    Number of faces shared with processor 29 = 8460
    Number of faces shared with processor 30 = 1
    Number of faces shared with processor 32 = 468
    Number of faces shared with processor 34 = 1494
    Number of faces shared with processor 37 = 8275
    Number of faces shared with processor 38 = 1
    Number of processor patches = 8
    Number of processor faces = 21979
    Number of boundary faces = 1695

Processor 34
    Number of cells = 188714
    Number of points = 202437
    Number of faces shared with processor 10 = 3384
    Number of faces shared with processor 30 = 8583
    Number of faces shared with processor 33 = 1494
    Number of faces shared with processor 35 = 1474
    Number of faces shared with processor 38 = 8575
    Number of processor patches = 5
    Number of processor faces = 23510
    Number of boundary faces = 16

Processor 35
    Number of cells = 106685
    Number of points = 118892
    Number of faces shared with processor 11 = 2829
    Number of faces shared with processor 27 = 70
    Number of faces shared with processor 30 = 1
    Number of faces shared with processor 31 = 7561
    Number of faces shared with processor 34 = 1474
    Number of faces shared with processor 39 = 7465
    Number of processor patches = 6
    Number of processor faces = 19400
    Number of boundary faces = 98

Processor 36
    Number of cells = 79553
    Number of points = 91275
    Number of faces shared with processor 12 = 686
    Number of faces shared with processor 32 = 5443
    Number of faces shared with processor 37 = 466
    Number of faces shared with processor 40 = 5506
    Number of faces shared with processor 41 = 1
    Number of faces shared with processor 44 = 133
    Number of processor patches = 6
    Number of processor faces = 12235
    Number of boundary faces = 5279

Processor 37
    Number of cells = 179977
    Number of points = 193517
    Number of faces shared with processor 13 = 3247
    Number of faces shared with processor 17 = 2
    Number of faces shared with processor 33 = 8275
    Number of faces shared with processor 36 = 466
    Number of faces shared with processor 38 = 1508
    Number of faces shared with processor 41 = 8182
    Number of faces shared with processor 42 = 2
    Number of processor patches = 7
    Number of processor faces = 21682
    Number of boundary faces = 1665

Processor 38
    Number of cells = 189872
    Number of points = 203693
    Number of faces shared with processor 14 = 3421
    Number of faces shared with processor 33 = 1
    Number of faces shared with processor 34 = 8575
    Number of faces shared with processor 37 = 1508
    Number of faces shared with processor 39 = 1511
    Number of faces shared with processor 42 = 8688
    Number of processor patches = 6
    Number of processor faces = 23704
    Number of boundary faces = 16

Processor 39
    Number of cells = 109384
    Number of points = 121689
    Number of faces shared with processor 15 = 2878
    Number of faces shared with processor 19 = 1
    Number of faces shared with processor 35 = 7465
    Number of faces shared with processor 38 = 1511
    Number of faces shared with processor 42 = 2
    Number of faces shared with processor 43 = 7583
    Number of faces shared with processor 47 = 70
    Number of processor patches = 7
    Number of processor faces = 19510
    Number of boundary faces = 144

Processor 40
    Number of cells = 146761
    Number of points = 162773
    Number of faces shared with processor 16 = 2373
    Number of faces shared with processor 36 = 5506
    Number of faces shared with processor 41 = 969
    Number of faces shared with processor 44 = 9450
    Number of processor patches = 4
    Number of processor faces = 18298
    Number of boundary faces = 12434

Processor 41
    Number of cells = 165139
    Number of points = 179042
    Number of faces shared with processor 17 = 2997
    Number of faces shared with processor 36 = 1
    Number of faces shared with processor 37 = 8182
    Number of faces shared with processor 40 = 969
    Number of faces shared with processor 42 = 1301
    Number of faces shared with processor 45 = 8259
    Number of processor patches = 6
    Number of processor faces = 21709
    Number of boundary faces = 1991

Processor 42
    Number of cells = 165421
    Number of points = 178786
    Number of faces shared with processor 14 = 1
    Number of faces shared with processor 17 = 1
    Number of faces shared with processor 18 = 3002
    Number of faces shared with processor 22 = 2
    Number of faces shared with processor 37 = 2
    Number of faces shared with processor 38 = 8688
    Number of faces shared with processor 39 = 2
    Number of faces shared with processor 41 = 1301
    Number of faces shared with processor 43 = 1275
    Number of faces shared with processor 46 = 8875
    Number of processor patches = 10
    Number of processor faces = 23149
    Number of boundary faces = 8

Processor 43
    Number of cells = 94308
    Number of points = 106106
    Number of faces shared with processor 19 = 2495
    Number of faces shared with processor 39 = 7583
    Number of faces shared with processor 42 = 1275
    Number of faces shared with processor 46 = 2
    Number of faces shared with processor 47 = 7820
    Number of processor patches = 5
    Number of processor faces = 19175
    Number of boundary faces = 72

Processor 44
    Number of cells = 87118
    Number of points = 103619
    Number of faces shared with processor 16 = 10
    Number of faces shared with processor 20 = 5058
    Number of faces shared with processor 36 = 133
    Number of faces shared with processor 40 = 9450
    Number of faces shared with processor 45 = 1140
    Number of processor patches = 5
    Number of processor faces = 15791
    Number of boundary faces = 2060

Processor 45
    Number of cells = 113712
    Number of points = 126827
    Number of faces shared with processor 21 = 3221
    Number of faces shared with processor 41 = 8259
    Number of faces shared with processor 44 = 1140
    Number of faces shared with processor 46 = 1582
    Number of processor patches = 4
    Number of processor faces = 14202
    Number of boundary faces = 234

Processor 46
    Number of cells = 121038
    Number of points = 134892
    Number of faces shared with processor 18 = 1
    Number of faces shared with processor 22 = 3405
    Number of faces shared with processor 23 = 10
    Number of faces shared with processor 42 = 8875
    Number of faces shared with processor 43 = 2
    Number of faces shared with processor 45 = 1582
    Number of faces shared with processor 47 = 1616
    Number of processor patches = 7
    Number of processor faces = 15491
    Number of boundary faces = 208

Processor 47
    Number of cells = 119871
    Number of points = 135372
    Number of faces shared with processor 19 = 18
    Number of faces shared with processor 23 = 5459
    Number of faces shared with processor 39 = 70
    Number of faces shared with processor 43 = 7820
    Number of faces shared with processor 46 = 1616
    Number of processor patches = 5
    Number of processor faces = 14983
    Number of boundary faces = 1616

Number of processor faces = 388498
Max number of cells = 202111 (53.81510720555258% above average 131398.6666666667)
Max number of processor patches = 10 (71.42857142857143% above average 5.833333333333333)
Max number of faces between processors = 23704 (46.43473068072423% above average 16187.41666666667)

Time = 0

Processor 0: field transfer
--> FOAM Warning : 
    From void* Foam::dlLibraryTable::openLibrary(const Foam::fileName&, bool)
    in file db/dynamicLibrary/dlLibraryTable/dlLibraryTable.C at line 188
    Could not load "libpetscFoam.so"
libpetscFoam.so: cannot open shared object file: No such file or directory
Processor 1: field transfer
--> FOAM Warning : 
    From void* Foam::dlLibraryTable::openLibrary(const Foam::fileName&, bool)
    in file db/dynamicLibrary/dlLibraryTable/dlLibraryTable.C at line 188
    Could not load "libpetscFoam.so"
libpetscFoam.so: cannot open shared object file: No such file or directory
Processor 2: field transfer
--> FOAM Warning : 
    From void* Foam::dlLibraryTable::openLibrary(const Foam::fileName&, bool)
    in file db/dynamicLibrary/dlLibraryTable/dlLibraryTable.C at line 188
    Could not load "libpetscFoam.so"
libpetscFoam.so: cannot open shared object file: No such file or directory
Processor 3: field transfer
--> FOAM Warning : 
    From void* Foam::dlLibraryTable::openLibrary(const Foam::fileName&, bool)
    in file db/dynamicLibrary/dlLibraryTable/dlLibraryTable.C at line 188
    Could not load "libpetscFoam.so"
libpetscFoam.so: cannot open shared object file: No such file or directory
Processor 4: field transfer
--> FOAM Warning : 
    From void* Foam::dlLibraryTable::openLibrary(const Foam::fileName&, bool)
    in file db/dynamicLibrary/dlLibraryTable/dlLibraryTable.C at line 188
    Could not load "libpetscFoam.so"
libpetscFoam.so: cannot open shared object file: No such file or directory
Processor 5: field transfer
--> FOAM Warning : 
    From void* Foam::dlLibraryTable::openLibrary(const Foam::fileName&, bool)
    in file db/dynamicLibrary/dlLibraryTable/dlLibraryTable.C at line 188
    Could not load "libpetscFoam.so"
libpetscFoam.so: cannot open shared object file: No such file or directory
Processor 6: field transfer
--> FOAM Warning : 
    From void* Foam::dlLibraryTable::openLibrary(const Foam::fileName&, bool)
    in file db/dynamicLibrary/dlLibraryTable/dlLibraryTable.C at line 188
    Could not load "libpetscFoam.so"
libpetscFoam.so: cannot open shared object file: No such file or directory
Processor 7: field transfer
--> FOAM Warning : 
    From void* Foam::dlLibraryTable::openLibrary(const Foam::fileName&, bool)
    in file db/dynamicLibrary/dlLibraryTable/dlLibraryTable.C at line 188
    Could not load "libpetscFoam.so"
libpetscFoam.so: cannot open shared object file: No such file or directory
Processor 8: field transfer
--> FOAM Warning : 
    From void* Foam::dlLibraryTable::openLibrary(const Foam::fileName&, bool)
    in file db/dynamicLibrary/dlLibraryTable/dlLibraryTable.C at line 188
    Could not load "libpetscFoam.so"
libpetscFoam.so: cannot open shared object file: No such file or directory
Processor 9: field transfer
--> FOAM Warning : 
    From void* Foam::dlLibraryTable::openLibrary(const Foam::fileName&, bool)
    in file db/dynamicLibrary/dlLibraryTable/dlLibraryTable.C at line 188
    Could not load "libpetscFoam.so"
libpetscFoam.so: cannot open shared object file: No such file or directory
Processor 10: field transfer
--> FOAM Warning : 
    From void* Foam::dlLibraryTable::openLibrary(const Foam::fileName&, bool)
    in file db/dynamicLibrary/dlLibraryTable/dlLibraryTable.C at line 188
    Could not load "libpetscFoam.so"
libpetscFoam.so: cannot open shared object file: No such file or directory
Processor 11: field transfer
--> FOAM Warning : 
    From void* Foam::dlLibraryTable::openLibrary(const Foam::fileName&, bool)
    in file db/dynamicLibrary/dlLibraryTable/dlLibraryTable.C at line 188
    Could not load "libpetscFoam.so"
libpetscFoam.so: cannot open shared object file: No such file or directory
Processor 12: field transfer
--> FOAM Warning : 
    From void* Foam::dlLibraryTable::openLibrary(const Foam::fileName&, bool)
    in file db/dynamicLibrary/dlLibraryTable/dlLibraryTable.C at line 188
    Could not load "libpetscFoam.so"
libpetscFoam.so: cannot open shared object file: No such file or directory
Processor 13: field transfer
--> FOAM Warning : 
    From void* Foam::dlLibraryTable::openLibrary(const Foam::fileName&, bool)
    in file db/dynamicLibrary/dlLibraryTable/dlLibraryTable.C at line 188
    Could not load "libpetscFoam.so"
libpetscFoam.so: cannot open shared object file: No such file or directory
Processor 14: field transfer
--> FOAM Warning : 
    From void* Foam::dlLibraryTable::openLibrary(const Foam::fileName&, bool)
    in file db/dynamicLibrary/dlLibraryTable/dlLibraryTable.C at line 188
    Could not load "libpetscFoam.so"
libpetscFoam.so: cannot open shared object file: No such file or directory
Processor 15: field transfer
--> FOAM Warning : 
    From void* Foam::dlLibraryTable::openLibrary(const Foam::fileName&, bool)
    in file db/dynamicLibrary/dlLibraryTable/dlLibraryTable.C at line 188
    Could not load "libpetscFoam.so"
libpetscFoam.so: cannot open shared object file: No such file or directory
Processor 16: field transfer
--> FOAM Warning : 
    From void* Foam::dlLibraryTable::openLibrary(const Foam::fileName&, bool)
    in file db/dynamicLibrary/dlLibraryTable/dlLibraryTable.C at line 188
    Could not load "libpetscFoam.so"
libpetscFoam.so: cannot open shared object file: No such file or directory
Processor 17: field transfer
--> FOAM Warning : 
    From void* Foam::dlLibraryTable::openLibrary(const Foam::fileName&, bool)
    in file db/dynamicLibrary/dlLibraryTable/dlLibraryTable.C at line 188
    Could not load "libpetscFoam.so"
libpetscFoam.so: cannot open shared object file: No such file or directory
Processor 18: field transfer
--> FOAM Warning : 
    From void* Foam::dlLibraryTable::openLibrary(const Foam::fileName&, bool)
    in file db/dynamicLibrary/dlLibraryTable/dlLibraryTable.C at line 188
    Could not load "libpetscFoam.so"
libpetscFoam.so: cannot open shared object file: No such file or directory
Processor 19: field transfer
--> FOAM Warning : 
    From void* Foam::dlLibraryTable::openLibrary(const Foam::fileName&, bool)
    in file db/dynamicLibrary/dlLibraryTable/dlLibraryTable.C at line 188
    Could not load "libpetscFoam.so"
libpetscFoam.so: cannot open shared object file: No such file or directory
Processor 20: field transfer
--> FOAM Warning : 
    From void* Foam::dlLibraryTable::openLibrary(const Foam::fileName&, bool)
    in file db/dynamicLibrary/dlLibraryTable/dlLibraryTable.C at line 188
    Could not load "libpetscFoam.so"
libpetscFoam.so: cannot open shared object file: No such file or directory
Processor 21: field transfer
--> FOAM Warning : 
    From void* Foam::dlLibraryTable::openLibrary(const Foam::fileName&, bool)
    in file db/dynamicLibrary/dlLibraryTable/dlLibraryTable.C at line 188
    Could not load "libpetscFoam.so"
libpetscFoam.so: cannot open shared object file: No such file or directory
Processor 22: field transfer
--> FOAM Warning : 
    From void* Foam::dlLibraryTable::openLibrary(const Foam::fileName&, bool)
    in file db/dynamicLibrary/dlLibraryTable/dlLibraryTable.C at line 188
    Could not load "libpetscFoam.so"
libpetscFoam.so: cannot open shared object file: No such file or directory
Processor 23: field transfer
--> FOAM Warning : 
    From void* Foam::dlLibraryTable::openLibrary(const Foam::fileName&, bool)
    in file db/dynamicLibrary/dlLibraryTable/dlLibraryTable.C at line 188
    Could not load "libpetscFoam.so"
libpetscFoam.so: cannot open shared object file: No such file or directory
Processor 24: field transfer
--> FOAM Warning : 
    From void* Foam::dlLibraryTable::openLibrary(const Foam::fileName&, bool)
    in file db/dynamicLibrary/dlLibraryTable/dlLibraryTable.C at line 188
    Could not load "libpetscFoam.so"
libpetscFoam.so: cannot open shared object file: No such file or directory
Processor 25: field transfer
--> FOAM Warning : 
    From void* Foam::dlLibraryTable::openLibrary(const Foam::fileName&, bool)
    in file db/dynamicLibrary/dlLibraryTable/dlLibraryTable.C at line 188
    Could not load "libpetscFoam.so"
libpetscFoam.so: cannot open shared object file: No such file or directory
Processor 26: field transfer
--> FOAM Warning : 
    From void* Foam::dlLibraryTable::openLibrary(const Foam::fileName&, bool)
    in file db/dynamicLibrary/dlLibraryTable/dlLibraryTable.C at line 188
    Could not load "libpetscFoam.so"
libpetscFoam.so: cannot open shared object file: No such file or directory
Processor 27: field transfer
--> FOAM Warning : 
    From void* Foam::dlLibraryTable::openLibrary(const Foam::fileName&, bool)
    in file db/dynamicLibrary/dlLibraryTable/dlLibraryTable.C at line 188
    Could not load "libpetscFoam.so"
libpetscFoam.so: cannot open shared object file: No such file or directory
Processor 28: field transfer
--> FOAM Warning : 
    From void* Foam::dlLibraryTable::openLibrary(const Foam::fileName&, bool)
    in file db/dynamicLibrary/dlLibraryTable/dlLibraryTable.C at line 188
    Could not load "libpetscFoam.so"
libpetscFoam.so: cannot open shared object file: No such file or directory
Processor 29: field transfer
--> FOAM Warning : 
    From void* Foam::dlLibraryTable::openLibrary(const Foam::fileName&, bool)
    in file db/dynamicLibrary/dlLibraryTable/dlLibraryTable.C at line 188
    Could not load "libpetscFoam.so"
libpetscFoam.so: cannot open shared object file: No such file or directory
Processor 30: field transfer
--> FOAM Warning : 
    From void* Foam::dlLibraryTable::openLibrary(const Foam::fileName&, bool)
    in file db/dynamicLibrary/dlLibraryTable/dlLibraryTable.C at line 188
    Could not load "libpetscFoam.so"
libpetscFoam.so: cannot open shared object file: No such file or directory
Processor 31: field transfer
--> FOAM Warning : 
    From void* Foam::dlLibraryTable::openLibrary(const Foam::fileName&, bool)
    in file db/dynamicLibrary/dlLibraryTable/dlLibraryTable.C at line 188
    Could not load "libpetscFoam.so"
libpetscFoam.so: cannot open shared object file: No such file or directory
Processor 32: field transfer
--> FOAM Warning : 
    From void* Foam::dlLibraryTable::openLibrary(const Foam::fileName&, bool)
    in file db/dynamicLibrary/dlLibraryTable/dlLibraryTable.C at line 188
    Could not load "libpetscFoam.so"
libpetscFoam.so: cannot open shared object file: No such file or directory
Processor 33: field transfer
--> FOAM Warning : 
    From void* Foam::dlLibraryTable::openLibrary(const Foam::fileName&, bool)
    in file db/dynamicLibrary/dlLibraryTable/dlLibraryTable.C at line 188
    Could not load "libpetscFoam.so"
libpetscFoam.so: cannot open shared object file: No such file or directory
Processor 34: field transfer
--> FOAM Warning : 
    From void* Foam::dlLibraryTable::openLibrary(const Foam::fileName&, bool)
    in file db/dynamicLibrary/dlLibraryTable/dlLibraryTable.C at line 188
    Could not load "libpetscFoam.so"
libpetscFoam.so: cannot open shared object file: No such file or directory
Processor 35: field transfer
--> FOAM Warning : 
    From void* Foam::dlLibraryTable::openLibrary(const Foam::fileName&, bool)
    in file db/dynamicLibrary/dlLibraryTable/dlLibraryTable.C at line 188
    Could not load "libpetscFoam.so"
libpetscFoam.so: cannot open shared object file: No such file or directory
Processor 36: field transfer
--> FOAM Warning : 
    From void* Foam::dlLibraryTable::openLibrary(const Foam::fileName&, bool)
    in file db/dynamicLibrary/dlLibraryTable/dlLibraryTable.C at line 188
    Could not load "libpetscFoam.so"
libpetscFoam.so: cannot open shared object file: No such file or directory
Processor 37: field transfer
--> FOAM Warning : 
    From void* Foam::dlLibraryTable::openLibrary(const Foam::fileName&, bool)
    in file db/dynamicLibrary/dlLibraryTable/dlLibraryTable.C at line 188
    Could not load "libpetscFoam.so"
libpetscFoam.so: cannot open shared object file: No such file or directory
Processor 38: field transfer
--> FOAM Warning : 
    From void* Foam::dlLibraryTable::openLibrary(const Foam::fileName&, bool)
    in file db/dynamicLibrary/dlLibraryTable/dlLibraryTable.C at line 188
    Could not load "libpetscFoam.so"
libpetscFoam.so: cannot open shared object file: No such file or directory
Processor 39: field transfer
--> FOAM Warning : 
    From void* Foam::dlLibraryTable::openLibrary(const Foam::fileName&, bool)
    in file db/dynamicLibrary/dlLibraryTable/dlLibraryTable.C at line 188
    Could not load "libpetscFoam.so"
libpetscFoam.so: cannot open shared object file: No such file or directory
Processor 40: field transfer
--> FOAM Warning : 
    From void* Foam::dlLibraryTable::openLibrary(const Foam::fileName&, bool)
    in file db/dynamicLibrary/dlLibraryTable/dlLibraryTable.C at line 188
    Could not load "libpetscFoam.so"
libpetscFoam.so: cannot open shared object file: No such file or directory
Processor 41: field transfer
--> FOAM Warning : 
    From void* Foam::dlLibraryTable::openLibrary(const Foam::fileName&, bool)
    in file db/dynamicLibrary/dlLibraryTable/dlLibraryTable.C at line 188
    Could not load "libpetscFoam.so"
libpetscFoam.so: cannot open shared object file: No such file or directory
Processor 42: field transfer
--> FOAM Warning : 
    From void* Foam::dlLibraryTable::openLibrary(const Foam::fileName&, bool)
    in file db/dynamicLibrary/dlLibraryTable/dlLibraryTable.C at line 188
    Could not load "libpetscFoam.so"
libpetscFoam.so: cannot open shared object file: No such file or directory
Processor 43: field transfer
--> FOAM Warning : 
    From void* Foam::dlLibraryTable::openLibrary(const Foam::fileName&, bool)
    in file db/dynamicLibrary/dlLibraryTable/dlLibraryTable.C at line 188
    Could not load "libpetscFoam.so"
libpetscFoam.so: cannot open shared object file: No such file or directory
Processor 44: field transfer
--> FOAM Warning : 
    From void* Foam::dlLibraryTable::openLibrary(const Foam::fileName&, bool)
    in file db/dynamicLibrary/dlLibraryTable/dlLibraryTable.C at line 188
    Could not load "libpetscFoam.so"
libpetscFoam.so: cannot open shared object file: No such file or directory
Processor 45: field transfer
--> FOAM Warning : 
    From void* Foam::dlLibraryTable::openLibrary(const Foam::fileName&, bool)
    in file db/dynamicLibrary/dlLibraryTable/dlLibraryTable.C at line 188
    Could not load "libpetscFoam.so"
libpetscFoam.so: cannot open shared object file: No such file or directory
Processor 46: field transfer
--> FOAM Warning : 
    From void* Foam::dlLibraryTable::openLibrary(const Foam::fileName&, bool)
    in file db/dynamicLibrary/dlLibraryTable/dlLibraryTable.C at line 188
    Could not load "libpetscFoam.so"
libpetscFoam.so: cannot open shared object file: No such file or directory
Processor 47: field transfer
--> FOAM Warning : 
    From void* Foam::dlLibraryTable::openLibrary(const Foam::fileName&, bool)
    in file db/dynamicLibrary/dlLibraryTable/dlLibraryTable.C at line 188
    Could not load "libpetscFoam.so"
libpetscFoam.so: cannot open shared object file: No such file or directory

End

