/*---------------------------------------------------------------------------*\
| =========                 |                                                 |
| \\      /  F ield         | OpenFOAM: The Open Source CFD Toolbox           |
|  \\    /   O peration     | Version:  2306                                  |
|   \\  /    A nd           | Website:  www.openfoam.com                      |
|    \\/     M anipulation  |                                                 |
\*---------------------------------------------------------------------------*/
Build  : c423ebec-20231012 OPENFOAM=2306 version=v2306
Arch   : "LSB;label=32;scalar=64"
Exec   : simpleFoam -parallel -case /hkfs/work/workspace/scratch/eq4036-windsorbody_setup/workspace/a961e5166ccd1219860bb880110a1f4e/case
Date   : Feb 16 2024
Time   : 20:44:17
Host   : hkn0510.localdomain
PID    : 2584584
I/O    : uncollated
Case   : /hkfs/work/workspace/scratch/eq4036-windsorbody_setup/workspace/a961e5166ccd1219860bb880110a1f4e/case
nProcs : 12
Hosts  :
(
    (hkn0510.localdomain 6)
    (hkn0514.localdomain 6)
)
Pstream initialized with:
    floatTransfer      : false
    nProcsSimpleSum    : 0
    nonBlockingExchange: 0 (tuning: 0)
    exchange algorithm : -1
    commsType          : nonBlocking
    polling iterations : 0
trapFpe: Floating point exception trapping enabled (FOAM_SIGFPE).
fileModificationChecking : Monitoring run-time modified files using timeStampMaster (fileModificationSkew 5, maxFileModificationPolls 20)
allowSystemOperations : Allowing user-supplied system call operations

// * * * * * * * * * * * * * * * * * * * * * * * * * * * * * * * * * * * * * //
Create time

--> FOAM Warning : 
    From void* Foam::dlLibraryTable::openLibrary(const Foam::fileName&, bool)
    in file db/dynamicLibrary/dlLibraryTable/dlLibraryTable.C at line 188
    Could not load "libpetscFoam.so"
libpetscFoam.so: cannot open shared object file: No such file or directory
Create mesh for time = 0


SIMPLE: convergence criteria
    field p	 tolerance 1e-08
    field U	 tolerance 1e-08
    field k	 tolerance 1e-08
    field omega	 tolerance 1e-08
    field nuTilda	 tolerance 1e-08

Reading field p

Reading field U

Reading/calculating face flux field phi

Selecting incompressible transport model Newtonian
Selecting turbulence model type RAS
Selecting RAS turbulence model SpalartAllmaras
Selecting patchDistMethod meshWave
ft2 term: inactive
RAS
{
    RASModel        SpalartAllmaras;
    turbulence      on;
    printCoeffs     on;
    sigmaNut        0.66666;
    kappa           0.41;
    Cb1             0.1355;
    Cb2             0.622;
    Cw2             0.3;
    Cw3             2;
    Cv1             7.1;
    Cs              0.3;
    ck              0.07000000000000001;
    ft2             false;
    Ct3             1.2;
    Ct4             0.5;
}

No MRF models present

Creating finite volume options from "system/fvOptions"

Selecting finite volume options type velocityDampingConstraint
    Source: velocityDamping
    - selecting all cells
    - selected 6307136 cell(s) with volume 27.82583051608926

Starting time loop

--> FOAM Warning : 
    From bool Foam::functionObjectList::read()
    in file db/functionObjects/functionObjectList/functionObjectList.C at line 1035
    Reading "system/controlDict" at line 2 to 41
    Entry 'lref' is not a dictionary
--> FOAM Warning : 
    From bool Foam::functionObjectList::read()
    in file db/functionObjects/functionObjectList/functionObjectList.C at line 1035
    Reading "system/controlDict" at line 2 to 41
    Entry 'Aref' is not a dictionary
--> FOAM Warning : 
    From bool Foam::functionObjectList::read()
    in file db/functionObjects/functionObjectList/functionObjectList.C at line 1035
    Reading "system/controlDict" at line 2 to 41
    Entry 'yawAngle' is not a dictionary
--> FOAM Warning : 
    From bool Foam::functionObjectList::read()
    in file db/functionObjects/functionObjectList/functionObjectList.C at line 1035
    Reading "system/controlDict" at line 2 to 41
    Entry 'lDomain' is not a dictionary
--> FOAM Warning : 
    From bool Foam::functionObjectList::read()
    in file db/functionObjects/functionObjectList/functionObjectList.C at line 1035
    Reading "system/controlDict" at line 2 to 41
    Entry 'bDomain' is not a dictionary
--> FOAM Warning : 
    From bool Foam::functionObjectList::read()
    in file db/functionObjects/functionObjectList/functionObjectList.C at line 1035
    Reading "system/controlDict" at line 2 to 41
    Entry 'hDomain' is not a dictionary
--> FOAM Warning : 
    From bool Foam::functionObjectList::read()
    in file db/functionObjects/functionObjectList/functionObjectList.C at line 1035
    Reading "system/controlDict" at line 2 to 41
    Entry 'xCenter' is not a dictionary
--> FOAM Warning : 
    From bool Foam::functionObjectList::read()
    in file db/functionObjects/functionObjectList/functionObjectList.C at line 1035
    Reading "system/controlDict" at line 2 to 41
    Entry 'yCenter' is not a dictionary
--> FOAM Warning : 
    From bool Foam::functionObjectList::read()
    in file db/functionObjects/functionObjectList/functionObjectList.C at line 1035
    Reading "system/controlDict" at line 2 to 41
    Entry 'zCenter' is not a dictionary
--> FOAM Warning : 
    From bool Foam::functionObjectList::read()
    in file db/functionObjects/functionObjectList/functionObjectList.C at line 1035
    Reading "system/controlDict" at line 2 to 41
    Entry 'inletPatch' is not a dictionary
--> FOAM Warning : 
    From bool Foam::functionObjectList::read()
    in file db/functionObjects/functionObjectList/functionObjectList.C at line 1035
    Reading "system/controlDict" at line 2 to 41
    Entry 'outletPatch' is not a dictionary
--> FOAM Warning : 
    From bool Foam::functionObjectList::read()
    in file db/functionObjects/functionObjectList/functionObjectList.C at line 1035
    Reading "system/controlDict" at line 2 to 41
    Entry 'wallPatches' is not a dictionary
--> FOAM Warning : 
    From bool Foam::functionObjectList::read()
    in file db/functionObjects/functionObjectList/functionObjectList.C at line 1035
    Reading "system/controlDict" at line 2 to 41
    Entry 'forcesWallPatches' is not a dictionary
--> FOAM Warning : 
    From bool Foam::functionObjectList::read()
    in file db/functionObjects/functionObjectList/functionObjectList.C at line 1035
    Reading "system/controlDict" at line 2 to 41
    Entry 'symmPatches' is not a dictionary
--> FOAM Warning : 
    From bool Foam::functionObjectList::read()
    in file db/functionObjects/functionObjectList/functionObjectList.C at line 1035
    Reading "system/controlDict" at line 2 to 41
    Entry 'Uinf' is not a dictionary
--> FOAM Warning : 
    From bool Foam::functionObjectList::read()
    in file db/functionObjects/functionObjectList/functionObjectList.C at line 1035
    Reading "system/controlDict" at line 2 to 41
    Entry 'UinfMag' is not a dictionary
--> FOAM Warning : 
    From bool Foam::functionObjectList::read()
    in file db/functionObjects/functionObjectList/functionObjectList.C at line 1035
    Reading "system/controlDict" at line 2 to 41
    Entry 'nu' is not a dictionary
--> FOAM Warning : 
    From bool Foam::functionObjectList::read()
    in file db/functionObjects/functionObjectList/functionObjectList.C at line 1035
    Reading "system/controlDict" at line 2 to 41
    Entry 'pref' is not a dictionary
--> FOAM Warning : 
    From bool Foam::functionObjectList::read()
    in file db/functionObjects/functionObjectList/functionObjectList.C at line 1035
    Reading "system/controlDict" at line 2 to 41
    Entry 'viscRatio' is not a dictionary
--> FOAM Warning : 
    From bool Foam::functionObjectList::read()
    in file db/functionObjects/functionObjectList/functionObjectList.C at line 1035
    Reading "system/controlDict" at line 2 to 41
    Entry 'Tu' is not a dictionary
--> FOAM Warning : 
    From bool Foam::functionObjectList::read()
    in file db/functionObjects/functionObjectList/functionObjectList.C at line 1035
    Reading "system/controlDict" at line 2 to 41
    Entry 'LESturbModel' is not a dictionary
--> FOAM Warning : 
    From bool Foam::functionObjectList::read()
    in file db/functionObjects/functionObjectList/functionObjectList.C at line 1035
    Reading "system/controlDict" at line 2 to 41
    Entry 'RASturbModel' is not a dictionary
--> FOAM Warning : 
    From bool Foam::functionObjectList::read()
    in file db/functionObjects/functionObjectList/functionObjectList.C at line 1035
    Reading "system/controlDict" at line 2 to 41
    Entry 'deltaTurb' is not a dictionary
--> FOAM Warning : 
    From bool Foam::functionObjectList::read()
    in file db/functionObjects/functionObjectList/functionObjectList.C at line 1035
    Reading "system/controlDict" at line 2 to 41
    Entry 'dt' is not a dictionary
--> FOAM Warning : 
    From bool Foam::functionObjectList::read()
    in file db/functionObjects/functionObjectList/functionObjectList.C at line 1035
    Reading "system/controlDict" at line 2 to 41
    Entry 'tAvg' is not a dictionary
--> FOAM Warning : 
    From bool Foam::functionObjectList::read()
    in file db/functionObjects/functionObjectList/functionObjectList.C at line 1035
    Reading "system/controlDict" at line 2 to 41
    Entry 'tEnd' is not a dictionary
--> FOAM Warning : 
    From bool Foam::functionObjectList::read()
    in file db/functionObjects/functionObjectList/functionObjectList.C at line 1035
    Reading "system/controlDict" at line 2 to 41
    Entry 'writeInterval_' is not a dictionary
--> FOAM Warning : 
    From bool Foam::functionObjectList::read()
    in file db/functionObjects/functionObjectList/functionObjectList.C at line 1035
    Reading "system/controlDict" at line 2 to 41
    Entry 'nCores' is not a dictionary
--> FOAM Warning : 
    From bool Foam::functionObjectList::read()
    in file db/functionObjects/functionObjectList/functionObjectList.C at line 1035
    Reading "system/controlDict" at line 2 to 41
    Entry 'interpScheme' is not a dictionary
--> FOAM Warning : 
    From bool Foam::functionObjectList::read()
    in file db/functionObjects/functionObjectList/functionObjectList.C at line 1035
    Reading "system/controlDict" at line 2 to 41
    Entry 'probeField' is not a dictionary
wallShearStress wallShearStress:
    processing wall patches: 
        Windsor_Body
        CFDWT_Floor
        Windsor_Pins
        Windsor_Base

pressure calc_cp:
    Operating mode: staticCoeff
    Not including hydrostatic effects

forceCoeffs forceCoeffsAll:
    rho: rhoInf
    Freestream density (rhoInf) set to 1
    Not including porosity effects
    magUInf: 40
    lRef   : 0.6375
    Aref   : 0.1124
    rhoInf : 1
    Selecting all coefficients
    - Drag force: Cd
    - Drag force front: Cd(f)
    - Drag force rear: Cd(r)
    - Lift force: Cl
    - Lift force front: Cl(f)
    - Lift force rear: Cl(r)
    - Pitch moment: CmPitch
    - Roll moment: CmRoll
    - Yaw moment: CmYaw
    - Side force: Cs
    - Side force front: Cs(f)
    - Side force rear: Cs(r)


forceCoeffs dragCoeffBase:
    rho: rhoInf
    Freestream density (rhoInf) set to 1
    Not including porosity effects
    magUInf: 40
    lRef   : 0.6375
    Aref   : 0.1124
    rhoInf : 1
    Selecting coefficients:
    - Drag force: Cd


--> FOAM Warning : 
    From virtual void Foam::probes::findElements(const Foam::fvMesh&)
    in file probes/probes.C at line 249
    Location (-2 0 1.3) seems to be on multiple domains: cell 356754 on my domain 0 and cell 517610 on some other domain.
This might happen if the probe location is on a processor patch. Change the location slightly to prevent this.
--> FOAM Warning : 
    From virtual void Foam::probes::findElements(const Foam::fvMesh&)
    in file probes/probes.C at line 263
    Location (-2 0 1.3) seems to be on multiple domains: cell 1060127 on my domain 0 and face 1607923 on some other domain.
This might happen if the probe location is on a processor patch. Change the location slightly to prevent this.
Time = 1

velocityDampingConstraint velocityDamping damped 0 (0%) of cells, with max limit 300
[OGL LOG][lduLduBase.H:119] Initialising OGL
	OGL commit:  e75313f+
	Branch: dev 
	Build type: Debug
	Ginkgo version: 1.8.0 ( develop)
	Ginkgo commit: sparse-communicator
	MPI is GPU aware: 1
	Forces host buffer based communication: 0
	CPU ranks per GPU: 1
	Matrix format: Coo
	End OGL_INFO
[OGL LOG][Proc: 0]: global_index_init: 6.554 [ms]
[OGL LOG][Proc: 0]Ux_local_cols: call_init: 0.278 [ms]
[OGL LOG][Proc: 0]Ux_local_rows: call_init: 0.028 [ms]
[OGL LOG][Proc: 0]Ux_local_ldu_map: call_init: 0.011 [ms]
[OGL LOG][Proc: 0]Ux_local_coeffs: call_init: 3.181 [ms]
[OGL LOG][Proc: 0]Ux_non_local_cols: call_init: 0.037 [ms]
[OGL LOG][Proc: 0]Ux_non_local_rows: call_init: 0.008 [ms]
[OGL LOG][Proc: 0]Ux_non_local_ldu_map: call_init: 0.013 [ms]
[OGL LOG][Proc: 0]Ux_non_local_coeffs: call_init: 0.028 [ms]
[OGL LOG][Proc: 0]Ux: init_local_sparsity_pattern: 13508.928 [ms]
[OGL LOG][Proc: 0]Ux: init_non_local_sparsity_pattern: 377.762 [ms]
[OGL LOG][Proc: 0]Ux: update_local_matrix_data: 51.761 [ms]
[OGL LOG][Proc: 0]Ux: update_non_local_matrix_data: 0.476 [ms]
[OGL LOG][Proc: 0]device_partition: call_init: 0.166 [ms]
[OGL LOG][Proc: 0]Ux_matrix: call_init: 44.12 [ms]
[OGL LOG][Proc: 0]Ux_rhs: call_init: 2.705 [ms]
[OGL LOG][Proc: 0]Ux_solution: call_init: 2.129 [ms]
[OGL LOG][Preconditioner.H:121] Generate preconditioner BJ MaxBlockSize 1
[OGL LOG][Proc: 0]Ux: init_precond: 11.254 [ms]
[OGL LOG][StoppingCriterion.H:239] Creating stopping criterion with minIter 0 frequency 1
[OGL LOG][Proc: 0]Ux: generate_solver: 0.315 [ms]
[OGL LOG][Proc: 0]Ux: solve: 116.427 [ms]
[OGL LOG][Proc: 0]Ux: copy_x_back: 1.196 [ms]
[OGL LOG][lduLduBase.H:330] 
Statistics:
	Time per iteration: 16632 [mu s]
	Time per residual norm calculation: 4740.000000 [mu s]
	Time per iteration and DOF: 2.637013 [ns]
	Retrieve results bandwidth 3.483000 [GByte/s]
[OGL LOG][Proc: 0]Ux: solve_multi_gpu: 653.295 [ms]
BJcudaGKOBiCGStab:  Solving for Ux, Initial residual = 1.000000000000475, Final residual = 0.04568454760918716, No Iterations 7
[OGL LOG][lduLduBase.H:119] Initialising OGL
	OGL commit:  e75313f+
	Branch: dev 
	Build type: Debug
	Ginkgo version: 1.8.0 ( develop)
	Ginkgo commit: sparse-communicator
	MPI is GPU aware: 1
	Forces host buffer based communication: 0
	CPU ranks per GPU: 1
	Matrix format: Coo
	End OGL_INFO
[OGL LOG][Proc: 0]: global_index_init: 0.267 [ms]
[OGL LOG][Proc: 0]Uy_local_cols: call_init: 0.901 [ms]
[OGL LOG][Proc: 0]Uy_local_rows: call_init: 0.512 [ms]
[OGL LOG][Proc: 0]Uy_local_ldu_map: call_init: 0.155 [ms]
[OGL LOG][Proc: 0]Uy_local_coeffs: call_init: 0.824 [ms]
[OGL LOG][Proc: 0]Uy_non_local_cols: call_init: 0.303 [ms]
[OGL LOG][Proc: 0]Uy_non_local_rows: call_init: 0.115 [ms]
[OGL LOG][Proc: 0]Uy_non_local_ldu_map: call_init: 0.4 [ms]
[OGL LOG][Proc: 0]Uy_non_local_coeffs: call_init: 0.223 [ms]
[OGL LOG][Proc: 0]Uy: init_local_sparsity_pattern: 13498.863 [ms]
[OGL LOG][Proc: 0]Uy: init_non_local_sparsity_pattern: 378.02 [ms]
[OGL LOG][Proc: 0]Uy: update_local_matrix_data: 18.016 [ms]
[OGL LOG][Proc: 0]Uy: update_non_local_matrix_data: 0.439 [ms]
[OGL LOG][Proc: 0]Uy_matrix: call_init: 45.667 [ms]
[OGL LOG][Proc: 0]Uy_rhs: call_init: 3.17 [ms]
[OGL LOG][Proc: 0]Uy_solution: call_init: 3.135 [ms]
[OGL LOG][Preconditioner.H:121] Generate preconditioner BJ MaxBlockSize 1
[OGL LOG][Proc: 0]Uy: init_precond: 1.186 [ms]
[OGL LOG][StoppingCriterion.H:239] Creating stopping criterion with minIter 0 frequency 1
[OGL LOG][Proc: 0]Uy: generate_solver: 0.024 [ms]
[OGL LOG][Proc: 0]Uy: solve: 129.943 [ms]
[OGL LOG][Proc: 0]Uy: copy_x_back: 1.163 [ms]
[OGL LOG][lduLduBase.H:330] 
Statistics:
	Time per iteration: 12994 [mu s]
	Time per residual norm calculation: 1605.000000 [mu s]
	Time per iteration and DOF: 2.060206 [ns]
	Retrieve results bandwidth 3.582000 [GByte/s]
[OGL LOG][Proc: 0]Uy: solve_multi_gpu: 676.634 [ms]
BJcudaGKOBiCGStab:  Solving for Uy, Initial residual = 1.000000000000005, Final residual = 0.07725065440042854, No Iterations 10
[OGL LOG][lduLduBase.H:119] Initialising OGL
	OGL commit:  e75313f+
	Branch: dev 
	Build type: Debug
	Ginkgo version: 1.8.0 ( develop)
	Ginkgo commit: sparse-communicator
	MPI is GPU aware: 1
	Forces host buffer based communication: 0
	CPU ranks per GPU: 1
	Matrix format: Coo
	End OGL_INFO
[OGL LOG][Proc: 0]: global_index_init: 0.414 [ms]
[OGL LOG][Proc: 0]Uz_local_cols: call_init: 0.258 [ms]
[OGL LOG][Proc: 0]Uz_local_rows: call_init: 0.5 [ms]
[OGL LOG][Proc: 0]Uz_local_ldu_map: call_init: 0.439 [ms]
[OGL LOG][Proc: 0]Uz_local_coeffs: call_init: 0.675 [ms]
[OGL LOG][Proc: 0]Uz_non_local_cols: call_init: 0.242 [ms]
[OGL LOG][Proc: 0]Uz_non_local_rows: call_init: 0.411 [ms]
[OGL LOG][Proc: 0]Uz_non_local_ldu_map: call_init: 0.202 [ms]
[OGL LOG][Proc: 0]Uz_non_local_coeffs: call_init: 0.244 [ms]
[OGL LOG][Proc: 0]Uz: init_local_sparsity_pattern: 13515.658 [ms]
[OGL LOG][Proc: 0]Uz: init_non_local_sparsity_pattern: 371.755 [ms]
[OGL LOG][Proc: 0]Uz: update_local_matrix_data: 18.817 [ms]
[OGL LOG][Proc: 0]Uz: update_non_local_matrix_data: 0.378 [ms]
[OGL LOG][Proc: 0]Uz_matrix: call_init: 46.678 [ms]
[OGL LOG][Proc: 0]Uz_rhs: call_init: 3.118 [ms]
[OGL LOG][Proc: 0]Uz_solution: call_init: 3.47 [ms]
[OGL LOG][Preconditioner.H:121] Generate preconditioner BJ MaxBlockSize 1
[OGL LOG][Proc: 0]Uz: init_precond: 1.234 [ms]
[OGL LOG][StoppingCriterion.H:239] Creating stopping criterion with minIter 0 frequency 1
[OGL LOG][Proc: 0]Uz: generate_solver: 0.024 [ms]
[OGL LOG][Proc: 0]Uz: solve: 46.583 [ms]
[OGL LOG][Proc: 0]Uz: copy_x_back: 1.117 [ms]
[OGL LOG][lduLduBase.H:330] 
Statistics:
	Time per iteration: 46583 [mu s]
	Time per residual norm calculation: 1623.000000 [mu s]
	Time per iteration and DOF: 7.385761 [ns]
	Retrieve results bandwidth 3.730000 [GByte/s]
[OGL LOG][Proc: 0]Uz: solve_multi_gpu: 578.465 [ms]
BJcudaGKOBiCGStab:  Solving for Uz, Initial residual = 1.000000000000008, Final residual = 0.07317246117889273, No Iterations 1
[OGL LOG][lduLduBase.H:119] Initialising OGL
	OGL commit:  e75313f+
	Branch: dev 
	Build type: Debug
	Ginkgo version: 1.8.0 ( develop)
	Ginkgo commit: sparse-communicator
	MPI is GPU aware: 1
	Forces host buffer based communication: 0
	CPU ranks per GPU: 1
	Matrix format: Coo
	End OGL_INFO
[OGL LOG][Proc: 0]: global_index_init: 0.605 [ms]
[OGL LOG][Proc: 0]p_local_cols: call_init: 0.802 [ms]
[OGL LOG][Proc: 0]p_local_rows: call_init: 0.382 [ms]
[OGL LOG][Proc: 0]p_local_ldu_map: call_init: 0.429 [ms]
[OGL LOG][Proc: 0]p_local_coeffs: call_init: 0.97 [ms]
[OGL LOG][Proc: 0]p_non_local_cols: call_init: 0.32 [ms]
[OGL LOG][Proc: 0]p_non_local_rows: call_init: 0.249 [ms]
[OGL LOG][Proc: 0]p_non_local_ldu_map: call_init: 0.36 [ms]
[OGL LOG][Proc: 0]p_non_local_coeffs: call_init: 0.339 [ms]
[OGL LOG][Proc: 0]p: init_local_sparsity_pattern: 13497.216 [ms]
[OGL LOG][Proc: 0]p: init_non_local_sparsity_pattern: 367.817 [ms]
[OGL LOG][Proc: 0]p: update_local_matrix_data: 11.893 [ms]
[OGL LOG][Proc: 0]p: update_non_local_matrix_data: 0.397 [ms]
[OGL LOG][Proc: 0]p_matrix: call_init: 49.193 [ms]
[OGL LOG][Proc: 0]p_rhs: call_init: 1.577 [ms]
[OGL LOG][Proc: 0]p_solution: call_init: 1.028 [ms]
[OGL LOG][Preconditioner.H:121] Generate preconditioner BJ MaxBlockSize 1
[OGL LOG][Proc: 0]p: init_precond: 1.418 [ms]
[OGL LOG][StoppingCriterion.H:239] Creating stopping criterion with minIter 0 frequency 1
[OGL LOG][Proc: 0]p: generate_solver: 0.078 [ms]
[OGL LOG][Proc: 0]p: solve: 4466.834 [ms]
[OGL LOG][Proc: 0]p: copy_x_back: 1.647 [ms]
[OGL LOG][lduLduBase.H:330] 
Statistics:
	Time per iteration: 3734 [mu s]
	Time per residual norm calculation: 1271.000000 [mu s]
	Time per iteration and DOF: 0.592028 [ns]
	Retrieve results bandwidth 2.529000 [GByte/s]
[OGL LOG][Proc: 0]p: solve_multi_gpu: 5077.766 [ms]
BJcudaGKOCG:  Solving for p, Initial residual = 1.000000000000167, Final residual = 0.009974016634550794, No Iterations 1196
time step continuity errors : sum local = 0.003613794772554359, global = 6.572351654333245e-05, cumulative = 6.572351654333245e-05
[OGL LOG][lduLduBase.H:119] Initialising OGL
	OGL commit:  e75313f+
	Branch: dev 
	Build type: Debug
	Ginkgo version: 1.8.0 ( develop)
	Ginkgo commit: sparse-communicator
	MPI is GPU aware: 1
	Forces host buffer based communication: 0
	CPU ranks per GPU: 1
	Matrix format: Coo
	End OGL_INFO
[OGL LOG][Proc: 0]: global_index_init: 1.005 [ms]
[OGL LOG][Proc: 0]nuTilda_local_cols: call_init: 0.03 [ms]
[OGL LOG][Proc: 0]nuTilda_local_rows: call_init: 0.034 [ms]
[OGL LOG][Proc: 0]nuTilda_local_ldu_map: call_init: 0.015 [ms]
[OGL LOG][Proc: 0]nuTilda_local_coeffs: call_init: 0.505 [ms]
[OGL LOG][Proc: 0]nuTilda_non_local_cols: call_init: 0.024 [ms]
[OGL LOG][Proc: 0]nuTilda_non_local_rows: call_init: 0.008999999999999999 [ms]
[OGL LOG][Proc: 0]nuTilda_non_local_ldu_map: call_init: 0.018 [ms]
[OGL LOG][Proc: 0]nuTilda_non_local_coeffs: call_init: 0.01 [ms]
[OGL LOG][Proc: 0]nuTilda: init_local_sparsity_pattern: 13576.604 [ms]
[OGL LOG][Proc: 0]nuTilda: init_non_local_sparsity_pattern: 286.817 [ms]
[OGL LOG][Proc: 0]nuTilda: update_local_matrix_data: 17.057 [ms]
[OGL LOG][Proc: 0]nuTilda: update_non_local_matrix_data: 0.376 [ms]
[OGL LOG][Proc: 0]nuTilda_matrix: call_init: 48.133 [ms]
[OGL LOG][Proc: 0]nuTilda_rhs: call_init: 1.861 [ms]
[OGL LOG][Proc: 0]nuTilda_solution: call_init: 1.753 [ms]
[OGL LOG][Preconditioner.H:121] Generate preconditioner BJ MaxBlockSize 1
[OGL LOG][Proc: 0]nuTilda: init_precond: 1.532 [ms]
[OGL LOG][StoppingCriterion.H:239] Creating stopping criterion with minIter 0 frequency 1
[OGL LOG][Proc: 0]nuTilda: generate_solver: 0.027 [ms]
[OGL LOG][Proc: 0]nuTilda: solve: 59.976 [ms]
[OGL LOG][Proc: 0]nuTilda: copy_x_back: 1.151 [ms]
[OGL LOG][lduLduBase.H:330] 
Statistics:
	Time per iteration: 19992 [mu s]
	Time per residual norm calculation: 1620.000000 [mu s]
	Time per iteration and DOF: 3.169743 [ns]
	Retrieve results bandwidth 3.620000 [GByte/s]
[OGL LOG][Proc: 0]nuTilda: solve_multi_gpu: 595.663 [ms]
BJcudaGKOBiCGStab:  Solving for nuTilda, Initial residual = 0.9999999995032276, Final residual = 0.03402599605693568, No Iterations 3
bounding nuTilda, min: -0.0003602191672198673 max: 0.001578969479660948 average: 7.150178860385226e-05
ExecutionTime = 84.42 s  ClockTime = 86 s

--> FOAM Warning : 
    From virtual bool Foam::functionObjects::fieldSelection::checkSelection()
    in file functionObjects/fieldSelections/fieldSelection/fieldSelection.C at line 166
    Field k not found
--> FOAM Warning : 
    From virtual bool Foam::functionObjects::fieldSelection::checkSelection()
    in file functionObjects/fieldSelections/fieldSelection/fieldSelection.C at line 166
    Field gammaInt not found
--> FOAM Warning : 
    From virtual bool Foam::functionObjects::fieldSelection::checkSelection()
    in file functionObjects/fieldSelections/fieldSelection/fieldSelection.C at line 166
    Field omega not found
--> FOAM Warning : 
    From virtual bool Foam::functionObjects::fieldSelection::checkSelection()
    in file functionObjects/fieldSelections/fieldSelection/fieldSelection.C at line 166
    Field ReThetat not found
--> FOAM Warning : 
    From virtual bool Foam::functionObjects::fieldSelection::checkSelection()
    in file functionObjects/fieldSelections/fieldSelection/fieldSelection.C at line 166
    Field epsilon not found
--> FOAM Warning : 
    From virtual bool Foam::functionObjects::solverFieldSelection::updateSelection()
    in file functionObjects/fieldSelections/solverFieldSelection/solverFieldSelection.C at line 85
    Valid solver fields are: 3(U nuTilda p)Time = 2

velocityDampingConstraint velocityDamping damped 0 (0%) of cells, with max limit 300
[OGL LOG][Proc: 0]: global_index_init: 0.106 [ms]
[OGL LOG][Proc: 0]Ux_local_coeffs: call_update: 0.001 [ms]
[OGL LOG][Proc: 0]Ux_non_local_coeffs: call_update: 0 [ms]
[OGL LOG][Proc: 0]Ux: update_local_matrix_data: 22.256 [ms]
[OGL LOG][Proc: 0]Ux: update_non_local_matrix_data: 0.378 [ms]
[OGL LOG][Proc: 0]Ux_matrix: call_update: 1.742 [ms]
[OGL LOG][Proc: 0]Ux_rhs: call_update: 0.968 [ms]
[OGL LOG][Preconditioner.H:121] Generate preconditioner BJ MaxBlockSize 1
[OGL LOG][Proc: 0]Ux: init_precond: 1.447 [ms]
[OGL LOG][StoppingCriterion.H:239] Creating stopping criterion with minIter 8 frequency 1
[OGL LOG][Proc: 0]Ux: generate_solver: 0.016 [ms]
[OGL LOG][Proc: 0]Ux: solve: 57.24 [ms]
[OGL LOG][Proc: 0]Ux: copy_x_back: 1.13 [ms]
[OGL LOG][lduLduBase.H:330] 
Statistics:
	Time per iteration: 14310 [mu s]
	Time per residual norm calculation: 1784.000000 [mu s]
	Time per iteration and DOF: 2.268859 [ns]
	Retrieve results bandwidth 3.687000 [GByte/s]
[OGL LOG][Proc: 0]Ux: solve_multi_gpu: 65.413 [ms]
BJcudaGKOBiCGStab:  Solving for Ux, Initial residual = 0.8165914248601953, Final residual = 0.009512257520179606, No Iterations 4
[OGL LOG][Proc: 0]: global_index_init: 0.33 [ms]
[OGL LOG][Proc: 0]Uy_local_coeffs: call_update: 0 [ms]
[OGL LOG][Proc: 0]Uy_non_local_coeffs: call_update: 0 [ms]
[OGL LOG][Proc: 0]Uy: update_local_matrix_data: 21.268 [ms]
[OGL LOG][Proc: 0]Uy: update_non_local_matrix_data: 0.407 [ms]
[OGL LOG][Proc: 0]Uy_matrix: call_update: 2.175 [ms]
[OGL LOG][Proc: 0]Uy_rhs: call_update: 0.525 [ms]
[OGL LOG][Preconditioner.H:121] Generate preconditioner BJ MaxBlockSize 1
[OGL LOG][Proc: 0]Uy: init_precond: 1.157 [ms]
[OGL LOG][StoppingCriterion.H:239] Creating stopping criterion with minIter 12 frequency 1
[OGL LOG][Proc: 0]Uy: generate_solver: 0.014 [ms]
[OGL LOG][Proc: 0]Uy: solve: 74.145 [ms]
[OGL LOG][Proc: 0]Uy: copy_x_back: 1.198 [ms]
[OGL LOG][lduLduBase.H:330] 
Statistics:
	Time per iteration: 10592 [mu s]
	Time per residual norm calculation: 1625.000000 [mu s]
	Time per iteration and DOF: 1.679368 [ns]
	Retrieve results bandwidth 3.478000 [GByte/s]
[OGL LOG][Proc: 0]Uy: solve_multi_gpu: 82.70999999999999 [ms]
BJcudaGKOBiCGStab:  Solving for Uy, Initial residual = 0.9991853525394327, Final residual = 0.002348499848252576, No Iterations 7
[OGL LOG][Proc: 0]: global_index_init: 0.037 [ms]
[OGL LOG][Proc: 0]Uz_local_coeffs: call_update: 0 [ms]
[OGL LOG][Proc: 0]Uz_non_local_coeffs: call_update: 0 [ms]
[OGL LOG][Proc: 0]Uz: update_local_matrix_data: 20.108 [ms]
[OGL LOG][Proc: 0]Uz: update_non_local_matrix_data: 0.422 [ms]
[OGL LOG][Proc: 0]Uz_matrix: call_update: 1.581 [ms]
[OGL LOG][Proc: 0]Uz_rhs: call_update: 1.001 [ms]
[OGL LOG][Preconditioner.H:121] Generate preconditioner BJ MaxBlockSize 1
[OGL LOG][Proc: 0]Uz: init_precond: 1.047 [ms]
[OGL LOG][StoppingCriterion.H:239] Creating stopping criterion with minIter 1 frequency 1
[OGL LOG][Proc: 0]Uz: generate_solver: 0.013 [ms]
[OGL LOG][Proc: 0]Uz: solve: 43.098 [ms]
[OGL LOG][Proc: 0]Uz: copy_x_back: 1.17 [ms]
[OGL LOG][lduLduBase.H:330] 
Statistics:
	Time per iteration: 21549 [mu s]
	Time per residual norm calculation: 1448.000000 [mu s]
	Time per iteration and DOF: 3.416606 [ns]
	Retrieve results bandwidth 3.561000 [GByte/s]
[OGL LOG][Proc: 0]Uz: solve_multi_gpu: 51.769 [ms]
BJcudaGKOBiCGStab:  Solving for Uz, Initial residual = 0.9999786744060087, Final residual = 0.09490727013980869, No Iterations 2
[OGL LOG][Proc: 0]: global_index_init: 0.123 [ms]
[OGL LOG][Proc: 0]p_local_coeffs: call_update: 0 [ms]
[OGL LOG][Proc: 0]p_non_local_coeffs: call_update: 0 [ms]
[OGL LOG][Proc: 0]p: update_local_matrix_data: 17.527 [ms]
[OGL LOG][Proc: 0]p: update_non_local_matrix_data: 0.432 [ms]
[OGL LOG][Proc: 0]p_matrix: call_update: 1.529 [ms]
[OGL LOG][Proc: 0]p_rhs: call_update: 1.021 [ms]
[OGL LOG][Preconditioner.H:121] Generate preconditioner BJ MaxBlockSize 1
[OGL LOG][Proc: 0]p: init_precond: 1.309 [ms]
[OGL LOG][StoppingCriterion.H:239] Creating stopping criterion with minIter 717 frequency 15
[OGL LOG][Proc: 0]p: generate_solver: 0.017 [ms]
[OGL LOG][Proc: 0]p: solve: 2276.487 [ms]
[OGL LOG][Proc: 0]p: copy_x_back: 1.482 [ms]
[OGL LOG][lduLduBase.H:330] 
Statistics:
	Time per iteration: 2485 [mu s]
	Time per residual norm calculation: 1395.000000 [mu s]
	Time per iteration and DOF: 0.393998 [ns]
	Retrieve results bandwidth 2.811000 [GByte/s]
[OGL LOG][Proc: 0]p: solve_multi_gpu: 2283.791 [ms]
BJcudaGKOCG:  Solving for p, Initial residual = 0.4332577973591261, Final residual = 0.004070684086624463, No Iterations 916
time step continuity errors : sum local = 0.0890870679192466, global = 0.004665952077002135, cumulative = 0.004731675593545467
[OGL LOG][Proc: 0]: global_index_init: 1.651 [ms]
[OGL LOG][Proc: 0]nuTilda_local_coeffs: call_update: 0 [ms]
[OGL LOG][Proc: 0]nuTilda_non_local_coeffs: call_update: 0 [ms]
[OGL LOG][Proc: 0]nuTilda: update_local_matrix_data: 19.993 [ms]
[OGL LOG][Proc: 0]nuTilda: update_non_local_matrix_data: 0.393 [ms]
[OGL LOG][Proc: 0]nuTilda_matrix: call_update: 1.698 [ms]
[OGL LOG][Proc: 0]nuTilda_rhs: call_update: 0.67 [ms]
[OGL LOG][Preconditioner.H:121] Generate preconditioner BJ MaxBlockSize 1
[OGL LOG][Proc: 0]nuTilda: init_precond: 1.444 [ms]
[OGL LOG][StoppingCriterion.H:239] Creating stopping criterion with minIter 3 frequency 1
[OGL LOG][Proc: 0]nuTilda: generate_solver: 0.019 [ms]
[OGL LOG][Proc: 0]nuTilda: solve: 41.474 [ms]
[OGL LOG][Proc: 0]nuTilda: copy_x_back: 1.156 [ms]
[OGL LOG][lduLduBase.H:330] 
Statistics:
	Time per iteration: 20737 [mu s]
	Time per residual norm calculation: 1405.000000 [mu s]
	Time per iteration and DOF: 3.287863 [ns]
	Retrieve results bandwidth 3.604000 [GByte/s]
[OGL LOG][Proc: 0]nuTilda: solve_multi_gpu: 51.108 [ms]
BJcudaGKOBiCGStab:  Solving for nuTilda, Initial residual = 0.2524199623877229, Final residual = 0.01614513746741513, No Iterations 2
ExecutionTime = 88.79000000000001 s  ClockTime = 93 s

Time = 3

velocityDampingConstraint velocityDamping damped 4863 (0.08%) of cells, with max limit 300
[OGL LOG][Proc: 0]: global_index_init: 0.017 [ms]
[OGL LOG][Proc: 0]Ux_local_coeffs: call_update: 0 [ms]
[OGL LOG][Proc: 0]Ux_non_local_coeffs: call_update: 0 [ms]
[OGL LOG][Proc: 0]Ux: update_local_matrix_data: 21.206 [ms]
[OGL LOG][Proc: 0]Ux: update_non_local_matrix_data: 0.377 [ms]
[OGL LOG][Proc: 0]Ux_matrix: call_update: 1.777 [ms]
[OGL LOG][Proc: 0]Ux_rhs: call_update: 0.525 [ms]
[OGL LOG][Preconditioner.H:121] Generate preconditioner BJ MaxBlockSize 1
[OGL LOG][Proc: 0]Ux: init_precond: 1.13 [ms]
[OGL LOG][StoppingCriterion.H:239] Creating stopping criterion with minIter 5 frequency 1
[OGL LOG][Proc: 0]Ux: generate_solver: 0.015 [ms]
[OGL LOG][Proc: 0]Ux: solve: 42.574 [ms]
[OGL LOG][Proc: 0]Ux: copy_x_back: 1.145 [ms]
[OGL LOG][lduLduBase.H:330] 
Statistics:
	Time per iteration: 14191 [mu s]
	Time per residual norm calculation: 1411.000000 [mu s]
	Time per iteration and DOF: 2.249991 [ns]
	Retrieve results bandwidth 3.639000 [GByte/s]
[OGL LOG][Proc: 0]Ux: solve_multi_gpu: 50.176 [ms]
BJcudaGKOBiCGStab:  Solving for Ux, Initial residual = 0.3108998453395447, Final residual = 0.004425000668368108, No Iterations 3
[OGL LOG][Proc: 0]: global_index_init: 0.03 [ms]
[OGL LOG][Proc: 0]Uy_local_coeffs: call_update: 0 [ms]
[OGL LOG][Proc: 0]Uy_non_local_coeffs: call_update: 0 [ms]
[OGL LOG][Proc: 0]Uy: update_local_matrix_data: 20.299 [ms]
[OGL LOG][Proc: 0]Uy: update_non_local_matrix_data: 0.438 [ms]
[OGL LOG][Proc: 0]Uy_matrix: call_update: 1.703 [ms]
[OGL LOG][Proc: 0]Uy_rhs: call_update: 0.638 [ms]
[OGL LOG][Preconditioner.H:121] Generate preconditioner BJ MaxBlockSize 1
[OGL LOG][Proc: 0]Uy: init_precond: 1.436 [ms]
[OGL LOG][StoppingCriterion.H:239] Creating stopping criterion with minIter 8 frequency 1
[OGL LOG][Proc: 0]Uy: generate_solver: 0.019 [ms]
[OGL LOG][Proc: 0]Uy: solve: 48.888 [ms]
[OGL LOG][Proc: 0]Uy: copy_x_back: 1.137 [ms]
[OGL LOG][lduLduBase.H:330] 
Statistics:
	Time per iteration: 12222 [mu s]
	Time per residual norm calculation: 1267.000000 [mu s]
	Time per iteration and DOF: 1.937805 [ns]
	Retrieve results bandwidth 3.664000 [GByte/s]
[OGL LOG][Proc: 0]Uy: solve_multi_gpu: 58.325 [ms]
BJcudaGKOBiCGStab:  Solving for Uy, Initial residual = 0.2792245636788633, Final residual = 0.006138682474906032, No Iterations 4
[OGL LOG][Proc: 0]: global_index_init: 0.035 [ms]
[OGL LOG][Proc: 0]Uz_local_coeffs: call_update: 0 [ms]
[OGL LOG][Proc: 0]Uz_non_local_coeffs: call_update: 0 [ms]
[OGL LOG][Proc: 0]Uz: update_local_matrix_data: 19.979 [ms]
[OGL LOG][Proc: 0]Uz: update_non_local_matrix_data: 0.393 [ms]
[OGL LOG][Proc: 0]Uz_matrix: call_update: 1.618 [ms]
[OGL LOG][Proc: 0]Uz_rhs: call_update: 0.728 [ms]
[OGL LOG][Preconditioner.H:121] Generate preconditioner BJ MaxBlockSize 1
[OGL LOG][Proc: 0]Uz: init_precond: 1.049 [ms]
[OGL LOG][StoppingCriterion.H:239] Creating stopping criterion with minIter 2 frequency 1
[OGL LOG][Proc: 0]Uz: generate_solver: 0.015 [ms]
[OGL LOG][Proc: 0]Uz: solve: 42.184 [ms]
[OGL LOG][Proc: 0]Uz: copy_x_back: 1.127 [ms]
[OGL LOG][lduLduBase.H:330] 
Statistics:
	Time per iteration: 21092 [mu s]
	Time per residual norm calculation: 1265.000000 [mu s]
	Time per iteration and DOF: 3.344149 [ns]
	Retrieve results bandwidth 3.697000 [GByte/s]
[OGL LOG][Proc: 0]Uz: solve_multi_gpu: 51.901 [ms]
BJcudaGKOBiCGStab:  Solving for Uz, Initial residual = 0.2530114594641987, Final residual = 0.02508859402207623, No Iterations 2
[OGL LOG][Proc: 0]: global_index_init: 0.06900000000000001 [ms]
[OGL LOG][Proc: 0]p_local_coeffs: call_update: 0 [ms]
[OGL LOG][Proc: 0]p_non_local_coeffs: call_update: 0 [ms]
[OGL LOG][Proc: 0]p: update_local_matrix_data: 15.8 [ms]
[OGL LOG][Proc: 0]p: update_non_local_matrix_data: 0.385 [ms]
[OGL LOG][Proc: 0]p_matrix: call_update: 1.724 [ms]
[OGL LOG][Proc: 0]p_rhs: call_update: 0.587 [ms]
[OGL LOG][Preconditioner.H:121] Generate preconditioner BJ MaxBlockSize 1
[OGL LOG][Proc: 0]p: init_precond: 1.403 [ms]
[OGL LOG][StoppingCriterion.H:239] Creating stopping criterion with minIter 549 frequency 19
[OGL LOG][Proc: 0]p: generate_solver: 0.017 [ms]
[OGL LOG][Proc: 0]p: solve: 2544.065 [ms]
[OGL LOG][Proc: 0]p: copy_x_back: 1.404 [ms]
[OGL LOG][lduLduBase.H:330] 
Statistics:
	Time per iteration: 2477 [mu s]
	Time per residual norm calculation: 965.000000 [mu s]
	Time per iteration and DOF: 0.392730 [ns]
	Retrieve results bandwidth 2.967000 [GByte/s]
[OGL LOG][Proc: 0]p: solve_multi_gpu: 2552.447 [ms]
BJcudaGKOCG:  Solving for p, Initial residual = 0.2937407565008656, Final residual = 0.002852330464259919, No Iterations 1027
time step continuity errors : sum local = 0.02311077500698488, global = -0.0001607106915252998, cumulative = 0.004570964902020167
[OGL LOG][Proc: 0]: global_index_init: 1.512 [ms]
[OGL LOG][Proc: 0]nuTilda_local_coeffs: call_update: 0 [ms]
[OGL LOG][Proc: 0]nuTilda_non_local_coeffs: call_update: 0 [ms]
[OGL LOG][Proc: 0]nuTilda: update_local_matrix_data: 20.55 [ms]
[OGL LOG][Proc: 0]nuTilda: update_non_local_matrix_data: 0.443 [ms]
[OGL LOG][Proc: 0]nuTilda_matrix: call_update: 1.724 [ms]
[OGL LOG][Proc: 0]nuTilda_rhs: call_update: 0.728 [ms]
[OGL LOG][Preconditioner.H:121] Generate preconditioner BJ MaxBlockSize 1
[OGL LOG][Proc: 0]nuTilda: init_precond: 1.476 [ms]
[OGL LOG][StoppingCriterion.H:239] Creating stopping criterion with minIter 3 frequency 1
[OGL LOG][Proc: 0]nuTilda: generate_solver: 0.016 [ms]
[OGL LOG][Proc: 0]nuTilda: solve: 37.264 [ms]
[OGL LOG][Proc: 0]nuTilda: copy_x_back: 1.108 [ms]
[OGL LOG][lduLduBase.H:330] 
Statistics:
	Time per iteration: 18632 [mu s]
	Time per residual norm calculation: 981.000000 [mu s]
	Time per iteration and DOF: 2.954114 [ns]
	Retrieve results bandwidth 3.760000 [GByte/s]
[OGL LOG][Proc: 0]nuTilda: solve_multi_gpu: 45.944 [ms]
BJcudaGKOBiCGStab:  Solving for nuTilda, Initial residual = 0.229657975030553, Final residual = 0.01195941667612655, No Iterations 2
ExecutionTime = 93.40000000000001 s  ClockTime = 98 s

Time = 4

velocityDampingConstraint velocityDamping damped 119 (0%) of cells, with max limit 300
[OGL LOG][Proc: 0]: global_index_init: 0.117 [ms]
[OGL LOG][Proc: 0]Ux_local_coeffs: call_update: 0 [ms]
[OGL LOG][Proc: 0]Ux_non_local_coeffs: call_update: 0 [ms]
[OGL LOG][Proc: 0]Ux: update_local_matrix_data: 21.041 [ms]
[OGL LOG][Proc: 0]Ux: update_non_local_matrix_data: 0.369 [ms]
[OGL LOG][Proc: 0]Ux_matrix: call_update: 1.48 [ms]
[OGL LOG][Proc: 0]Ux_rhs: call_update: 0.832 [ms]
[OGL LOG][Preconditioner.H:121] Generate preconditioner BJ MaxBlockSize 1
[OGL LOG][Proc: 0]Ux: init_precond: 1.396 [ms]
[OGL LOG][StoppingCriterion.H:239] Creating stopping criterion with minIter 3 frequency 1
[OGL LOG][Proc: 0]Ux: generate_solver: 0.019 [ms]
[OGL LOG][Proc: 0]Ux: solve: 48.89 [ms]
[OGL LOG][Proc: 0]Ux: copy_x_back: 1.149 [ms]
[OGL LOG][lduLduBase.H:330] 
Statistics:
	Time per iteration: 16296 [mu s]
	Time per residual norm calculation: 1263.000000 [mu s]
	Time per iteration and DOF: 2.583740 [ns]
	Retrieve results bandwidth 3.626000 [GByte/s]
[OGL LOG][Proc: 0]Ux: solve_multi_gpu: 57.798 [ms]
BJcudaGKOBiCGStab:  Solving for Ux, Initial residual = 0.05087268691339962, Final residual = 0.00435379812515615, No Iterations 3
[OGL LOG][Proc: 0]: global_index_init: 0.105 [ms]
[OGL LOG][Proc: 0]Uy_local_coeffs: call_update: 0 [ms]
[OGL LOG][Proc: 0]Uy_non_local_coeffs: call_update: 0 [ms]
[OGL LOG][Proc: 0]Uy: update_local_matrix_data: 20.631 [ms]
[OGL LOG][Proc: 0]Uy: update_non_local_matrix_data: 0.358 [ms]
[OGL LOG][Proc: 0]Uy_matrix: call_update: 2.015 [ms]
[OGL LOG][Proc: 0]Uy_rhs: call_update: 0.518 [ms]
[OGL LOG][Preconditioner.H:121] Generate preconditioner BJ MaxBlockSize 1
[OGL LOG][Proc: 0]Uy: init_precond: 1.151 [ms]
[OGL LOG][StoppingCriterion.H:239] Creating stopping criterion with minIter 5 frequency 1
[OGL LOG][Proc: 0]Uy: generate_solver: 0.013 [ms]
[OGL LOG][Proc: 0]Uy: solve: 47.823 [ms]
[OGL LOG][Proc: 0]Uy: copy_x_back: 1.16 [ms]
[OGL LOG][lduLduBase.H:330] 
Statistics:
	Time per iteration: 15941 [mu s]
	Time per residual norm calculation: 1599.000000 [mu s]
	Time per iteration and DOF: 2.527455 [ns]
	Retrieve results bandwidth 3.592000 [GByte/s]
[OGL LOG][Proc: 0]Uy: solve_multi_gpu: 56.666 [ms]
BJcudaGKOBiCGStab:  Solving for Uy, Initial residual = 0.125219664801596, Final residual = 0.01045832214249985, No Iterations 3
[OGL LOG][Proc: 0]: global_index_init: 0.089 [ms]
[OGL LOG][Proc: 0]Uz_local_coeffs: call_update: 0 [ms]
[OGL LOG][Proc: 0]Uz_non_local_coeffs: call_update: 0 [ms]
[OGL LOG][Proc: 0]Uz: update_local_matrix_data: 19.978 [ms]
[OGL LOG][Proc: 0]Uz: update_non_local_matrix_data: 0.384 [ms]
[OGL LOG][Proc: 0]Uz_matrix: call_update: 1.836 [ms]
[OGL LOG][Proc: 0]Uz_rhs: call_update: 0.619 [ms]
[OGL LOG][Preconditioner.H:121] Generate preconditioner BJ MaxBlockSize 1
[OGL LOG][Proc: 0]Uz: init_precond: 1.134 [ms]
[OGL LOG][StoppingCriterion.H:239] Creating stopping criterion with minIter 3 frequency 1
[OGL LOG][Proc: 0]Uz: generate_solver: 0.013 [ms]
[OGL LOG][Proc: 0]Uz: solve: 48.097 [ms]
[OGL LOG][Proc: 0]Uz: copy_x_back: 1.146 [ms]
[OGL LOG][lduLduBase.H:330] 
Statistics:
	Time per iteration: 16032 [mu s]
	Time per residual norm calculation: 1616.000000 [mu s]
	Time per iteration and DOF: 2.541883 [ns]
	Retrieve results bandwidth 3.635000 [GByte/s]
[OGL LOG][Proc: 0]Uz: solve_multi_gpu: 57.408 [ms]
BJcudaGKOBiCGStab:  Solving for Uz, Initial residual = 0.1074779777678295, Final residual = 0.01045474591282392, No Iterations 3
[OGL LOG][Proc: 0]: global_index_init: 0.08500000000000001 [ms]
[OGL LOG][Proc: 0]p_local_coeffs: call_update: 0 [ms]
[OGL LOG][Proc: 0]p_non_local_coeffs: call_update: 0 [ms]
[OGL LOG][Proc: 0]p: update_local_matrix_data: 16.816 [ms]
[OGL LOG][Proc: 0]p: update_non_local_matrix_data: 0.37 [ms]
[OGL LOG][Proc: 0]p_matrix: call_update: 1.544 [ms]
[OGL LOG][Proc: 0]p_rhs: call_update: 0.803 [ms]
[OGL LOG][Preconditioner.H:121] Generate preconditioner BJ MaxBlockSize 1
[OGL LOG][Proc: 0]p: init_precond: 1.414 [ms]
[OGL LOG][StoppingCriterion.H:239] Creating stopping criterion with minIter 616 frequency 14
[OGL LOG][Proc: 0]p: generate_solver: 0.018 [ms]
[OGL LOG][Proc: 0]p: solve: 1528.544 [ms]
[OGL LOG][Proc: 0]p: copy_x_back: 1.42 [ms]
[OGL LOG][lduLduBase.H:330] 
Statistics:
	Time per iteration: 2477 [mu s]
	Time per residual norm calculation: 1263.000000 [mu s]
	Time per iteration and DOF: 0.392730 [ns]
	Retrieve results bandwidth 2.934000 [GByte/s]
[OGL LOG][Proc: 0]p: solve_multi_gpu: 1536.24 [ms]
BJcudaGKOCG:  Solving for p, Initial residual = 0.493942174505378, Final residual = 0.0009571665194016538, No Iterations 617
time step continuity errors : sum local = 0.01620015240861269, global = -0.001286269014780253, cumulative = 0.003284695887239914
[OGL LOG][Proc: 0]: global_index_init: 0.021 [ms]
[OGL LOG][Proc: 0]nuTilda_local_coeffs: call_update: 0 [ms]
[OGL LOG][Proc: 0]nuTilda_non_local_coeffs: call_update: 0 [ms]
[OGL LOG][Proc: 0]nuTilda: update_local_matrix_data: 20.59 [ms]
[OGL LOG][Proc: 0]nuTilda: update_non_local_matrix_data: 0.415 [ms]
[OGL LOG][Proc: 0]nuTilda_matrix: call_update: 1.669 [ms]
[OGL LOG][Proc: 0]nuTilda_rhs: call_update: 0.6820000000000001 [ms]
[OGL LOG][Preconditioner.H:121] Generate preconditioner BJ MaxBlockSize 1
[OGL LOG][Proc: 0]nuTilda: init_precond: 1.11 [ms]
[OGL LOG][StoppingCriterion.H:239] Creating stopping criterion with minIter 2 frequency 1
[OGL LOG][Proc: 0]nuTilda: generate_solver: 0.016 [ms]
[OGL LOG][Proc: 0]nuTilda: solve: 43.037 [ms]
[OGL LOG][Proc: 0]nuTilda: copy_x_back: 1.131 [ms]
[OGL LOG][lduLduBase.H:330] 
Statistics:
	Time per iteration: 21518 [mu s]
	Time per residual norm calculation: 964.000000 [mu s]
	Time per iteration and DOF: 3.411691 [ns]
	Retrieve results bandwidth 3.684000 [GByte/s]
[OGL LOG][Proc: 0]nuTilda: solve_multi_gpu: 51.593 [ms]
BJcudaGKOBiCGStab:  Solving for nuTilda, Initial residual = 0.1308877656227046, Final residual = 0.00906027574825579, No Iterations 2
ExecutionTime = 97 s  ClockTime = 101 s

Time = 5

velocityDampingConstraint velocityDamping damped 1974 (0.03%) of cells, with max limit 300
[OGL LOG][Proc: 0]: global_index_init: 0.128 [ms]
[OGL LOG][Proc: 0]Ux_local_coeffs: call_update: 0 [ms]
[OGL LOG][Proc: 0]Ux_non_local_coeffs: call_update: 0 [ms]
[OGL LOG][Proc: 0]Ux: update_local_matrix_data: 22.021 [ms]
[OGL LOG][Proc: 0]Ux: update_non_local_matrix_data: 0.39 [ms]
[OGL LOG][Proc: 0]Ux_matrix: call_update: 1.496 [ms]
[OGL LOG][Proc: 0]Ux_rhs: call_update: 0.9340000000000001 [ms]
[OGL LOG][Preconditioner.H:121] Generate preconditioner BJ MaxBlockSize 1
[OGL LOG][Proc: 0]Ux: init_precond: 1.358 [ms]
[OGL LOG][StoppingCriterion.H:239] Creating stopping criterion with minIter 4 frequency 1
[OGL LOG][Proc: 0]Ux: generate_solver: 0.016 [ms]
[OGL LOG][Proc: 0]Ux: solve: 40.926 [ms]
[OGL LOG][Proc: 0]Ux: copy_x_back: 1.169 [ms]
[OGL LOG][lduLduBase.H:330] 
Statistics:
	Time per iteration: 20463 [mu s]
	Time per residual norm calculation: 1264.000000 [mu s]
	Time per iteration and DOF: 3.244420 [ns]
	Retrieve results bandwidth 3.564000 [GByte/s]
[OGL LOG][Proc: 0]Ux: solve_multi_gpu: 48.747 [ms]
BJcudaGKOBiCGStab:  Solving for Ux, Initial residual = 0.3054505714592475, Final residual = 0.02048903907310035, No Iterations 2
[OGL LOG][Proc: 0]: global_index_init: 0.047 [ms]
[OGL LOG][Proc: 0]Uy_local_coeffs: call_update: 0 [ms]
[OGL LOG][Proc: 0]Uy_non_local_coeffs: call_update: 0 [ms]
[OGL LOG][Proc: 0]Uy: update_local_matrix_data: 21.834 [ms]
[OGL LOG][Proc: 0]Uy: update_non_local_matrix_data: 0.395 [ms]
[OGL LOG][Proc: 0]Uy_matrix: call_update: 1.663 [ms]
[OGL LOG][Proc: 0]Uy_rhs: call_update: 0.715 [ms]
[OGL LOG][Preconditioner.H:121] Generate preconditioner BJ MaxBlockSize 1
[OGL LOG][Proc: 0]Uy: init_precond: 1.428 [ms]
[OGL LOG][StoppingCriterion.H:239] Creating stopping criterion with minIter 4 frequency 1
[OGL LOG][Proc: 0]Uy: generate_solver: 0.018 [ms]
[OGL LOG][Proc: 0]Uy: solve: 50.169 [ms]
[OGL LOG][Proc: 0]Uy: copy_x_back: 1.192 [ms]
[OGL LOG][lduLduBase.H:330] 
Statistics:
	Time per iteration: 16723 [mu s]
	Time per residual norm calculation: 1604.000000 [mu s]
	Time per iteration and DOF: 2.651441 [ns]
	Retrieve results bandwidth 3.495000 [GByte/s]
[OGL LOG][Proc: 0]Uy: solve_multi_gpu: 58.118 [ms]
BJcudaGKOBiCGStab:  Solving for Uy, Initial residual = 0.3051958951183504, Final residual = 0.02282319021566758, No Iterations 3
[OGL LOG][Proc: 0]: global_index_init: 0.045 [ms]
[OGL LOG][Proc: 0]Uz_local_coeffs: call_update: 0 [ms]
[OGL LOG][Proc: 0]Uz_non_local_coeffs: call_update: 0 [ms]
[OGL LOG][Proc: 0]Uz: update_local_matrix_data: 21.045 [ms]
[OGL LOG][Proc: 0]Uz: update_non_local_matrix_data: 0.446 [ms]
[OGL LOG][Proc: 0]Uz_matrix: call_update: 1.24 [ms]
[OGL LOG][Proc: 0]Uz_rhs: call_update: 1.519 [ms]
[OGL LOG][Preconditioner.H:121] Generate preconditioner BJ MaxBlockSize 1
[OGL LOG][Proc: 0]Uz: init_precond: 1.441 [ms]
[OGL LOG][StoppingCriterion.H:239] Creating stopping criterion with minIter 3 frequency 1
[OGL LOG][Proc: 0]Uz: generate_solver: 0.017 [ms]
[OGL LOG][Proc: 0]Uz: solve: 45.749 [ms]
[OGL LOG][Proc: 0]Uz: copy_x_back: 1.178 [ms]
[OGL LOG][lduLduBase.H:330] 
Statistics:
	Time per iteration: 15249 [mu s]
	Time per residual norm calculation: 1628.000000 [mu s]
	Time per iteration and DOF: 2.417738 [ns]
	Retrieve results bandwidth 3.537000 [GByte/s]
[OGL LOG][Proc: 0]Uz: solve_multi_gpu: 54.026 [ms]
BJcudaGKOBiCGStab:  Solving for Uz, Initial residual = 0.646640815083781, Final residual = 0.05320286026518303, No Iterations 3
[OGL LOG][Proc: 0]: global_index_init: 0.038 [ms]
[OGL LOG][Proc: 0]p_local_coeffs: call_update: 0 [ms]
[OGL LOG][Proc: 0]p_non_local_coeffs: call_update: 0 [ms]
[OGL LOG][Proc: 0]p: update_local_matrix_data: 17.128 [ms]
[OGL LOG][Proc: 0]p: update_non_local_matrix_data: 0.396 [ms]
[OGL LOG][Proc: 0]p_matrix: call_update: 1.572 [ms]
[OGL LOG][Proc: 0]p_rhs: call_update: 0.615 [ms]
[OGL LOG][Preconditioner.H:121] Generate preconditioner BJ MaxBlockSize 1
[OGL LOG][Proc: 0]p: init_precond: 1.398 [ms]
[OGL LOG][StoppingCriterion.H:239] Creating stopping criterion with minIter 370 frequency 15
[OGL LOG][Proc: 0]p: generate_solver: 0.017 [ms]
[OGL LOG][Proc: 0]p: solve: 2181.349 [ms]
[OGL LOG][Proc: 0]p: copy_x_back: 1.367 [ms]
[OGL LOG][lduLduBase.H:330] 
Statistics:
	Time per iteration: 2504 [mu s]
	Time per residual norm calculation: 1262.000000 [mu s]
	Time per iteration and DOF: 0.397011 [ns]
	Retrieve results bandwidth 3.048000 [GByte/s]
[OGL LOG][Proc: 0]p: solve_multi_gpu: 2188.224 [ms]
BJcudaGKOCG:  Solving for p, Initial residual = 0.4468660161566912, Final residual = 0.003924920156039595, No Iterations 871
time step continuity errors : sum local = 0.04147842365745664, global = -0.001782881553588075, cumulative = 0.001501814333651839
[OGL LOG][Proc: 0]: global_index_init: 2.005 [ms]
[OGL LOG][Proc: 0]nuTilda_local_coeffs: call_update: 0 [ms]
[OGL LOG][Proc: 0]nuTilda_non_local_coeffs: call_update: 0 [ms]
[OGL LOG][Proc: 0]nuTilda: update_local_matrix_data: 20.082 [ms]
[OGL LOG][Proc: 0]nuTilda: update_non_local_matrix_data: 0.37 [ms]
[OGL LOG][Proc: 0]nuTilda_matrix: call_update: 1.661 [ms]
[OGL LOG][Proc: 0]nuTilda_rhs: call_update: 0.634 [ms]
[OGL LOG][Preconditioner.H:121] Generate preconditioner BJ MaxBlockSize 1
[OGL LOG][Proc: 0]nuTilda: init_precond: 1.078 [ms]
[OGL LOG][StoppingCriterion.H:239] Creating stopping criterion with minIter 3 frequency 1
[OGL LOG][Proc: 0]nuTilda: generate_solver: 0.014 [ms]
[OGL LOG][Proc: 0]nuTilda: solve: 41.079 [ms]
[OGL LOG][Proc: 0]nuTilda: copy_x_back: 1.137 [ms]
[OGL LOG][lduLduBase.H:330] 
Statistics:
	Time per iteration: 20539 [mu s]
	Time per residual norm calculation: 966.000000 [mu s]
	Time per iteration and DOF: 3.256470 [ns]
	Retrieve results bandwidth 3.664000 [GByte/s]
[OGL LOG][Proc: 0]nuTilda: solve_multi_gpu: 50.111 [ms]
BJcudaGKOBiCGStab:  Solving for nuTilda, Initial residual = 0.09081784536565293, Final residual = 0.005471838953731424, No Iterations 2
ExecutionTime = 101.27 s  ClockTime = 106 s

Time = 6

velocityDampingConstraint velocityDamping damped 227 (0%) of cells, with max limit 300
[OGL LOG][Proc: 0]: global_index_init: 0.148 [ms]
[OGL LOG][Proc: 0]Ux_local_coeffs: call_update: 0 [ms]
[OGL LOG][Proc: 0]Ux_non_local_coeffs: call_update: 0 [ms]
[OGL LOG][Proc: 0]Ux: update_local_matrix_data: 21.044 [ms]
[OGL LOG][Proc: 0]Ux: update_non_local_matrix_data: 0.36 [ms]
[OGL LOG][Proc: 0]Ux_matrix: call_update: 2.187 [ms]
[OGL LOG][Proc: 0]Ux_rhs: call_update: 0.489 [ms]
[OGL LOG][Preconditioner.H:121] Generate preconditioner BJ MaxBlockSize 1
[OGL LOG][Proc: 0]Ux: init_precond: 1.197 [ms]
[OGL LOG][StoppingCriterion.H:239] Creating stopping criterion with minIter 3 frequency 1
[OGL LOG][Proc: 0]Ux: generate_solver: 0.014 [ms]
[OGL LOG][Proc: 0]Ux: solve: 50.656 [ms]
[OGL LOG][Proc: 0]Ux: copy_x_back: 1.157 [ms]
[OGL LOG][lduLduBase.H:330] 
Statistics:
	Time per iteration: 16885 [mu s]
	Time per residual norm calculation: 1623.000000 [mu s]
	Time per iteration and DOF: 2.677126 [ns]
	Retrieve results bandwidth 3.601000 [GByte/s]
[OGL LOG][Proc: 0]Ux: solve_multi_gpu: 58.958 [ms]
BJcudaGKOBiCGStab:  Solving for Ux, Initial residual = 0.1230940145331688, Final residual = 0.008045733793840291, No Iterations 3
[OGL LOG][Proc: 0]: global_index_init: 0.093 [ms]
[OGL LOG][Proc: 0]Uy_local_coeffs: call_update: 0 [ms]
[OGL LOG][Proc: 0]Uy_non_local_coeffs: call_update: 0 [ms]
[OGL LOG][Proc: 0]Uy: update_local_matrix_data: 20.565 [ms]
[OGL LOG][Proc: 0]Uy: update_non_local_matrix_data: 0.349 [ms]
[OGL LOG][Proc: 0]Uy_matrix: call_update: 2.038 [ms]
[OGL LOG][Proc: 0]Uy_rhs: call_update: 0.463 [ms]
[OGL LOG][Preconditioner.H:121] Generate preconditioner BJ MaxBlockSize 1
[OGL LOG][Proc: 0]Uy: init_precond: 1.153 [ms]
[OGL LOG][StoppingCriterion.H:239] Creating stopping criterion with minIter 4 frequency 1
[OGL LOG][Proc: 0]Uy: generate_solver: 0.014 [ms]
[OGL LOG][Proc: 0]Uy: solve: 51.394 [ms]
[OGL LOG][Proc: 0]Uy: copy_x_back: 1.115 [ms]
[OGL LOG][lduLduBase.H:330] 
Statistics:
	Time per iteration: 17131 [mu s]
	Time per residual norm calculation: 1768.000000 [mu s]
	Time per iteration and DOF: 2.716130 [ns]
	Retrieve results bandwidth 3.737000 [GByte/s]
[OGL LOG][Proc: 0]Uy: solve_multi_gpu: 59.695 [ms]
BJcudaGKOBiCGStab:  Solving for Uy, Initial residual = 0.1800882944779847, Final residual = 0.01371112047095794, No Iterations 3
[OGL LOG][Proc: 0]: global_index_init: 0.033 [ms]
[OGL LOG][Proc: 0]Uz_local_coeffs: call_update: 0 [ms]
[OGL LOG][Proc: 0]Uz_non_local_coeffs: call_update: 0 [ms]
[OGL LOG][Proc: 0]Uz: update_local_matrix_data: 20.009 [ms]
[OGL LOG][Proc: 0]Uz: update_non_local_matrix_data: 0.37 [ms]
[OGL LOG][Proc: 0]Uz_matrix: call_update: 1.84 [ms]
[OGL LOG][Proc: 0]Uz_rhs: call_update: 0.637 [ms]
[OGL LOG][Preconditioner.H:121] Generate preconditioner BJ MaxBlockSize 1
[OGL LOG][Proc: 0]Uz: init_precond: 1.161 [ms]
[OGL LOG][StoppingCriterion.H:239] Creating stopping criterion with minIter 3 frequency 1
[OGL LOG][Proc: 0]Uz: generate_solver: 0.013 [ms]
[OGL LOG][Proc: 0]Uz: solve: 56.811 [ms]
[OGL LOG][Proc: 0]Uz: copy_x_back: 1.124 [ms]
[OGL LOG][lduLduBase.H:330] 
Statistics:
	Time per iteration: 14202 [mu s]
	Time per residual norm calculation: 972.000000 [mu s]
	Time per iteration and DOF: 2.251735 [ns]
	Retrieve results bandwidth 3.707000 [GByte/s]
[OGL LOG][Proc: 0]Uz: solve_multi_gpu: 65.158 [ms]
BJcudaGKOBiCGStab:  Solving for Uz, Initial residual = 0.3341562351367792, Final residual = 0.02267175843723924, No Iterations 4
[OGL LOG][Proc: 0]: global_index_init: 0.08500000000000001 [ms]
[OGL LOG][Proc: 0]p_local_coeffs: call_update: 0 [ms]
[OGL LOG][Proc: 0]p_non_local_coeffs: call_update: 0 [ms]
[OGL LOG][Proc: 0]p: update_local_matrix_data: 15.825 [ms]
[OGL LOG][Proc: 0]p: update_non_local_matrix_data: 0.381 [ms]
[OGL LOG][Proc: 0]p_matrix: call_update: 1.678 [ms]
[OGL LOG][Proc: 0]p_rhs: call_update: 0.769 [ms]
[OGL LOG][Preconditioner.H:121] Generate preconditioner BJ MaxBlockSize 1
[OGL LOG][Proc: 0]p: init_precond: 1.369 [ms]
[OGL LOG][StoppingCriterion.H:239] Creating stopping criterion with minIter 522 frequency 18
[OGL LOG][Proc: 0]p: generate_solver: 0.019 [ms]
[OGL LOG][Proc: 0]p: solve: 1395.432 [ms]
[OGL LOG][Proc: 0]p: copy_x_back: 1.372 [ms]
[OGL LOG][lduLduBase.H:330] 
Statistics:
	Time per iteration: 2496 [mu s]
	Time per residual norm calculation: 1266.000000 [mu s]
	Time per iteration and DOF: 0.395742 [ns]
	Retrieve results bandwidth 3.037000 [GByte/s]
[OGL LOG][Proc: 0]p: solve_multi_gpu: 1403.897 [ms]
BJcudaGKOCG:  Solving for p, Initial residual = 0.6688441422675173, Final residual = 0.006636342479220748, No Iterations 559
time step continuity errors : sum local = 0.04982764430706159, global = -0.0093774592813454, cumulative = -0.00787564494769356
[OGL LOG][Proc: 0]: global_index_init: 0.47 [ms]
[OGL LOG][Proc: 0]nuTilda_local_coeffs: call_update: 0 [ms]
[OGL LOG][Proc: 0]nuTilda_non_local_coeffs: call_update: 0 [ms]
[OGL LOG][Proc: 0]nuTilda: update_local_matrix_data: 20.166 [ms]
[OGL LOG][Proc: 0]nuTilda: update_non_local_matrix_data: 0.361 [ms]
[OGL LOG][Proc: 0]nuTilda_matrix: call_update: 1.687 [ms]
[OGL LOG][Proc: 0]nuTilda_rhs: call_update: 0.645 [ms]
[OGL LOG][Preconditioner.H:121] Generate preconditioner BJ MaxBlockSize 1
[OGL LOG][Proc: 0]nuTilda: init_precond: 1.397 [ms]
[OGL LOG][StoppingCriterion.H:239] Creating stopping criterion with minIter 3 frequency 1
[OGL LOG][Proc: 0]nuTilda: generate_solver: 0.017 [ms]
[OGL LOG][Proc: 0]nuTilda: solve: 40.808 [ms]
[OGL LOG][Proc: 0]nuTilda: copy_x_back: 1.113 [ms]
[OGL LOG][lduLduBase.H:330] 
Statistics:
	Time per iteration: 20404 [mu s]
	Time per residual norm calculation: 972.000000 [mu s]
	Time per iteration and DOF: 3.235066 [ns]
	Retrieve results bandwidth 3.743000 [GByte/s]
[OGL LOG][Proc: 0]nuTilda: solve_multi_gpu: 48.904 [ms]
BJcudaGKOBiCGStab:  Solving for nuTilda, Initial residual = 0.06246810988938176, Final residual = 0.003925597868133179, No Iterations 2
ExecutionTime = 104.8 s  ClockTime = 109 s

Time = 7

velocityDampingConstraint velocityDamping damped 1004 (0.02%) of cells, with max limit 300
[OGL LOG][Proc: 0]: global_index_init: 0.038 [ms]
[OGL LOG][Proc: 0]Ux_local_coeffs: call_update: 0 [ms]
[OGL LOG][Proc: 0]Ux_non_local_coeffs: call_update: 0 [ms]
[OGL LOG][Proc: 0]Ux: update_local_matrix_data: 21.592 [ms]
[OGL LOG][Proc: 0]Ux: update_non_local_matrix_data: 0.389 [ms]
[OGL LOG][Proc: 0]Ux_matrix: call_update: 1.871 [ms]
[OGL LOG][Proc: 0]Ux_rhs: call_update: 0.533 [ms]
[OGL LOG][Preconditioner.H:121] Generate preconditioner BJ MaxBlockSize 1
[OGL LOG][Proc: 0]Ux: init_precond: 1.122 [ms]
[OGL LOG][StoppingCriterion.H:239] Creating stopping criterion with minIter 4 frequency 1
[OGL LOG][Proc: 0]Ux: generate_solver: 0.014 [ms]
[OGL LOG][Proc: 0]Ux: solve: 54.435 [ms]
[OGL LOG][Proc: 0]Ux: copy_x_back: 1.109 [ms]
[OGL LOG][lduLduBase.H:330] 
Statistics:
	Time per iteration: 13608 [mu s]
	Time per residual norm calculation: 1414.000000 [mu s]
	Time per iteration and DOF: 2.157556 [ns]
	Retrieve results bandwidth 3.757000 [GByte/s]
[OGL LOG][Proc: 0]Ux: solve_multi_gpu: 62.254 [ms]
BJcudaGKOBiCGStab:  Solving for Ux, Initial residual = 0.1333449561267544, Final residual = 0.006247637990407641, No Iterations 4
[OGL LOG][Proc: 0]: global_index_init: 0.13 [ms]
[OGL LOG][Proc: 0]Uy_local_coeffs: call_update: 0 [ms]
[OGL LOG][Proc: 0]Uy_non_local_coeffs: call_update: 0 [ms]
[OGL LOG][Proc: 0]Uy: update_local_matrix_data: 20.991 [ms]
[OGL LOG][Proc: 0]Uy: update_non_local_matrix_data: 0.356 [ms]
[OGL LOG][Proc: 0]Uy_matrix: call_update: 1.762 [ms]
[OGL LOG][Proc: 0]Uy_rhs: call_update: 0.851 [ms]
[OGL LOG][Preconditioner.H:121] Generate preconditioner BJ MaxBlockSize 1
[OGL LOG][Proc: 0]Uy: init_precond: 1.054 [ms]
[OGL LOG][StoppingCriterion.H:239] Creating stopping criterion with minIter 4 frequency 1
[OGL LOG][Proc: 0]Uy: generate_solver: 0.014 [ms]
[OGL LOG][Proc: 0]Uy: solve: 54.146 [ms]
[OGL LOG][Proc: 0]Uy: copy_x_back: 1.198 [ms]
[OGL LOG][lduLduBase.H:330] 
Statistics:
	Time per iteration: 18048 [mu s]
	Time per residual norm calculation: 1587.000000 [mu s]
	Time per iteration and DOF: 2.861521 [ns]
	Retrieve results bandwidth 3.478000 [GByte/s]
[OGL LOG][Proc: 0]Uy: solve_multi_gpu: 62.498 [ms]
BJcudaGKOBiCGStab:  Solving for Uy, Initial residual = 0.151901290630442, Final residual = 0.01288913567388781, No Iterations 3
[OGL LOG][Proc: 0]: global_index_init: 0.094 [ms]
[OGL LOG][Proc: 0]Uz_local_coeffs: call_update: 0 [ms]
[OGL LOG][Proc: 0]Uz_non_local_coeffs: call_update: 0 [ms]
[OGL LOG][Proc: 0]Uz: update_local_matrix_data: 20.808 [ms]
[OGL LOG][Proc: 0]Uz: update_non_local_matrix_data: 0.391 [ms]
[OGL LOG][Proc: 0]Uz_matrix: call_update: 2.292 [ms]
[OGL LOG][Proc: 0]Uz_rhs: call_update: 0.543 [ms]
[OGL LOG][Preconditioner.H:121] Generate preconditioner BJ MaxBlockSize 1
[OGL LOG][Proc: 0]Uz: init_precond: 1.162 [ms]
[OGL LOG][StoppingCriterion.H:239] Creating stopping criterion with minIter 4 frequency 1
[OGL LOG][Proc: 0]Uz: generate_solver: 0.013 [ms]
[OGL LOG][Proc: 0]Uz: solve: 56.882 [ms]
[OGL LOG][Proc: 0]Uz: copy_x_back: 1.173 [ms]
[OGL LOG][lduLduBase.H:330] 
Statistics:
	Time per iteration: 14220 [mu s]
	Time per residual norm calculation: 1605.000000 [mu s]
	Time per iteration and DOF: 2.254589 [ns]
	Retrieve results bandwidth 3.552000 [GByte/s]
[OGL LOG][Proc: 0]Uz: solve_multi_gpu: 64.93300000000001 [ms]
BJcudaGKOBiCGStab:  Solving for Uz, Initial residual = 0.2824137227495668, Final residual = 0.01748216005507208, No Iterations 4
[OGL LOG][Proc: 0]: global_index_init: 0.15 [ms]
[OGL LOG][Proc: 0]p_local_coeffs: call_update: 0 [ms]
[OGL LOG][Proc: 0]p_non_local_coeffs: call_update: 0 [ms]
[OGL LOG][Proc: 0]p: update_local_matrix_data: 15.973 [ms]
[OGL LOG][Proc: 0]p: update_non_local_matrix_data: 0.402 [ms]
[OGL LOG][Proc: 0]p_matrix: call_update: 2.022 [ms]
[OGL LOG][Proc: 0]p_rhs: call_update: 0.48 [ms]
[OGL LOG][Preconditioner.H:121] Generate preconditioner BJ MaxBlockSize 1
[OGL LOG][Proc: 0]p: init_precond: 1.135 [ms]
[OGL LOG][StoppingCriterion.H:239] Creating stopping criterion with minIter 335 frequency 14
[OGL LOG][Proc: 0]p: generate_solver: 0.014 [ms]
[OGL LOG][Proc: 0]p: solve: 2009.367 [ms]
[OGL LOG][Proc: 0]p: copy_x_back: 1.354 [ms]
[OGL LOG][lduLduBase.H:330] 
Statistics:
	Time per iteration: 2514 [mu s]
	Time per residual norm calculation: 1261.000000 [mu s]
	Time per iteration and DOF: 0.398596 [ns]
	Retrieve results bandwidth 3.077000 [GByte/s]
[OGL LOG][Proc: 0]p: solve_multi_gpu: 2017.839 [ms]
BJcudaGKOCG:  Solving for p, Initial residual = 0.2312365774308545, Final residual = 0.001985065860433501, No Iterations 799
time step continuity errors : sum local = 0.02173304521561906, global = 0.0004062979478666187, cumulative = -0.007469346999826942
[OGL LOG][Proc: 0]: global_index_init: 0.03 [ms]
[OGL LOG][Proc: 0]nuTilda_local_coeffs: call_update: 0 [ms]
[OGL LOG][Proc: 0]nuTilda_non_local_coeffs: call_update: 0 [ms]
[OGL LOG][Proc: 0]nuTilda: update_local_matrix_data: 20.571 [ms]
[OGL LOG][Proc: 0]nuTilda: update_non_local_matrix_data: 0.374 [ms]
[OGL LOG][Proc: 0]nuTilda_matrix: call_update: 1.599 [ms]
[OGL LOG][Proc: 0]nuTilda_rhs: call_update: 0.702 [ms]
[OGL LOG][Preconditioner.H:121] Generate preconditioner BJ MaxBlockSize 1
[OGL LOG][Proc: 0]nuTilda: init_precond: 1.096 [ms]
[OGL LOG][StoppingCriterion.H:239] Creating stopping criterion with minIter 3 frequency 1
[OGL LOG][Proc: 0]nuTilda: generate_solver: 0.014 [ms]
[OGL LOG][Proc: 0]nuTilda: solve: 41.172 [ms]
[OGL LOG][Proc: 0]nuTilda: copy_x_back: 1.17 [ms]
[OGL LOG][lduLduBase.H:330] 
Statistics:
	Time per iteration: 20586 [mu s]
	Time per residual norm calculation: 1262.000000 [mu s]
	Time per iteration and DOF: 3.263922 [ns]
	Retrieve results bandwidth 3.561000 [GByte/s]
[OGL LOG][Proc: 0]nuTilda: solve_multi_gpu: 48.767 [ms]
BJcudaGKOBiCGStab:  Solving for nuTilda, Initial residual = 0.05054991943494831, Final residual = 0.003182661814923978, No Iterations 2
ExecutionTime = 108.92 s  ClockTime = 113 s

Time = 8

velocityDampingConstraint velocityDamping damped 567 (0.01%) of cells, with max limit 300
[OGL LOG][Proc: 0]: global_index_init: 0.129 [ms]
[OGL LOG][Proc: 0]Ux_local_coeffs: call_update: 0 [ms]
[OGL LOG][Proc: 0]Ux_non_local_coeffs: call_update: 0 [ms]
[OGL LOG][Proc: 0]Ux: update_local_matrix_data: 20.991 [ms]
[OGL LOG][Proc: 0]Ux: update_non_local_matrix_data: 0.369 [ms]
[OGL LOG][Proc: 0]Ux_matrix: call_update: 1.806 [ms]
[OGL LOG][Proc: 0]Ux_rhs: call_update: 0.521 [ms]
[OGL LOG][Preconditioner.H:121] Generate preconditioner BJ MaxBlockSize 1
[OGL LOG][Proc: 0]Ux: init_precond: 1.129 [ms]
[OGL LOG][StoppingCriterion.H:239] Creating stopping criterion with minIter 4 frequency 1
[OGL LOG][Proc: 0]Ux: generate_solver: 0.023 [ms]
[OGL LOG][Proc: 0]Ux: solve: 45.024 [ms]
[OGL LOG][Proc: 0]Ux: copy_x_back: 1.123 [ms]
[OGL LOG][lduLduBase.H:330] 
Statistics:
	Time per iteration: 15008 [mu s]
	Time per residual norm calculation: 1634.000000 [mu s]
	Time per iteration and DOF: 2.379527 [ns]
	Retrieve results bandwidth 3.710000 [GByte/s]
[OGL LOG][Proc: 0]Ux: solve_multi_gpu: 52.869 [ms]
BJcudaGKOBiCGStab:  Solving for Ux, Initial residual = 0.127858337317163, Final residual = 0.01223488866430821, No Iterations 3
[OGL LOG][Proc: 0]: global_index_init: 0.08500000000000001 [ms]
[OGL LOG][Proc: 0]Uy_local_coeffs: call_update: 0 [ms]
[OGL LOG][Proc: 0]Uy_non_local_coeffs: call_update: 0 [ms]
[OGL LOG][Proc: 0]Uy: update_local_matrix_data: 20.678 [ms]
[OGL LOG][Proc: 0]Uy: update_non_local_matrix_data: 0.361 [ms]
[OGL LOG][Proc: 0]Uy_matrix: call_update: 2.615 [ms]
[OGL LOG][Proc: 0]Uy_rhs: call_update: 0.479 [ms]
[OGL LOG][Preconditioner.H:121] Generate preconditioner BJ MaxBlockSize 1
[OGL LOG][Proc: 0]Uy: init_precond: 1.222 [ms]
[OGL LOG][StoppingCriterion.H:239] Creating stopping criterion with minIter 4 frequency 1
[OGL LOG][Proc: 0]Uy: generate_solver: 0.015 [ms]
[OGL LOG][Proc: 0]Uy: solve: 44.087 [ms]
[OGL LOG][Proc: 0]Uy: copy_x_back: 1.133 [ms]
[OGL LOG][lduLduBase.H:330] 
Statistics:
	Time per iteration: 14695 [mu s]
	Time per residual norm calculation: 1629.000000 [mu s]
	Time per iteration and DOF: 2.329901 [ns]
	Retrieve results bandwidth 3.677000 [GByte/s]
[OGL LOG][Proc: 0]Uy: solve_multi_gpu: 52.62 [ms]
BJcudaGKOBiCGStab:  Solving for Uy, Initial residual = 0.1722892838868174, Final residual = 0.0156761874802634, No Iterations 3
[OGL LOG][Proc: 0]: global_index_init: 0.028 [ms]
[OGL LOG][Proc: 0]Uz_local_coeffs: call_update: 0 [ms]
[OGL LOG][Proc: 0]Uz_non_local_coeffs: call_update: 0 [ms]
[OGL LOG][Proc: 0]Uz: update_local_matrix_data: 20.108 [ms]
[OGL LOG][Proc: 0]Uz: update_non_local_matrix_data: 0.359 [ms]
[OGL LOG][Proc: 0]Uz_matrix: call_update: 1.845 [ms]
[OGL LOG][Proc: 0]Uz_rhs: call_update: 0.736 [ms]
[OGL LOG][Preconditioner.H:121] Generate preconditioner BJ MaxBlockSize 1
[OGL LOG][Proc: 0]Uz: init_precond: 1.469 [ms]
[OGL LOG][StoppingCriterion.H:239] Creating stopping criterion with minIter 4 frequency 1
[OGL LOG][Proc: 0]Uz: generate_solver: 0.016 [ms]
[OGL LOG][Proc: 0]Uz: solve: 47.99 [ms]
[OGL LOG][Proc: 0]Uz: copy_x_back: 1.081 [ms]
[OGL LOG][lduLduBase.H:330] 
Statistics:
	Time per iteration: 15996 [mu s]
	Time per residual norm calculation: 1228.000000 [mu s]
	Time per iteration and DOF: 2.536175 [ns]
	Retrieve results bandwidth 3.854000 [GByte/s]
[OGL LOG][Proc: 0]Uz: solve_multi_gpu: 57.504 [ms]
BJcudaGKOBiCGStab:  Solving for Uz, Initial residual = 0.2250867507362594, Final residual = 0.01950569241408183, No Iterations 3
[OGL LOG][Proc: 0]: global_index_init: 0.018 [ms]
[OGL LOG][Proc: 0]p_local_coeffs: call_update: 0 [ms]
[OGL LOG][Proc: 0]p_non_local_coeffs: call_update: 0 [ms]
[OGL LOG][Proc: 0]p: update_local_matrix_data: 16.242 [ms]
[OGL LOG][Proc: 0]p: update_non_local_matrix_data: 0.389 [ms]
[OGL LOG][Proc: 0]p_matrix: call_update: 1.911 [ms]
[OGL LOG][Proc: 0]p_rhs: call_update: 1.017 [ms]
[OGL LOG][Preconditioner.H:121] Generate preconditioner BJ MaxBlockSize 1
[OGL LOG][Proc: 0]p: init_precond: 1.095 [ms]
[OGL LOG][StoppingCriterion.H:239] Creating stopping criterion with minIter 479 frequency 17
[OGL LOG][Proc: 0]p: generate_solver: 0.014 [ms]
[OGL LOG][Proc: 0]p: solve: 1489.748 [ms]
[OGL LOG][Proc: 0]p: copy_x_back: 1.389 [ms]
[OGL LOG][lduLduBase.H:330] 
Statistics:
	Time per iteration: 2499 [mu s]
	Time per residual norm calculation: 1259.000000 [mu s]
	Time per iteration and DOF: 0.396218 [ns]
	Retrieve results bandwidth 2.999000 [GByte/s]
[OGL LOG][Proc: 0]p: solve_multi_gpu: 1497.541 [ms]
BJcudaGKOCG:  Solving for p, Initial residual = 0.4787039715352656, Final residual = 0.004653288811666651, No Iterations 596
time step continuity errors : sum local = 0.02371423159823679, global = 0.005267571383109279, cumulative = -0.002201775616717663
[OGL LOG][Proc: 0]: global_index_init: 1.55 [ms]
[OGL LOG][Proc: 0]nuTilda_local_coeffs: call_update: 0 [ms]
[OGL LOG][Proc: 0]nuTilda_non_local_coeffs: call_update: 0 [ms]
[OGL LOG][Proc: 0]nuTilda: update_local_matrix_data: 20.365 [ms]
[OGL LOG][Proc: 0]nuTilda: update_non_local_matrix_data: 0.366 [ms]
[OGL LOG][Proc: 0]nuTilda_matrix: call_update: 1.822 [ms]
[OGL LOG][Proc: 0]nuTilda_rhs: call_update: 0.525 [ms]
[OGL LOG][Preconditioner.H:121] Generate preconditioner BJ MaxBlockSize 1
[OGL LOG][Proc: 0]nuTilda: init_precond: 1.124 [ms]
[OGL LOG][StoppingCriterion.H:239] Creating stopping criterion with minIter 3 frequency 1
[OGL LOG][Proc: 0]nuTilda: generate_solver: 0.014 [ms]
[OGL LOG][Proc: 0]nuTilda: solve: 41.183 [ms]
[OGL LOG][Proc: 0]nuTilda: copy_x_back: 1.121 [ms]
[OGL LOG][lduLduBase.H:330] 
Statistics:
	Time per iteration: 20591 [mu s]
	Time per residual norm calculation: 964.000000 [mu s]
	Time per iteration and DOF: 3.264715 [ns]
	Retrieve results bandwidth 3.717000 [GByte/s]
[OGL LOG][Proc: 0]nuTilda: solve_multi_gpu: 50.066 [ms]
BJcudaGKOBiCGStab:  Solving for nuTilda, Initial residual = 0.03972556005261839, Final residual = 0.002227066407976569, No Iterations 2
ExecutionTime = 112.48 s  ClockTime = 117 s

Time = 9

velocityDampingConstraint velocityDamping damped 74 (0%) of cells, with max limit 300
[OGL LOG][Proc: 0]: global_index_init: 0.125 [ms]
[OGL LOG][Proc: 0]Ux_local_coeffs: call_update: 0 [ms]
[OGL LOG][Proc: 0]Ux_non_local_coeffs: call_update: 0 [ms]
[OGL LOG][Proc: 0]Ux: update_local_matrix_data: 20.899 [ms]
[OGL LOG][Proc: 0]Ux: update_non_local_matrix_data: 0.406 [ms]
[OGL LOG][Proc: 0]Ux_matrix: call_update: 1.484 [ms]
[OGL LOG][Proc: 0]Ux_rhs: call_update: 0.864 [ms]
[OGL LOG][Preconditioner.H:121] Generate preconditioner BJ MaxBlockSize 1
[OGL LOG][Proc: 0]Ux: init_precond: 1.403 [ms]
[OGL LOG][StoppingCriterion.H:239] Creating stopping criterion with minIter 3 frequency 1
[OGL LOG][Proc: 0]Ux: generate_solver: 0.018 [ms]
[OGL LOG][Proc: 0]Ux: solve: 49.116 [ms]
[OGL LOG][Proc: 0]Ux: copy_x_back: 1.1 [ms]
[OGL LOG][lduLduBase.H:330] 
Statistics:
	Time per iteration: 16372 [mu s]
	Time per residual norm calculation: 1429.000000 [mu s]
	Time per iteration and DOF: 2.595790 [ns]
	Retrieve results bandwidth 3.787000 [GByte/s]
[OGL LOG][Proc: 0]Ux: solve_multi_gpu: 56.983 [ms]
BJcudaGKOBiCGStab:  Solving for Ux, Initial residual = 0.09370256756520039, Final residual = 0.006920475918227309, No Iterations 3
[OGL LOG][Proc: 0]: global_index_init: 0.054 [ms]
[OGL LOG][Proc: 0]Uy_local_coeffs: call_update: 0 [ms]
[OGL LOG][Proc: 0]Uy_non_local_coeffs: call_update: 0 [ms]
[OGL LOG][Proc: 0]Uy: update_local_matrix_data: 20.511 [ms]
[OGL LOG][Proc: 0]Uy: update_non_local_matrix_data: 0.381 [ms]
[OGL LOG][Proc: 0]Uy_matrix: call_update: 1.755 [ms]
[OGL LOG][Proc: 0]Uy_rhs: call_update: 1.118 [ms]
[OGL LOG][Preconditioner.H:121] Generate preconditioner BJ MaxBlockSize 1
[OGL LOG][Proc: 0]Uy: init_precond: 1.131 [ms]
[OGL LOG][StoppingCriterion.H:239] Creating stopping criterion with minIter 3 frequency 1
[OGL LOG][Proc: 0]Uy: generate_solver: 0.013 [ms]
[OGL LOG][Proc: 0]Uy: solve: 53.537 [ms]
[OGL LOG][Proc: 0]Uy: copy_x_back: 1.159 [ms]
[OGL LOG][lduLduBase.H:330] 
Statistics:
	Time per iteration: 17845 [mu s]
	Time per residual norm calculation: 1601.000000 [mu s]
	Time per iteration and DOF: 2.829335 [ns]
	Retrieve results bandwidth 3.595000 [GByte/s]
[OGL LOG][Proc: 0]Uy: solve_multi_gpu: 61.871 [ms]
BJcudaGKOBiCGStab:  Solving for Uy, Initial residual = 0.09821562454394711, Final residual = 0.006695193061391973, No Iterations 3
[OGL LOG][Proc: 0]: global_index_init: 0.077 [ms]
[OGL LOG][Proc: 0]Uz_local_coeffs: call_update: 0 [ms]
[OGL LOG][Proc: 0]Uz_non_local_coeffs: call_update: 0 [ms]
[OGL LOG][Proc: 0]Uz: update_local_matrix_data: 20.572 [ms]
[OGL LOG][Proc: 0]Uz: update_non_local_matrix_data: 0.356 [ms]
[OGL LOG][Proc: 0]Uz_matrix: call_update: 2.407 [ms]
[OGL LOG][Proc: 0]Uz_rhs: call_update: 0.534 [ms]
[OGL LOG][Preconditioner.H:121] Generate preconditioner BJ MaxBlockSize 1
[OGL LOG][Proc: 0]Uz: init_precond: 1.154 [ms]
[OGL LOG][StoppingCriterion.H:239] Creating stopping criterion with minIter 4 frequency 1
[OGL LOG][Proc: 0]Uz: generate_solver: 0.014 [ms]
[OGL LOG][Proc: 0]Uz: solve: 50.111 [ms]
[OGL LOG][Proc: 0]Uz: copy_x_back: 1.174 [ms]
[OGL LOG][lduLduBase.H:330] 
Statistics:
	Time per iteration: 16703 [mu s]
	Time per residual norm calculation: 1779.000000 [mu s]
	Time per iteration and DOF: 2.648270 [ns]
	Retrieve results bandwidth 3.549000 [GByte/s]
[OGL LOG][Proc: 0]Uz: solve_multi_gpu: 58.619 [ms]
BJcudaGKOBiCGStab:  Solving for Uz, Initial residual = 0.1625746001526797, Final residual = 0.01339582206411185, No Iterations 3
[OGL LOG][Proc: 0]: global_index_init: 0.129 [ms]
[OGL LOG][Proc: 0]p_local_coeffs: call_update: 0 [ms]
[OGL LOG][Proc: 0]p_non_local_coeffs: call_update: 0 [ms]
[OGL LOG][Proc: 0]p: update_local_matrix_data: 15.843 [ms]
[OGL LOG][Proc: 0]p: update_non_local_matrix_data: 0.381 [ms]
[OGL LOG][Proc: 0]p_matrix: call_update: 1.755 [ms]
[OGL LOG][Proc: 0]p_rhs: call_update: 0.554 [ms]
[OGL LOG][Preconditioner.H:121] Generate preconditioner BJ MaxBlockSize 1
[OGL LOG][Proc: 0]p: init_precond: 1.135 [ms]
[OGL LOG][StoppingCriterion.H:239] Creating stopping criterion with minIter 357 frequency 15
[OGL LOG][Proc: 0]p: generate_solver: 0.014 [ms]
[OGL LOG][Proc: 0]p: solve: 2176.754 [ms]
[OGL LOG][Proc: 0]p: copy_x_back: 1.439 [ms]
[OGL LOG][lduLduBase.H:330] 
Statistics:
	Time per iteration: 2499 [mu s]
	Time per residual norm calculation: 1261.000000 [mu s]
	Time per iteration and DOF: 0.396218 [ns]
	Retrieve results bandwidth 2.895000 [GByte/s]
[OGL LOG][Proc: 0]p: solve_multi_gpu: 2185.951 [ms]
BJcudaGKOCG:  Solving for p, Initial residual = 0.3362974038248658, Final residual = 0.002737942471943773, No Iterations 871
time step continuity errors : sum local = 0.02289999115330001, global = 0.0007080503925462288, cumulative = -0.001493725224171434
[OGL LOG][Proc: 0]: global_index_init: 1.433 [ms]
[OGL LOG][Proc: 0]nuTilda_local_coeffs: call_update: 0 [ms]
[OGL LOG][Proc: 0]nuTilda_non_local_coeffs: call_update: 0 [ms]
[OGL LOG][Proc: 0]nuTilda: update_local_matrix_data: 20.216 [ms]
[OGL LOG][Proc: 0]nuTilda: update_non_local_matrix_data: 0.373 [ms]
[OGL LOG][Proc: 0]nuTilda_matrix: call_update: 1.716 [ms]
[OGL LOG][Proc: 0]nuTilda_rhs: call_update: 0.609 [ms]
[OGL LOG][Preconditioner.H:121] Generate preconditioner BJ MaxBlockSize 1
[OGL LOG][Proc: 0]nuTilda: init_precond: 1.409 [ms]
[OGL LOG][StoppingCriterion.H:239] Creating stopping criterion with minIter 3 frequency 1
[OGL LOG][Proc: 0]nuTilda: generate_solver: 0.017 [ms]
[OGL LOG][Proc: 0]nuTilda: solve: 40.748 [ms]
[OGL LOG][Proc: 0]nuTilda: copy_x_back: 1.11 [ms]
[OGL LOG][lduLduBase.H:330] 
Statistics:
	Time per iteration: 20374 [mu s]
	Time per residual norm calculation: 1262.000000 [mu s]
	Time per iteration and DOF: 3.230309 [ns]
	Retrieve results bandwidth 3.753000 [GByte/s]
[OGL LOG][Proc: 0]nuTilda: solve_multi_gpu: 49.299 [ms]
BJcudaGKOBiCGStab:  Solving for nuTilda, Initial residual = 0.03463156970016026, Final residual = 0.002113370790222505, No Iterations 2
ExecutionTime = 116.75 s  ClockTime = 121 s

Time = 10

velocityDampingConstraint velocityDamping damped 124 (0%) of cells, with max limit 300
[OGL LOG][Proc: 0]: global_index_init: 0.043 [ms]
[OGL LOG][Proc: 0]Ux_local_coeffs: call_update: 0 [ms]
[OGL LOG][Proc: 0]Ux_non_local_coeffs: call_update: 0 [ms]
[OGL LOG][Proc: 0]Ux: update_local_matrix_data: 21.047 [ms]
[OGL LOG][Proc: 0]Ux: update_non_local_matrix_data: 0.358 [ms]
[OGL LOG][Proc: 0]Ux_matrix: call_update: 1.813 [ms]
[OGL LOG][Proc: 0]Ux_rhs: call_update: 0.5 [ms]
[OGL LOG][Preconditioner.H:121] Generate preconditioner BJ MaxBlockSize 1
[OGL LOG][Proc: 0]Ux: init_precond: 1.081 [ms]
[OGL LOG][StoppingCriterion.H:239] Creating stopping criterion with minIter 4 frequency 1
[OGL LOG][Proc: 0]Ux: generate_solver: 0.014 [ms]
[OGL LOG][Proc: 0]Ux: solve: 47.489 [ms]
[OGL LOG][Proc: 0]Ux: copy_x_back: 1.125 [ms]
[OGL LOG][lduLduBase.H:330] 
Statistics:
	Time per iteration: 15829 [mu s]
	Time per residual norm calculation: 1256.000000 [mu s]
	Time per iteration and DOF: 2.509697 [ns]
	Retrieve results bandwidth 3.703000 [GByte/s]
[OGL LOG][Proc: 0]Ux: solve_multi_gpu: 55.019 [ms]
BJcudaGKOBiCGStab:  Solving for Ux, Initial residual = 0.03108135444653229, Final residual = 0.002573582289621853, No Iterations 3
[OGL LOG][Proc: 0]: global_index_init: 0.092 [ms]
[OGL LOG][Proc: 0]Uy_local_coeffs: call_update: 0 [ms]
[OGL LOG][Proc: 0]Uy_non_local_coeffs: call_update: 0 [ms]
[OGL LOG][Proc: 0]Uy: update_local_matrix_data: 20.589 [ms]
[OGL LOG][Proc: 0]Uy: update_non_local_matrix_data: 0.371 [ms]
[OGL LOG][Proc: 0]Uy_matrix: call_update: 2.206 [ms]
[OGL LOG][Proc: 0]Uy_rhs: call_update: 0.486 [ms]
[OGL LOG][Preconditioner.H:121] Generate preconditioner BJ MaxBlockSize 1
[OGL LOG][Proc: 0]Uy: init_precond: 1.137 [ms]
[OGL LOG][StoppingCriterion.H:239] Creating stopping criterion with minIter 4 frequency 1
[OGL LOG][Proc: 0]Uy: generate_solver: 0.015 [ms]
[OGL LOG][Proc: 0]Uy: solve: 48.706 [ms]
[OGL LOG][Proc: 0]Uy: copy_x_back: 1.191 [ms]
[OGL LOG][lduLduBase.H:330] 
Statistics:
	Time per iteration: 16235 [mu s]
	Time per residual norm calculation: 1607.000000 [mu s]
	Time per iteration and DOF: 2.574068 [ns]
	Retrieve results bandwidth 3.498000 [GByte/s]
[OGL LOG][Proc: 0]Uy: solve_multi_gpu: 57.182 [ms]
BJcudaGKOBiCGStab:  Solving for Uy, Initial residual = 0.07875542672688955, Final residual = 0.005833589603152885, No Iterations 3
[OGL LOG][Proc: 0]: global_index_init: 0.026 [ms]
[OGL LOG][Proc: 0]Uz_local_coeffs: call_update: 0 [ms]
[OGL LOG][Proc: 0]Uz_non_local_coeffs: call_update: 0 [ms]
[OGL LOG][Proc: 0]Uz: update_local_matrix_data: 20.815 [ms]
[OGL LOG][Proc: 0]Uz: update_non_local_matrix_data: 0.371 [ms]
[OGL LOG][Proc: 0]Uz_matrix: call_update: 2.349 [ms]
[OGL LOG][Proc: 0]Uz_rhs: call_update: 0.586 [ms]
[OGL LOG][Preconditioner.H:121] Generate preconditioner BJ MaxBlockSize 1
[OGL LOG][Proc: 0]Uz: init_precond: 1.132 [ms]
[OGL LOG][StoppingCriterion.H:239] Creating stopping criterion with minIter 4 frequency 1
[OGL LOG][Proc: 0]Uz: generate_solver: 0.013 [ms]
[OGL LOG][Proc: 0]Uz: solve: 49.124 [ms]
[OGL LOG][Proc: 0]Uz: copy_x_back: 1.156 [ms]
[OGL LOG][lduLduBase.H:330] 
Statistics:
	Time per iteration: 16374 [mu s]
	Time per residual norm calculation: 1618.000000 [mu s]
	Time per iteration and DOF: 2.596107 [ns]
	Retrieve results bandwidth 3.604000 [GByte/s]
[OGL LOG][Proc: 0]Uz: solve_multi_gpu: 57.212 [ms]
BJcudaGKOBiCGStab:  Solving for Uz, Initial residual = 0.09382036949984486, Final residual = 0.008618571629273163, No Iterations 3
[OGL LOG][Proc: 0]: global_index_init: 0.197 [ms]
[OGL LOG][Proc: 0]p_local_coeffs: call_update: 0 [ms]
[OGL LOG][Proc: 0]p_non_local_coeffs: call_update: 0 [ms]
[OGL LOG][Proc: 0]p: update_local_matrix_data: 15.732 [ms]
[OGL LOG][Proc: 0]p: update_non_local_matrix_data: 0.388 [ms]
[OGL LOG][Proc: 0]p_matrix: call_update: 1.759 [ms]
[OGL LOG][Proc: 0]p_rhs: call_update: 0.503 [ms]
[OGL LOG][Preconditioner.H:121] Generate preconditioner BJ MaxBlockSize 1
[OGL LOG][Proc: 0]p: init_precond: 1.116 [ms]
[OGL LOG][StoppingCriterion.H:239] Creating stopping criterion with minIter 522 frequency 18
[OGL LOG][Proc: 0]p: generate_solver: 0.014 [ms]
[OGL LOG][Proc: 0]p: solve: 1611.887 [ms]
[OGL LOG][Proc: 0]p: copy_x_back: 1.376 [ms]
[OGL LOG][lduLduBase.H:330] 
Statistics:
	Time per iteration: 2483 [mu s]
	Time per residual norm calculation: 1253.000000 [mu s]
	Time per iteration and DOF: 0.393681 [ns]
	Retrieve results bandwidth 3.028000 [GByte/s]
[OGL LOG][Proc: 0]p: solve_multi_gpu: 1619.304 [ms]
BJcudaGKOCG:  Solving for p, Initial residual = 0.3665313380831126, Final residual = 0.003609599819905536, No Iterations 649
time step continuity errors : sum local = 0.02023868201301596, global = -0.0003639742804067905, cumulative = -0.001857699504578224
[OGL LOG][Proc: 0]: global_index_init: 2.101 [ms]
[OGL LOG][Proc: 0]nuTilda_local_coeffs: call_update: 0 [ms]
[OGL LOG][Proc: 0]nuTilda_non_local_coeffs: call_update: 0 [ms]
[OGL LOG][Proc: 0]nuTilda: update_local_matrix_data: 20.414 [ms]
[OGL LOG][Proc: 0]nuTilda: update_non_local_matrix_data: 0.343 [ms]
[OGL LOG][Proc: 0]nuTilda_matrix: call_update: 1.667 [ms]
[OGL LOG][Proc: 0]nuTilda_rhs: call_update: 0.65 [ms]
[OGL LOG][Preconditioner.H:121] Generate preconditioner BJ MaxBlockSize 1
[OGL LOG][Proc: 0]nuTilda: init_precond: 1.11 [ms]
[OGL LOG][StoppingCriterion.H:239] Creating stopping criterion with minIter 3 frequency 1
[OGL LOG][Proc: 0]nuTilda: generate_solver: 0.015 [ms]
[OGL LOG][Proc: 0]nuTilda: solve: 41.186 [ms]
[OGL LOG][Proc: 0]nuTilda: copy_x_back: 1.174 [ms]
[OGL LOG][lduLduBase.H:330] 
Statistics:
	Time per iteration: 20593 [mu s]
	Time per residual norm calculation: 1414.000000 [mu s]
	Time per iteration and DOF: 3.265032 [ns]
	Retrieve results bandwidth 3.549000 [GByte/s]
[OGL LOG][Proc: 0]nuTilda: solve_multi_gpu: 49.38 [ms]
BJcudaGKOBiCGStab:  Solving for nuTilda, Initial residual = 0.02921638102393583, Final residual = 0.001697436282953244, No Iterations 2
ExecutionTime = 120.45 s  ClockTime = 125 s

Time = 11

velocityDampingConstraint velocityDamping damped 163 (0%) of cells, with max limit 300
[OGL LOG][Proc: 0]: global_index_init: 0.102 [ms]
[OGL LOG][Proc: 0]Ux_local_coeffs: call_update: 0 [ms]
[OGL LOG][Proc: 0]Ux_non_local_coeffs: call_update: 0 [ms]
[OGL LOG][Proc: 0]Ux: update_local_matrix_data: 20.838 [ms]
[OGL LOG][Proc: 0]Ux: update_non_local_matrix_data: 0.382 [ms]
[OGL LOG][Proc: 0]Ux_matrix: call_update: 1.517 [ms]
[OGL LOG][Proc: 0]Ux_rhs: call_update: 0.781 [ms]
[OGL LOG][Preconditioner.H:121] Generate preconditioner BJ MaxBlockSize 1
[OGL LOG][Proc: 0]Ux: init_precond: 1.387 [ms]
[OGL LOG][StoppingCriterion.H:239] Creating stopping criterion with minIter 4 frequency 1
[OGL LOG][Proc: 0]Ux: generate_solver: 0.02 [ms]
[OGL LOG][Proc: 0]Ux: solve: 43.752 [ms]
[OGL LOG][Proc: 0]Ux: copy_x_back: 1.074 [ms]
[OGL LOG][lduLduBase.H:330] 
Statistics:
	Time per iteration: 14584 [mu s]
	Time per residual norm calculation: 976.000000 [mu s]
	Time per iteration and DOF: 2.312301 [ns]
	Retrieve results bandwidth 3.879000 [GByte/s]
[OGL LOG][Proc: 0]Ux: solve_multi_gpu: 51.7 [ms]
BJcudaGKOBiCGStab:  Solving for Ux, Initial residual = 0.05003383605962919, Final residual = 0.004404994699418499, No Iterations 3
[OGL LOG][Proc: 0]: global_index_init: 0.04 [ms]
[OGL LOG][Proc: 0]Uy_local_coeffs: call_update: 0 [ms]
[OGL LOG][Proc: 0]Uy_non_local_coeffs: call_update: 0 [ms]
[OGL LOG][Proc: 0]Uy: update_local_matrix_data: 20.27 [ms]
[OGL LOG][Proc: 0]Uy: update_non_local_matrix_data: 0.361 [ms]
[OGL LOG][Proc: 0]Uy_matrix: call_update: 1.753 [ms]
[OGL LOG][Proc: 0]Uy_rhs: call_update: 0.672 [ms]
[OGL LOG][Preconditioner.H:121] Generate preconditioner BJ MaxBlockSize 1
[OGL LOG][Proc: 0]Uy: init_precond: 1.464 [ms]
[OGL LOG][StoppingCriterion.H:239] Creating stopping criterion with minIter 4 frequency 1
[OGL LOG][Proc: 0]Uy: generate_solver: 0.015 [ms]
[OGL LOG][Proc: 0]Uy: solve: 54.456 [ms]
[OGL LOG][Proc: 0]Uy: copy_x_back: 1.253 [ms]
[...]
	Retrieve results bandwidth 3.012000 [GByte/s]
[OGL LOG][Proc: 0]p: solve_multi_gpu: 1631.631 [ms]
BJcudaGKOCG:  Solving for p, Initial residual = 0.1234557454457574, Final residual = 0.001175746912752824, No Iterations 619
time step continuity errors : sum local = 0.001444847667645897, global = -2.022975893860441e-05, cumulative = -0.0003293133407549532
[OGL LOG][Proc: 0]: global_index_init: 0.019 [ms]
[OGL LOG][Proc: 0]nuTilda_local_coeffs: call_update: 0 [ms]
[OGL LOG][Proc: 0]nuTilda_non_local_coeffs: call_update: 0 [ms]
[OGL LOG][Proc: 0]nuTilda: update_local_matrix_data: 20.212 [ms]
[OGL LOG][Proc: 0]nuTilda: update_non_local_matrix_data: 0.352 [ms]
[OGL LOG][Proc: 0]nuTilda_matrix: call_update: 1.706 [ms]
[OGL LOG][Proc: 0]nuTilda_rhs: call_update: 0.628 [ms]
[OGL LOG][Preconditioner.H:121] Generate preconditioner BJ MaxBlockSize 1
[OGL LOG][Proc: 0]nuTilda: init_precond: 1.395 [ms]
[OGL LOG][StoppingCriterion.H:239] Creating stopping criterion with minIter 3 frequency 1
[OGL LOG][Proc: 0]nuTilda: generate_solver: 0.017 [ms]
[OGL LOG][Proc: 0]nuTilda: solve: 48.057 [ms]
[OGL LOG][Proc: 0]nuTilda: copy_x_back: 1.132 [ms]
[OGL LOG][lduLduBase.H:330] 
Statistics:
	Time per iteration: 16019 [mu s]
	Time per residual norm calculation: 1262.000000 [mu s]
	Time per iteration and DOF: 2.539822 [ns]
	Retrieve results bandwidth 3.680000 [GByte/s]
[OGL LOG][Proc: 0]nuTilda: solve_multi_gpu: 56.813 [ms]
BJcudaGKOBiCGStab:  Solving for nuTilda, Initial residual = 0.00950978023378397, Final residual = 0.0007684775293228864, No Iterations 3
ExecutionTime = 406.54 s  ClockTime = 412 s

Time = 98

velocityDampingConstraint velocityDamping damped 0 (0%) of cells, with max limit 300
[OGL LOG][Proc: 0]: global_index_init: 0.104 [ms]
[OGL LOG][Proc: 0]Ux_local_coeffs: call_update: 0 [ms]
[OGL LOG][Proc: 0]Ux_non_local_coeffs: call_update: 0 [ms]
[OGL LOG][Proc: 0]Ux: update_local_matrix_data: 21.004 [ms]
[OGL LOG][Proc: 0]Ux: update_non_local_matrix_data: 0.391 [ms]
[OGL LOG][Proc: 0]Ux_matrix: call_update: 1.769 [ms]
[OGL LOG][Proc: 0]Ux_rhs: call_update: 0.745 [ms]
[OGL LOG][Preconditioner.H:121] Generate preconditioner BJ MaxBlockSize 1
[OGL LOG][Proc: 0]Ux: init_precond: 1.115 [ms]
[OGL LOG][StoppingCriterion.H:239] Creating stopping criterion with minIter 4 frequency 1
[OGL LOG][Proc: 0]Ux: generate_solver: 0.016 [ms]
[OGL LOG][Proc: 0]Ux: solve: 51.645 [ms]
[OGL LOG][Proc: 0]Ux: copy_x_back: 1.133 [ms]
[OGL LOG][lduLduBase.H:330] 
Statistics:
	Time per iteration: 12911 [mu s]
	Time per residual norm calculation: 978.000000 [mu s]
	Time per iteration and DOF: 2.047046 [ns]
	Retrieve results bandwidth 3.677000 [GByte/s]
[OGL LOG][Proc: 0]Ux: solve_multi_gpu: 59.406 [ms]
BJcudaGKOBiCGStab:  Solving for Ux, Initial residual = 0.005924397813353115, Final residual = 0.000343672379819388, No Iterations 4
[OGL LOG][Proc: 0]: global_index_init: 0.109 [ms]
[OGL LOG][Proc: 0]Uy_local_coeffs: call_update: 0 [ms]
[OGL LOG][Proc: 0]Uy_non_local_coeffs: call_update: 0 [ms]
[OGL LOG][Proc: 0]Uy: update_local_matrix_data: 20.372 [ms]
[OGL LOG][Proc: 0]Uy: update_non_local_matrix_data: 0.369 [ms]
[OGL LOG][Proc: 0]Uy_matrix: call_update: 1.793 [ms]
[OGL LOG][Proc: 0]Uy_rhs: call_update: 0.5639999999999999 [ms]
[OGL LOG][Preconditioner.H:121] Generate preconditioner BJ MaxBlockSize 1
[OGL LOG][Proc: 0]Uy: init_precond: 1.084 [ms]
[OGL LOG][StoppingCriterion.H:239] Creating stopping criterion with minIter 4 frequency 1
[OGL LOG][Proc: 0]Uy: generate_solver: 0.014 [ms]
[OGL LOG][Proc: 0]Uy: solve: 45.282 [ms]
[OGL LOG][Proc: 0]Uy: copy_x_back: 1.16 [ms]
[OGL LOG][lduLduBase.H:330] 
Statistics:
	Time per iteration: 15094 [mu s]
	Time per residual norm calculation: 1535.000000 [mu s]
	Time per iteration and DOF: 2.393162 [ns]
	Retrieve results bandwidth 3.592000 [GByte/s]
[OGL LOG][Proc: 0]Uy: solve_multi_gpu: 52.762 [ms]
BJcudaGKOBiCGStab:  Solving for Uy, Initial residual = 0.02348984575435219, Final residual = 0.002327425548644275, No Iterations 3
[OGL LOG][Proc: 0]: global_index_init: 0.048 [ms]
[OGL LOG][Proc: 0]Uz_local_coeffs: call_update: 0 [ms]
[OGL LOG][Proc: 0]Uz_non_local_coeffs: call_update: 0 [ms]
[OGL LOG][Proc: 0]Uz: update_local_matrix_data: 19.625 [ms]
[OGL LOG][Proc: 0]Uz: update_non_local_matrix_data: 0.398 [ms]
[OGL LOG][Proc: 0]Uz_matrix: call_update: 1.65 [ms]
[OGL LOG][Proc: 0]Uz_rhs: call_update: 0.788 [ms]
[OGL LOG][Preconditioner.H:121] Generate preconditioner BJ MaxBlockSize 1
[OGL LOG][Proc: 0]Uz: init_precond: 1.07 [ms]
[OGL LOG][StoppingCriterion.H:239] Creating stopping criterion with minIter 4 frequency 1
[OGL LOG][Proc: 0]Uz: generate_solver: 0.013 [ms]
[OGL LOG][Proc: 0]Uz: solve: 50.782 [ms]
[OGL LOG][Proc: 0]Uz: copy_x_back: 1.139 [ms]
[OGL LOG][lduLduBase.H:330] 
Statistics:
	Time per iteration: 16927 [mu s]
	Time per residual norm calculation: 1383.000000 [mu s]
	Time per iteration and DOF: 2.683785 [ns]
	Retrieve results bandwidth 3.658000 [GByte/s]
[OGL LOG][Proc: 0]Uz: solve_multi_gpu: 61.063 [ms]
BJcudaGKOBiCGStab:  Solving for Uz, Initial residual = 0.02657993396778523, Final residual = 0.002081229843716713, No Iterations 3
[OGL LOG][Proc: 0]: global_index_init: 0.117 [ms]
[OGL LOG][Proc: 0]p_local_coeffs: call_update: 0 [ms]
[OGL LOG][Proc: 0]p_non_local_coeffs: call_update: 0 [ms]
[OGL LOG][Proc: 0]p: update_local_matrix_data: 15.705 [ms]
[OGL LOG][Proc: 0]p: update_non_local_matrix_data: 0.397 [ms]
[OGL LOG][Proc: 0]p_matrix: call_update: 1.797 [ms]
[OGL LOG][Proc: 0]p_rhs: call_update: 0.598 [ms]
[OGL LOG][Preconditioner.H:121] Generate preconditioner BJ MaxBlockSize 1
[OGL LOG][Proc: 0]p: init_precond: 1.099 [ms]
[OGL LOG][StoppingCriterion.H:239] Creating stopping criterion with minIter 371 frequency 11
[OGL LOG][Proc: 0]p: generate_solver: 0.013 [ms]
[OGL LOG][Proc: 0]p: solve: 947.199 [ms]
[OGL LOG][Proc: 0]p: copy_x_back: 1.374 [ms]
[OGL LOG][lduLduBase.H:330] 
Statistics:
	Time per iteration: 2525 [mu s]
	Time per residual norm calculation: 1271.000000 [mu s]
	Time per iteration and DOF: 0.400340 [ns]
	Retrieve results bandwidth 3.032000 [GByte/s]
[OGL LOG][Proc: 0]p: solve_multi_gpu: 956.246 [ms]
BJcudaGKOCG:  Solving for p, Initial residual = 0.1378057380700959, Final residual = 0.0003521841667247508, No Iterations 375
time step continuity errors : sum local = 0.0003606201389409799, global = 2.692717842644327e-05, cumulative = -0.00030238616232851
[OGL LOG][Proc: 0]: global_index_init: 0.4 [ms]
[OGL LOG][Proc: 0]nuTilda_local_coeffs: call_update: 0 [ms]
[OGL LOG][Proc: 0]nuTilda_non_local_coeffs: call_update: 0 [ms]
[OGL LOG][Proc: 0]nuTilda: update_local_matrix_data: 20.338 [ms]
[OGL LOG][Proc: 0]nuTilda: update_non_local_matrix_data: 0.423 [ms]
[OGL LOG][Proc: 0]nuTilda_matrix: call_update: 1.662 [ms]
[OGL LOG][Proc: 0]nuTilda_rhs: call_update: 0.745 [ms]
[OGL LOG][Preconditioner.H:121] Generate preconditioner BJ MaxBlockSize 1
[OGL LOG][Proc: 0]nuTilda: init_precond: 1.46 [ms]
[OGL LOG][StoppingCriterion.H:239] Creating stopping criterion with minIter 4 frequency 1
[OGL LOG][Proc: 0]nuTilda: generate_solver: 0.016 [ms]
[OGL LOG][Proc: 0]nuTilda: solve: 40.383 [ms]
[OGL LOG][Proc: 0]nuTilda: copy_x_back: 1.117 [ms]
[OGL LOG][lduLduBase.H:330] 
Statistics:
	Time per iteration: 20191 [mu s]
	Time per residual norm calculation: 1259.000000 [mu s]
	Time per iteration and DOF: 3.201295 [ns]
	Retrieve results bandwidth 3.730000 [GByte/s]
[OGL LOG][Proc: 0]nuTilda: solve_multi_gpu: 49.21 [ms]
BJcudaGKOBiCGStab:  Solving for nuTilda, Initial residual = 0.01137848722180348, Final residual = 0.0009610914634769242, No Iterations 2
bounding nuTilda, min: -9.094088958302291e-06 max: 0.03234151568584089 average: 0.00112249616369233
ExecutionTime = 409.56 s  ClockTime = 415 s

Time = 99

velocityDampingConstraint velocityDamping damped 0 (0%) of cells, with max limit 300
[OGL LOG][Proc: 0]: global_index_init: 0.083 [ms]
[OGL LOG][Proc: 0]Ux_local_coeffs: call_update: 0 [ms]
[OGL LOG][Proc: 0]Ux_non_local_coeffs: call_update: 0 [ms]
[OGL LOG][Proc: 0]Ux: update_local_matrix_data: 20.76 [ms]
[OGL LOG][Proc: 0]Ux: update_non_local_matrix_data: 0.37 [ms]
[OGL LOG][Proc: 0]Ux_matrix: call_update: 1.526 [ms]
[OGL LOG][Proc: 0]Ux_rhs: call_update: 0.873 [ms]
[OGL LOG][Preconditioner.H:121] Generate preconditioner BJ MaxBlockSize 1
[OGL LOG][Proc: 0]Ux: init_precond: 1.407 [ms]
[OGL LOG][StoppingCriterion.H:239] Creating stopping criterion with minIter 4 frequency 1
[OGL LOG][Proc: 0]Ux: generate_solver: 0.016 [ms]
[OGL LOG][Proc: 0]Ux: solve: 56.368 [ms]
[OGL LOG][Proc: 0]Ux: copy_x_back: 1.137 [ms]
[OGL LOG][lduLduBase.H:330] 
Statistics:
	Time per iteration: 14092 [mu s]
	Time per residual norm calculation: 1272.000000 [mu s]
	Time per iteration and DOF: 2.234295 [ns]
	Retrieve results bandwidth 3.664000 [GByte/s]
[OGL LOG][Proc: 0]Ux: solve_multi_gpu: 65.43899999999999 [ms]
BJcudaGKOBiCGStab:  Solving for Ux, Initial residual = 0.005883046711568125, Final residual = 0.0002568599184140742, No Iterations 4
[OGL LOG][Proc: 0]: global_index_init: 0.035 [ms]
[OGL LOG][Proc: 0]Uy_local_coeffs: call_update: 0 [ms]
[OGL LOG][Proc: 0]Uy_non_local_coeffs: call_update: 0 [ms]
[OGL LOG][Proc: 0]Uy: update_local_matrix_data: 20.192 [ms]
[OGL LOG][Proc: 0]Uy: update_non_local_matrix_data: 0.37 [ms]
[OGL LOG][Proc: 0]Uy_matrix: call_update: 1.694 [ms]
[OGL LOG][Proc: 0]Uy_rhs: call_update: 0.621 [ms]
[OGL LOG][Preconditioner.H:121] Generate preconditioner BJ MaxBlockSize 1
[OGL LOG][Proc: 0]Uy: init_precond: 1.061 [ms]
[OGL LOG][StoppingCriterion.H:239] Creating stopping criterion with minIter 3 frequency 1
[OGL LOG][Proc: 0]Uy: generate_solver: 0.014 [ms]
[OGL LOG][Proc: 0]Uy: solve: 51.96 [ms]
[OGL LOG][Proc: 0]Uy: copy_x_back: 1.182 [ms]
[OGL LOG][lduLduBase.H:330] 
Statistics:
	Time per iteration: 12990 [mu s]
	Time per residual norm calculation: 1330.000000 [mu s]
	Time per iteration and DOF: 2.059572 [ns]
	Retrieve results bandwidth 3.525000 [GByte/s]
[OGL LOG][Proc: 0]Uy: solve_multi_gpu: 61.214 [ms]
BJcudaGKOBiCGStab:  Solving for Uy, Initial residual = 0.0235849017746105, Final residual = 0.0008282916991739702, No Iterations 4
[OGL LOG][Proc: 0]: global_index_init: 0.117 [ms]
[OGL LOG][Proc: 0]Uz_local_coeffs: call_update: 0 [ms]
[OGL LOG][Proc: 0]Uz_non_local_coeffs: call_update: 0 [ms]
[OGL LOG][Proc: 0]Uz: update_local_matrix_data: 20.065 [ms]
[OGL LOG][Proc: 0]Uz: update_non_local_matrix_data: 0.354 [ms]
[OGL LOG][Proc: 0]Uz_matrix: call_update: 8.208 [ms]
[OGL LOG][Proc: 0]Uz_rhs: call_update: 0.492 [ms]
[OGL LOG][Preconditioner.H:121] Generate preconditioner BJ MaxBlockSize 1
[OGL LOG][Proc: 0]Uz: init_precond: 1.434 [ms]
[OGL LOG][StoppingCriterion.H:239] Creating stopping criterion with minIter 4 frequency 1
[OGL LOG][Proc: 0]Uz: generate_solver: 0.018 [ms]
[OGL LOG][Proc: 0]Uz: solve: 55.902 [ms]
[OGL LOG][Proc: 0]Uz: copy_x_back: 1.143 [ms]
[OGL LOG][lduLduBase.H:330] 
Statistics:
	Time per iteration: 13975 [mu s]
	Time per residual norm calculation: 1470.000000 [mu s]
	Time per iteration and DOF: 2.215744 [ns]
	Retrieve results bandwidth 3.645000 [GByte/s]
[OGL LOG][Proc: 0]Uz: solve_multi_gpu: 71.48699999999999 [ms]
BJcudaGKOBiCGStab:  Solving for Uz, Initial residual = 0.02582625131006114, Final residual = 0.001106872742477686, No Iterations 4
[OGL LOG][Proc: 0]: global_index_init: 0.134 [ms]
[OGL LOG][Proc: 0]p_local_coeffs: call_update: 0 [ms]
[OGL LOG][Proc: 0]p_non_local_coeffs: call_update: 0 [ms]
[OGL LOG][Proc: 0]p: update_local_matrix_data: 15.611 [ms]
[OGL LOG][Proc: 0]p: update_non_local_matrix_data: 0.371 [ms]
[OGL LOG][Proc: 0]p_matrix: call_update: 1.699 [ms]
[OGL LOG][Proc: 0]p_rhs: call_update: 0.5649999999999999 [ms]
[OGL LOG][Preconditioner.H:121] Generate preconditioner BJ MaxBlockSize 1
[OGL LOG][Proc: 0]p: init_precond: 1.123 [ms]
[OGL LOG][StoppingCriterion.H:239] Creating stopping criterion with minIter 225 frequency 12
[OGL LOG][Proc: 0]p: generate_solver: 0.013 [ms]
[OGL LOG][Proc: 0]p: solve: 1526.487 [ms]
[OGL LOG][Proc: 0]p: copy_x_back: 1.797 [ms]
[OGL LOG][lduLduBase.H:330] 
Statistics:
	Time per iteration: 2539 [mu s]
	Time per residual norm calculation: 1271.000000 [mu s]
	Time per iteration and DOF: 0.402560 [ns]
	Retrieve results bandwidth 2.318000 [GByte/s]
[OGL LOG][Proc: 0]p: solve_multi_gpu: 1535.208 [ms]
BJcudaGKOCG:  Solving for p, Initial residual = 0.1351600053519154, Final residual = 0.001313041646817749, No Iterations 601
time step continuity errors : sum local = 0.001329982915071659, global = 2.161967897826003e-05, cumulative = -0.00028076648335025
[OGL LOG][Proc: 0]: global_index_init: 1.584 [ms]
[OGL LOG][Proc: 0]nuTilda_local_coeffs: call_update: 0 [ms]
[OGL LOG][Proc: 0]nuTilda_non_local_coeffs: call_update: 0 [ms]
[OGL LOG][Proc: 0]nuTilda: update_local_matrix_data: 20.306 [ms]
[OGL LOG][Proc: 0]nuTilda: update_non_local_matrix_data: 0.396 [ms]
[OGL LOG][Proc: 0]nuTilda_matrix: call_update: 1.839 [ms]
[OGL LOG][Proc: 0]nuTilda_rhs: call_update: 0.5669999999999999 [ms]
[OGL LOG][Preconditioner.H:121] Generate preconditioner BJ MaxBlockSize 1
[OGL LOG][Proc: 0]nuTilda: init_precond: 1.112 [ms]
[OGL LOG][StoppingCriterion.H:239] Creating stopping criterion with minIter 3 frequency 1
[OGL LOG][Proc: 0]nuTilda: generate_solver: 0.019 [ms]
[OGL LOG][Proc: 0]nuTilda: solve: 48.549 [ms]
[OGL LOG][Proc: 0]nuTilda: copy_x_back: 1.14 [ms]
[OGL LOG][lduLduBase.H:330] 
Statistics:
	Time per iteration: 16183 [mu s]
	Time per residual norm calculation: 1264.000000 [mu s]
	Time per iteration and DOF: 2.565824 [ns]
	Retrieve results bandwidth 3.655000 [GByte/s]
[OGL LOG][Proc: 0]nuTilda: solve_multi_gpu: 57.416 [ms]
BJcudaGKOBiCGStab:  Solving for nuTilda, Initial residual = 0.009475369447436467, Final residual = 0.000809510586585267, No Iterations 3
ExecutionTime = 413.13 s  ClockTime = 418 s

Time = 100

velocityDampingConstraint velocityDamping damped 0 (0%) of cells, with max limit 300
[OGL LOG][Proc: 0]: global_index_init: 0.042 [ms]
[OGL LOG][Proc: 0]Ux_local_coeffs: call_update: 0 [ms]
[OGL LOG][Proc: 0]Ux_non_local_coeffs: call_update: 0 [ms]
[OGL LOG][Proc: 0]Ux: update_local_matrix_data: 21.709 [ms]
[OGL LOG][Proc: 0]Ux: update_non_local_matrix_data: 0.391 [ms]
[OGL LOG][Proc: 0]Ux_matrix: call_update: 1.539 [ms]
[OGL LOG][Proc: 0]Ux_rhs: call_update: 0.872 [ms]
[OGL LOG][Preconditioner.H:121] Generate preconditioner BJ MaxBlockSize 1
[OGL LOG][Proc: 0]Ux: init_precond: 1.388 [ms]
[OGL LOG][StoppingCriterion.H:239] Creating stopping criterion with minIter 4 frequency 1
[OGL LOG][Proc: 0]Ux: generate_solver: 0.019 [ms]
[OGL LOG][Proc: 0]Ux: solve: 50.741 [ms]
[OGL LOG][Proc: 0]Ux: copy_x_back: 1.107 [ms]
[OGL LOG][lduLduBase.H:330] 
Statistics:
	Time per iteration: 12685 [mu s]
	Time per residual norm calculation: 974.000000 [mu s]
	Time per iteration and DOF: 2.011214 [ns]
	Retrieve results bandwidth 3.764000 [GByte/s]
[OGL LOG][Proc: 0]Ux: solve_multi_gpu: 58.597 [ms]
BJcudaGKOBiCGStab:  Solving for Ux, Initial residual = 0.005778629669522669, Final residual = 0.0003112392421206335, No Iterations 4
[OGL LOG][Proc: 0]: global_index_init: 0.095 [ms]
[OGL LOG][Proc: 0]Uy_local_coeffs: call_update: 0 [ms]
[OGL LOG][Proc: 0]Uy_non_local_coeffs: call_update: 0 [ms]
[OGL LOG][Proc: 0]Uy: update_local_matrix_data: 20.494 [ms]
[OGL LOG][Proc: 0]Uy: update_non_local_matrix_data: 0.411 [ms]
[OGL LOG][Proc: 0]Uy_matrix: call_update: 1.735 [ms]
[OGL LOG][Proc: 0]Uy_rhs: call_update: 0.5659999999999999 [ms]
[OGL LOG][Preconditioner.H:121] Generate preconditioner BJ MaxBlockSize 1
[OGL LOG][Proc: 0]Uy: init_precond: 1.086 [ms]
[OGL LOG][StoppingCriterion.H:239] Creating stopping criterion with minIter 4 frequency 1
[OGL LOG][Proc: 0]Uy: generate_solver: 0.013 [ms]
[OGL LOG][Proc: 0]Uy: solve: 47.024 [ms]
[OGL LOG][Proc: 0]Uy: copy_x_back: 1.138 [ms]
[OGL LOG][lduLduBase.H:330] 
Statistics:
	Time per iteration: 15674 [mu s]
	Time per residual norm calculation: 1262.000000 [mu s]
	Time per iteration and DOF: 2.485122 [ns]
	Retrieve results bandwidth 3.661000 [GByte/s]
[OGL LOG][Proc: 0]Uy: solve_multi_gpu: 54.727 [ms]
BJcudaGKOBiCGStab:  Solving for Uy, Initial residual = 0.02390062515497112, Final residual = 0.002117435223774521, No Iterations 3
[OGL LOG][Proc: 0]: global_index_init: 0.121 [ms]
[OGL LOG][Proc: 0]Uz_local_coeffs: call_update: 0 [ms]
[OGL LOG][Proc: 0]Uz_non_local_coeffs: call_update: 0 [ms]
[OGL LOG][Proc: 0]Uz: update_local_matrix_data: 20.025 [ms]
[OGL LOG][Proc: 0]Uz: update_non_local_matrix_data: 0.401 [ms]
[OGL LOG][Proc: 0]Uz_matrix: call_update: 1.635 [ms]
[OGL LOG][Proc: 0]Uz_rhs: call_update: 0.768 [ms]
[OGL LOG][Preconditioner.H:121] Generate preconditioner BJ MaxBlockSize 1
[OGL LOG][Proc: 0]Uz: init_precond: 1.353 [ms]
[OGL LOG][StoppingCriterion.H:239] Creating stopping criterion with minIter 4 frequency 1
[OGL LOG][Proc: 0]Uz: generate_solver: 0.015 [ms]
[OGL LOG][Proc: 0]Uz: solve: 49.188 [ms]
[OGL LOG][Proc: 0]Uz: copy_x_back: 1.139 [ms]
[OGL LOG][lduLduBase.H:330] 
Statistics:
	Time per iteration: 12297 [mu s]
	Time per residual norm calculation: 1273.000000 [mu s]
	Time per iteration and DOF: 1.949696 [ns]
	Retrieve results bandwidth 3.658000 [GByte/s]
[OGL LOG][Proc: 0]Uz: solve_multi_gpu: 58.312 [ms]
BJcudaGKOBiCGStab:  Solving for Uz, Initial residual = 0.02595579690671822, Final residual = 0.001188662395993451, No Iterations 4
[OGL LOG][Proc: 0]: global_index_init: 0.018 [ms]
[OGL LOG][Proc: 0]p_local_coeffs: call_update: 0 [ms]
[OGL LOG][Proc: 0]p_non_local_coeffs: call_update: 0 [ms]
[OGL LOG][Proc: 0]p: update_local_matrix_data: 15.974 [ms]
[OGL LOG][Proc: 0]p: update_non_local_matrix_data: 0.387 [ms]
[OGL LOG][Proc: 0]p_matrix: call_update: 1.573 [ms]
[OGL LOG][Proc: 0]p_rhs: call_update: 0.8090000000000001 [ms]
[OGL LOG][Preconditioner.H:121] Generate preconditioner BJ MaxBlockSize 1
[OGL LOG][Proc: 0]p: init_precond: 1.415 [ms]
[OGL LOG][StoppingCriterion.H:239] Creating stopping criterion with minIter 360 frequency 15
[OGL LOG][Proc: 0]p: generate_solver: 0.02 [ms]
[OGL LOG][Proc: 0]p: solve: 1539.366 [ms]
[OGL LOG][Proc: 0]p: copy_x_back: 1.397 [ms]
[OGL LOG][lduLduBase.H:330] 
Statistics:
	Time per iteration: 2498 [mu s]
	Time per residual norm calculation: 965.000000 [mu s]
	Time per iteration and DOF: 0.396059 [ns]
	Retrieve results bandwidth 2.982000 [GByte/s]
[OGL LOG][Proc: 0]p: solve_multi_gpu: 1547.948 [ms]
BJcudaGKOCG:  Solving for p, Initial residual = 0.1184337590617701, Final residual = 0.001111937969192683, No Iterations 616
time step continuity errors : sum local = 0.001227748066938271, global = 6.601117130059506e-05, cumulative = -0.0002147553120496549
[OGL LOG][Proc: 0]: global_index_init: 3.76 [ms]
[OGL LOG][Proc: 0]nuTilda_local_coeffs: call_update: 0 [ms]
[OGL LOG][Proc: 0]nuTilda_non_local_coeffs: call_update: 0 [ms]
[OGL LOG][Proc: 0]nuTilda: update_local_matrix_data: 20.249 [ms]
[OGL LOG][Proc: 0]nuTilda: update_non_local_matrix_data: 0.39 [ms]
[OGL LOG][Proc: 0]nuTilda_matrix: call_update: 1.652 [ms]
[OGL LOG][Proc: 0]nuTilda_rhs: call_update: 0.834 [ms]
[OGL LOG][Preconditioner.H:121] Generate preconditioner BJ MaxBlockSize 1
[OGL LOG][Proc: 0]nuTilda: init_precond: 1.096 [ms]
[OGL LOG][StoppingCriterion.H:239] Creating stopping criterion with minIter 4 frequency 1
[OGL LOG][Proc: 0]nuTilda: generate_solver: 0.015 [ms]
[OGL LOG][Proc: 0]nuTilda: solve: 39.381 [ms]
[OGL LOG][Proc: 0]nuTilda: copy_x_back: 1.136 [ms]
[OGL LOG][lduLduBase.H:330] 
Statistics:
	Time per iteration: 19690 [mu s]
	Time per residual norm calculation: 1266.000000 [mu s]
	Time per iteration and DOF: 3.121861 [ns]
	Retrieve results bandwidth 3.667000 [GByte/s]
[OGL LOG][Proc: 0]nuTilda: solve_multi_gpu: 47.87 [ms]
BJcudaGKOBiCGStab:  Solving for nuTilda, Initial residual = 0.01124724027415498, Final residual = 0.0009534601727826324, No Iterations 2
bounding nuTilda, min: -1.382499360717062e-05 max: 0.03312624335696612 average: 0.001177028187070124
ExecutionTime = 416.73 s  ClockTime = 422 s

End

Finalising parallel run
