/*---------------------------------------------------------------------------*\
| =========                 |                                                 |
| \\      /  F ield         | OpenFOAM: The Open Source CFD Toolbox           |
|  \\    /   O peration     | Version:  2306                                  |
|   \\  /    A nd           | Website:  www.openfoam.com                      |
|    \\/     M anipulation  |                                                 |
\*---------------------------------------------------------------------------*/
Build  : a6e826bd55-20230630 OPENFOAM=2306 version=v2306
Arch   : "LSB;label=32;scalar=64"
Exec   : simpleFoam -parallel -case /home/greole/data/code/exasim_project/micro_benchmarks/WindsorBody/workspace/6f66708605140eb606d36fca219e8974/case
Date   : Aug 12 2023
Time   : 00:13:44
Host   : nla-gpu2.ianm.kit.edu
PID    : 2486417
I/O    : uncollated
Case   : /home/greole/data/code/exasim_project/micro_benchmarks/WindsorBody/workspace/6f66708605140eb606d36fca219e8974/case
nProcs : 16
Hosts  :
(
    (nla-gpu2.ianm.kit.edu 16)
)
Pstream initialized with:
    floatTransfer      : false
    nProcsSimpleSum    : 0
    nonBlockingExchange: 0 (tuning: 0)
    exchange algorithm : -1
    commsType          : nonBlocking
    polling iterations : 0
trapFpe: Floating point exception trapping enabled (FOAM_SIGFPE).
fileModificationChecking : Monitoring run-time modified files using timeStampMaster (fileModificationSkew 5, maxFileModificationPolls 20)
allowSystemOperations : Allowing user-supplied system call operations

// * * * * * * * * * * * * * * * * * * * * * * * * * * * * * * * * * * * * * //
Create time

--> FOAM Warning : 
    From void* Foam::dlLibraryTable::openLibrary(const Foam::fileName&, bool)
    in file db/dynamicLibrary/dlLibraryTable/dlLibraryTable.C at line 188
    Could not load "libpetscFoam.so"
libpetscFoam.so: cannot open shared object file: No such file or directory
Create mesh for time = 0


SIMPLE: convergence criteria
    field p	 tolerance 1e-08
    field U	 tolerance 1e-08
    field k	 tolerance 1e-08
    field omega	 tolerance 1e-08
    field nuTilda	 tolerance 1e-08

Reading field p

Reading field U

Reading/calculating face flux field phi

Selecting incompressible transport model Newtonian
Selecting turbulence model type RAS
Selecting RAS turbulence model SpalartAllmaras
Selecting patchDistMethod meshWave
ft2 term: inactive
RAS
{
    RASModel        SpalartAllmaras;
    turbulence      on;
    printCoeffs     on;
    sigmaNut        0.66666;
    kappa           0.41;
    Cb1             0.1355;
    Cb2             0.622;
    Cw2             0.3;
    Cw3             2;
    Cv1             7.1;
    Cs              0.3;
    ck              0.07000000000000001;
    ft2             false;
    Ct3             1.2;
    Ct4             0.5;
}

No MRF models present

Creating finite volume options from "system/fvOptions"

Selecting finite volume options type velocityDampingConstraint
    Source: velocityDamping
    - selecting all cells
    - selected 50457088 cell(s) with volume 222.6066441268596

Starting time loop

--> FOAM Warning : 
    From bool Foam::functionObjectList::read()
    in file db/functionObjects/functionObjectList/functionObjectList.C at line 1035
    Reading "system/controlDict" at line 2 to 41
    Entry 'lref' is not a dictionary
--> FOAM Warning : 
    From bool Foam::functionObjectList::read()
    in file db/functionObjects/functionObjectList/functionObjectList.C at line 1035
    Reading "system/controlDict" at line 2 to 41
    Entry 'Aref' is not a dictionary
--> FOAM Warning : 
    From bool Foam::functionObjectList::read()
    in file db/functionObjects/functionObjectList/functionObjectList.C at line 1035
    Reading "system/controlDict" at line 2 to 41
    Entry 'yawAngle' is not a dictionary
--> FOAM Warning : 
    From bool Foam::functionObjectList::read()
    in file db/functionObjects/functionObjectList/functionObjectList.C at line 1035
    Reading "system/controlDict" at line 2 to 41
    Entry 'lDomain' is not a dictionary
--> FOAM Warning : 
    From bool Foam::functionObjectList::read()
    in file db/functionObjects/functionObjectList/functionObjectList.C at line 1035
    Reading "system/controlDict" at line 2 to 41
    Entry 'bDomain' is not a dictionary
--> FOAM Warning : 
    From bool Foam::functionObjectList::read()
    in file db/functionObjects/functionObjectList/functionObjectList.C at line 1035
    Reading "system/controlDict" at line 2 to 41
    Entry 'hDomain' is not a dictionary
--> FOAM Warning : 
    From bool Foam::functionObjectList::read()
    in file db/functionObjects/functionObjectList/functionObjectList.C at line 1035
    Reading "system/controlDict" at line 2 to 41
    Entry 'xCenter' is not a dictionary
--> FOAM Warning : 
    From bool Foam::functionObjectList::read()
    in file db/functionObjects/functionObjectList/functionObjectList.C at line 1035
    Reading "system/controlDict" at line 2 to 41
    Entry 'yCenter' is not a dictionary
--> FOAM Warning : 
    From bool Foam::functionObjectList::read()
    in file db/functionObjects/functionObjectList/functionObjectList.C at line 1035
    Reading "system/controlDict" at line 2 to 41
    Entry 'zCenter' is not a dictionary
--> FOAM Warning : 
    From bool Foam::functionObjectList::read()
    in file db/functionObjects/functionObjectList/functionObjectList.C at line 1035
    Reading "system/controlDict" at line 2 to 41
    Entry 'inletPatch' is not a dictionary
--> FOAM Warning : 
    From bool Foam::functionObjectList::read()
    in file db/functionObjects/functionObjectList/functionObjectList.C at line 1035
    Reading "system/controlDict" at line 2 to 41
    Entry 'outletPatch' is not a dictionary
--> FOAM Warning : 
    From bool Foam::functionObjectList::read()
    in file db/functionObjects/functionObjectList/functionObjectList.C at line 1035
    Reading "system/controlDict" at line 2 to 41
    Entry 'wallPatches' is not a dictionary
--> FOAM Warning : 
    From bool Foam::functionObjectList::read()
    in file db/functionObjects/functionObjectList/functionObjectList.C at line 1035
    Reading "system/controlDict" at line 2 to 41
    Entry 'forcesWallPatches' is not a dictionary
--> FOAM Warning : 
    From bool Foam::functionObjectList::read()
    in file db/functionObjects/functionObjectList/functionObjectList.C at line 1035
    Reading "system/controlDict" at line 2 to 41
    Entry 'symmPatches' is not a dictionary
--> FOAM Warning : 
    From bool Foam::functionObjectList::read()
    in file db/functionObjects/functionObjectList/functionObjectList.C at line 1035
    Reading "system/controlDict" at line 2 to 41
    Entry 'Uinf' is not a dictionary
--> FOAM Warning : 
    From bool Foam::functionObjectList::read()
    in file db/functionObjects/functionObjectList/functionObjectList.C at line 1035
    Reading "system/controlDict" at line 2 to 41
    Entry 'UinfMag' is not a dictionary
--> FOAM Warning : 
    From bool Foam::functionObjectList::read()
    in file db/functionObjects/functionObjectList/functionObjectList.C at line 1035
    Reading "system/controlDict" at line 2 to 41
    Entry 'nu' is not a dictionary
--> FOAM Warning : 
    From bool Foam::functionObjectList::read()
    in file db/functionObjects/functionObjectList/functionObjectList.C at line 1035
    Reading "system/controlDict" at line 2 to 41
    Entry 'pref' is not a dictionary
--> FOAM Warning : 
    From bool Foam::functionObjectList::read()
    in file db/functionObjects/functionObjectList/functionObjectList.C at line 1035
    Reading "system/controlDict" at line 2 to 41
    Entry 'viscRatio' is not a dictionary
--> FOAM Warning : 
    From bool Foam::functionObjectList::read()
    in file db/functionObjects/functionObjectList/functionObjectList.C at line 1035
    Reading "system/controlDict" at line 2 to 41
    Entry 'Tu' is not a dictionary
--> FOAM Warning : 
    From bool Foam::functionObjectList::read()
    in file db/functionObjects/functionObjectList/functionObjectList.C at line 1035
    Reading "system/controlDict" at line 2 to 41
    Entry 'LESturbModel' is not a dictionary
--> FOAM Warning : 
    From bool Foam::functionObjectList::read()
    in file db/functionObjects/functionObjectList/functionObjectList.C at line 1035
    Reading "system/controlDict" at line 2 to 41
    Entry 'RASturbModel' is not a dictionary
--> FOAM Warning : 
    From bool Foam::functionObjectList::read()
    in file db/functionObjects/functionObjectList/functionObjectList.C at line 1035
    Reading "system/controlDict" at line 2 to 41
    Entry 'deltaTurb' is not a dictionary
--> FOAM Warning : 
    From bool Foam::functionObjectList::read()
    in file db/functionObjects/functionObjectList/functionObjectList.C at line 1035
    Reading "system/controlDict" at line 2 to 41
    Entry 'dt' is not a dictionary
--> FOAM Warning : 
    From bool Foam::functionObjectList::read()
    in file db/functionObjects/functionObjectList/functionObjectList.C at line 1035
    Reading "system/controlDict" at line 2 to 41
    Entry 'tAvg' is not a dictionary
--> FOAM Warning : 
    From bool Foam::functionObjectList::read()
    in file db/functionObjects/functionObjectList/functionObjectList.C at line 1035
    Reading "system/controlDict" at line 2 to 41
    Entry 'tEnd' is not a dictionary
--> FOAM Warning : 
    From bool Foam::functionObjectList::read()
    in file db/functionObjects/functionObjectList/functionObjectList.C at line 1035
    Reading "system/controlDict" at line 2 to 41
    Entry 'writeInterval_' is not a dictionary
--> FOAM Warning : 
    From bool Foam::functionObjectList::read()
    in file db/functionObjects/functionObjectList/functionObjectList.C at line 1035
    Reading "system/controlDict" at line 2 to 41
    Entry 'nCores' is not a dictionary
--> FOAM Warning : 
    From bool Foam::functionObjectList::read()
    in file db/functionObjects/functionObjectList/functionObjectList.C at line 1035
    Reading "system/controlDict" at line 2 to 41
    Entry 'interpScheme' is not a dictionary
--> FOAM Warning : 
    From bool Foam::functionObjectList::read()
    in file db/functionObjects/functionObjectList/functionObjectList.C at line 1035
    Reading "system/controlDict" at line 2 to 41
    Entry 'probeField' is not a dictionary
wallShearStress wallShearStress:
    processing wall patches: 
        Windsor_Body
        CFDWT_Floor
        Windsor_Pins
        Windsor_Base
        Windsor_Body_2
        CFDWT_Floor_2
        Windsor_Pins_2
        Windsor_Base_2
        Windsor_Body_3
        CFDWT_Floor_3
        Windsor_Pins_3
        Windsor_Base_3
        Windsor_Body_4
        CFDWT_Floor_4
        Windsor_Pins_4
        Windsor_Base_4
        Windsor_Body_5
        CFDWT_Floor_5
        Windsor_Pins_5
        Windsor_Base_5
        Windsor_Body_6
        CFDWT_Floor_6
        Windsor_Pins_6
        Windsor_Base_6
        Windsor_Body_7
        CFDWT_Floor_7
        Windsor_Pins_7
        Windsor_Base_7
        Windsor_Body_8
        CFDWT_Floor_8
        Windsor_Pins_8
        Windsor_Base_8

pressure calc_cp:
    Operating mode: staticCoeff
    Not including hydrostatic effects

forceCoeffs forceCoeffsAll:
    rho: rhoInf
    Freestream density (rhoInf) set to 1
    Not including porosity effects
    magUInf: 40
    lRef   : 0.6375
    Aref   : 0.1124
    rhoInf : 1
    Selecting all coefficients
    - Drag force: Cd
    - Drag force front: Cd(f)
    - Drag force rear: Cd(r)
    - Lift force: Cl
    - Lift force front: Cl(f)
    - Lift force rear: Cl(r)
    - Pitch moment: CmPitch
    - Roll moment: CmRoll
    - Yaw moment: CmYaw
    - Side force: Cs
    - Side force front: Cs(f)
    - Side force rear: Cs(r)


forceCoeffs dragCoeffBase:
    rho: rhoInf
    Freestream density (rhoInf) set to 1
    Not including porosity effects
    magUInf: 40
    lRef   : 0.6375
    Aref   : 0.1124
    rhoInf : 1
    Selecting coefficients:
    - Drag force: Cd


Time = 1

velocityDampingConstraint velocityDamping damped 0 (0%) of cells, with max limit 300
[INFO] MatrixAssemblyU: 4477.313 [ms]
smoothSolver:  Solving for Ux, Initial residual = 0.9999999999992707, Final residual = 0.08730578115069276, No Iterations 15
smoothSolver:  Solving for Uy, Initial residual = 1, Final residual = 0.08967552546614814, No Iterations 31
smoothSolver:  Solving for Uz, Initial residual = 1, Final residual = 0.03285817547784978, No Iterations 2
[INFO] MomentumPredictor: 4512.366 [ms]
[INFO] MatrixAssemblyPI: 711.15 [ms]
[INFO] MatrixAssemblyPII: 346.263 [ms]
DICPCG:  Solving for p, Initial residual = 1, Final residual = 0.009923382053073649, No Iterations 420
[INFO] SolveP: 43284.038 [ms]
time step continuity errors : sum local = 0.003640935012489186, global = 8.262980338839864e-05, cumulative = 8.262980338839864e-05
[INFO] postSolveP: 188.052 [ms]
smoothSolver:  Solving for nuTilda, Initial residual = 0.9999999962241544, Final residual = 0.06428822225267178, No Iterations 3
[INFO] TimeStep: 56250.402 [ms]
ExecutionTime = 118.71 s  ClockTime = 119 s

--> FOAM Warning : 
    From virtual bool Foam::functionObjects::fieldSelection::checkSelection()
    in file functionObjects/fieldSelections/fieldSelection/fieldSelection.C at line 166
    Field k not found
--> FOAM Warning : 
    From virtual bool Foam::functionObjects::fieldSelection::checkSelection()
    in file functionObjects/fieldSelections/fieldSelection/fieldSelection.C at line 166
    Field gammaInt not found
--> FOAM Warning : 
    From virtual bool Foam::functionObjects::fieldSelection::checkSelection()
    in file functionObjects/fieldSelections/fieldSelection/fieldSelection.C at line 166
    Field omega not found
--> FOAM Warning : 
    From virtual bool Foam::functionObjects::fieldSelection::checkSelection()
    in file functionObjects/fieldSelections/fieldSelection/fieldSelection.C at line 166
    Field ReThetat not found
--> FOAM Warning : 
    From virtual bool Foam::functionObjects::fieldSelection::checkSelection()
    in file functionObjects/fieldSelections/fieldSelection/fieldSelection.C at line 166
    Field epsilon not found
--> FOAM Warning : 
    From virtual bool Foam::functionObjects::solverFieldSelection::updateSelection()
    in file functionObjects/fieldSelections/solverFieldSelection/solverFieldSelection.C at line 85
    Valid solver fields are: 3(U nuTilda p)Time = 2

velocityDampingConstraint velocityDamping damped 0 (0%) of cells, with max limit 300
[INFO] MatrixAssemblyU: 4350.276 [ms]
smoothSolver:  Solving for Ux, Initial residual = 0.213082854325188, Final residual = 0.01839827049793161, No Iterations 13
smoothSolver:  Solving for Uy, Initial residual = 0.3543350788519272, Final residual = 0.03300152386992468, No Iterations 13
smoothSolver:  Solving for Uz, Initial residual = 0.3287654883460556, Final residual = 0.02812554905680267, No Iterations 13
[INFO] MomentumPredictor: 3781.818 [ms]
[INFO] MatrixAssemblyPI: 711.9930000000001 [ms]
[INFO] MatrixAssemblyPII: 346.562 [ms]
DICPCG:  Solving for p, Initial residual = 0.2097866320858616, Final residual = 0.002095399189587228, No Iterations 339
[INFO] SolveP: 35041.797 [ms]
time step continuity errors : sum local = 0.04294519565214322, global = 0.001752208915609566, cumulative = 0.001834838718997964
[INFO] postSolveP: 186.152 [ms]
smoothSolver:  Solving for nuTilda, Initial residual = 0.4060170231085282, Final residual = 0.02532715181937322, No Iterations 1
[INFO] TimeStep: 47037.253 [ms]
ExecutionTime = 169.07 s  ClockTime = 170 s

Time = 3

velocityDampingConstraint velocityDamping damped 6644 (0.01%) of cells, with max limit 300
[INFO] MatrixAssemblyU: 4452.705 [ms]
smoothSolver:  Solving for Ux, Initial residual = 0.1247593944624481, Final residual = 0.01177000107475495, No Iterations 9
smoothSolver:  Solving for Uy, Initial residual = 0.205466096332449, Final residual = 0.01964242428172277, No Iterations 10
smoothSolver:  Solving for Uz, Initial residual = 0.2190715869957517, Final residual = 0.02141330460026763, No Iterations 9
[INFO] MomentumPredictor: 2893.793 [ms]
[INFO] MatrixAssemblyPI: 712.928 [ms]
[INFO] MatrixAssemblyPII: 346.378 [ms]
DICPCG:  Solving for p, Initial residual = 0.1187912087825052, Final residual = 0.001175050443610752, No Iterations 187
[INFO] SolveP: 19374.582 [ms]
time step continuity errors : sum local = 0.01312044969866337, global = -0.000956720430061141, cumulative = 0.0008781182889368234
[INFO] postSolveP: 186.312 [ms]
smoothSolver:  Solving for nuTilda, Initial residual = 0.2090960534912886, Final residual = 0.01313018943102427, No Iterations 2
[INFO] TimeStep: 30659.896 [ms]
ExecutionTime = 203.19 s  ClockTime = 204 s

Time = 4

velocityDampingConstraint velocityDamping damped 0 (0%) of cells, with max limit 300
[INFO] MatrixAssemblyU: 4461.022 [ms]
smoothSolver:  Solving for Ux, Initial residual = 0.05384393901704958, Final residual = 0.004959169805266129, No Iterations 11
smoothSolver:  Solving for Uy, Initial residual = 0.1227446336946845, Final residual = 0.01101972823708621, No Iterations 11
smoothSolver:  Solving for Uz, Initial residual = 0.1338373546722024, Final residual = 0.01309431096589076, No Iterations 10
[INFO] MomentumPredictor: 3225.77 [ms]
[INFO] MatrixAssemblyPI: 712.7859999999999 [ms]
[INFO] MatrixAssemblyPII: 347.145 [ms]
DICPCG:  Solving for p, Initial residual = 0.135101300659503, Final residual = 0.001344735825081638, No Iterations 108
[INFO] SolveP: 11214.146 [ms]
time step continuity errors : sum local = 0.01337909016690337, global = -0.002056070714756479, cumulative = -0.001177952425819656
[INFO] postSolveP: 185.946 [ms]
smoothSolver:  Solving for nuTilda, Initial residual = 0.1246955791063986, Final residual = 0.01050194698986905, No Iterations 2
[INFO] TimeStep: 22823.517 [ms]
ExecutionTime = 229.51 s  ClockTime = 231 s

Time = 5

velocityDampingConstraint velocityDamping damped 899 (0%) of cells, with max limit 300
[INFO] MatrixAssemblyU: 4468.541 [ms]
smoothSolver:  Solving for Ux, Initial residual = 0.04370952190282224, Final residual = 0.004194812692288188, No Iterations 10
smoothSolver:  Solving for Uy, Initial residual = 0.09771462495738152, Final residual = 0.009310076829475098, No Iterations 11
smoothSolver:  Solving for Uz, Initial residual = 0.1135866295233075, Final residual = 0.009566625071445442, No Iterations 11
[INFO] MomentumPredictor: 3208.39 [ms]
[INFO] MatrixAssemblyPI: 712.6420000000001 [ms]
[INFO] MatrixAssemblyPII: 346.811 [ms]
DICPCG:  Solving for p, Initial residual = 0.09736279034911458, Final residual = 0.0009532020953444845, No Iterations 230
[INFO] SolveP: 23756.3 [ms]
time step continuity errors : sum local = 0.007526691721573765, global = -0.0002289762183552497, cumulative = -0.001406928644174906
[INFO] postSolveP: 186.345 [ms]
smoothSolver:  Solving for nuTilda, Initial residual = 0.07087632200833613, Final residual = 0.0043087262961927, No Iterations 3
[INFO] TimeStep: 35421.576 [ms]
ExecutionTime = 268.36 s  ClockTime = 270 s

Time = 6

velocityDampingConstraint velocityDamping damped 0 (0%) of cells, with max limit 300
[INFO] MatrixAssemblyU: 4444.752 [ms]
smoothSolver:  Solving for Ux, Initial residual = 0.02995203025210201, Final residual = 0.002655580113686602, No Iterations 12
smoothSolver:  Solving for Uy, Initial residual = 0.0745676426781632, Final residual = 0.006865830784245027, No Iterations 12
smoothSolver:  Solving for Uz, Initial residual = 0.08079527568638503, Final residual = 0.006860784367410314, No Iterations 12
[INFO] MomentumPredictor: 3548.044 [ms]
[INFO] MatrixAssemblyPI: 711.7859999999999 [ms]
[INFO] MatrixAssemblyPII: 346.955 [ms]
DICPCG:  Solving for p, Initial residual = 0.09762355661062751, Final residual = 0.0009652205852719834, No Iterations 137
[INFO] SolveP: 14200.035 [ms]
time step continuity errors : sum local = 0.00702311167321579, global = 0.0006177058997534737, cumulative = -0.000789222744421432
[INFO] postSolveP: 186.05 [ms]
smoothSolver:  Solving for nuTilda, Initial residual = 0.06429665063759653, Final residual = 0.003002348639528632, No Iterations 3
[INFO] TimeStep: 26167.787 [ms]
ExecutionTime = 297.97 s  ClockTime = 299 s

Time = 7

velocityDampingConstraint velocityDamping damped 118 (0%) of cells, with max limit 300
[INFO] MatrixAssemblyU: 4399.296 [ms]
smoothSolver:  Solving for Ux, Initial residual = 0.02724165234099897, Final residual = 0.002430159372876212, No Iterations 12
smoothSolver:  Solving for Uy, Initial residual = 0.0674699959778471, Final residual = 0.006376378560871251, No Iterations 12
smoothSolver:  Solving for Uz, Initial residual = 0.07098404091395846, Final residual = 0.006186137030903807, No Iterations 12
[INFO] MomentumPredictor: 3527.515 [ms]
[INFO] MatrixAssemblyPI: 712.949 [ms]
[INFO] MatrixAssemblyPII: 346.012 [ms]
DICPCG:  Solving for p, Initial residual = 0.08321381678190927, Final residual = 0.0008292076131559286, No Iterations 122
[INFO] SolveP: 12666.281 [ms]
time step continuity errors : sum local = 0.006049127299298207, global = 0.0008183374226433931, cumulative = 2.911467822196113e-05
[INFO] postSolveP: 184.963 [ms]
smoothSolver:  Solving for nuTilda, Initial residual = 0.0490994803365979, Final residual = 0.003229529000785463, No Iterations 3
[INFO] TimeStep: 24567.643 [ms]
ExecutionTime = 325.95 s  ClockTime = 327 s

Time = 8

velocityDampingConstraint velocityDamping damped 0 (0%) of cells, with max limit 300
[INFO] MatrixAssemblyU: 4350.881 [ms]
smoothSolver:  Solving for Ux, Initial residual = 0.02311110419961827, Final residual = 0.002138194227157401, No Iterations 12
smoothSolver:  Solving for Uy, Initial residual = 0.05986404560465516, Final residual = 0.005872726951393195, No Iterations 12
smoothSolver:  Solving for Uz, Initial residual = 0.06175224052254018, Final residual = 0.005575514226665529, No Iterations 12
[INFO] MomentumPredictor: 3543.106 [ms]
[INFO] MatrixAssemblyPI: 712.552 [ms]
[INFO] MatrixAssemblyPII: 346.92 [ms]
DICPCG:  Solving for p, Initial residual = 0.07509697583501053, Final residual = 0.0007424497659207275, No Iterations 117
[INFO] SolveP: 12160.866 [ms]
time step continuity errors : sum local = 0.005524129430717999, global = 0.0009619509034963337, cumulative = 0.0009910655817182948
[INFO] postSolveP: 185.406 [ms]
smoothSolver:  Solving for nuTilda, Initial residual = 0.06542149459939751, Final residual = 0.005859496642486845, No Iterations 2
[INFO] TimeStep: 23944.307 [ms]
ExecutionTime = 353.28 s  ClockTime = 355 s

Time = 9

velocityDampingConstraint velocityDamping damped 0 (0%) of cells, with max limit 300
[INFO] MatrixAssemblyU: 4338.582 [ms]
smoothSolver:  Solving for Ux, Initial residual = 0.02035280760754119, Final residual = 0.001899886629492932, No Iterations 12
smoothSolver:  Solving for Uy, Initial residual = 0.05411666781375078, Final residual = 0.005393017079456703, No Iterations 12
smoothSolver:  Solving for Uz, Initial residual = 0.05502169262861817, Final residual = 0.005110127546084343, No Iterations 12
[INFO] MomentumPredictor: 3543.585 [ms]
[INFO] MatrixAssemblyPI: 711.73 [ms]
[INFO] MatrixAssemblyPII: 346.74 [ms]
DICPCG:  Solving for p, Initial residual = 0.06841223842356105, Final residual = 0.0006812021886813253, No Iterations 117
[INFO] SolveP: 12155.625 [ms]
time step continuity errors : sum local = 0.00514820104305537, global = 0.001146656669605334, cumulative = 0.002137722251323629
[INFO] postSolveP: 186.559 [ms]
smoothSolver:  Solving for nuTilda, Initial residual = 0.04412800449112436, Final residual = 0.003201016757450238, No Iterations 3
[INFO] TimeStep: 24006.51 [ms]
ExecutionTime = 380.67 s  ClockTime = 382 s

Time = 10

velocityDampingConstraint velocityDamping damped 0 (0%) of cells, with max limit 300
[INFO] MatrixAssemblyU: 4334.259 [ms]
smoothSolver:  Solving for Ux, Initial residual = 0.01833976592729307, Final residual = 0.001725448413870239, No Iterations 12
smoothSolver:  Solving for Uy, Initial residual = 0.0499821712934078, Final residual = 0.004974254866846539, No Iterations 12
smoothSolver:  Solving for Uz, Initial residual = 0.05043910419511975, Final residual = 0.004749551109026466, No Iterations 12
[INFO] MomentumPredictor: 3550.284 [ms]
[INFO] MatrixAssemblyPI: 712.744 [ms]
[INFO] MatrixAssemblyPII: 346.94 [ms]
DICPCG:  Solving for p, Initial residual = 0.06205803394211011, Final residual = 0.0006156813696751215, No Iterations 227
[INFO] SolveP: 23439.506 [ms]
time step continuity errors : sum local = 0.004645280240970793, global = 0.0001224875859192538, cumulative = 0.002260209837242883
[INFO] postSolveP: 185.632 [ms]
smoothSolver:  Solving for nuTilda, Initial residual = 0.06973530691468637, Final residual = 0.005487460502428818, No Iterations 2
[INFO] TimeStep: 35212.292 [ms]
ExecutionTime = 419.23 s  ClockTime = 421 s

Time = 11

velocityDampingConstraint velocityDamping damped 0 (0%) of cells, with max limit 300
[INFO] MatrixAssemblyU: 4326.684 [ms]
smoothSolver:  Solving for Ux, Initial residual = 0.01672993228597084, Final residual = 0.001600632429220857, No Iterations 12
smoothSolver:  Solving for Uy, Initial residual = 0.04751525378548821, Final residual = 0.004700149594571371, No Iterations 12
smoothSolver:  Solving for Uz, Initial residual = 0.04753448105913072, Final residual = 0.004515768290248236, No Iterations 12
[INFO] MomentumPredictor: 3532.12 [ms]
[INFO] MatrixAssemblyPI: 710.4349999999999 [ms]
[INFO] MatrixAssemblyPII: 347.584 [ms]
DICPCG:  Solving for p, Initial residual = 0.05451433536251076, Final residual = 0.0005446209653267392, No Iterations 106
[INFO] SolveP: 11034.337 [ms]
time step continuity errors : sum local = 0.004358327969165111, global = -0.0005037156136947238, cumulative = 0.001756494223548159
[INFO] postSolveP: 186.34 [ms]
smoothSolver:  Solving for nuTilda, Initial residual = 0.03912616449671671, Final residual = 0.003025873977216475, No Iterations 3
[INFO] TimeStep: 22852.842 [ms]
ExecutionTime = 445.45 s  ClockTime = 447 s

Time = 12

velocityDampingConstraint velocityDamping damped 0 (0%) of cells, with max limit 300
[INFO] MatrixAssemblyU: 4327.234 [ms]
smoothSolver:  Solving for Ux, Initial residual = 0.01551218463372832, Final residual = 0.0015130236532198, No Iterations 12
smoothSolver:  Solving for Uy, Initial residual = 0.04523375324385283, Final residual = 0.004434299445306716, No Iterations 12
smoothSolver:  Solving for Uz, Initial residual = 0.044747673023031, Final residual = 0.004268268990231909, No Iterations 12
[INFO] MomentumPredictor: 3545.883 [ms]
[INFO] MatrixAssemblyPI: 711.872 [ms]
[INFO] MatrixAssemblyPII: 346.709 [ms]
DICPCG:  Solving for p, Initial residual = 0.05164548096146021, Final residual = 0.0005141105966194484, No Iterations 112
[INFO] SolveP: 11650.965 [ms]
time step continuity errors : sum local = 0.004063120961824753, global = -0.000686600862799286, cumulative = 0.001069893360748873
[INFO] postSolveP: 186.227 [ms]
smoothSolver:  Solving for nuTilda, Initial residual = 0.0655231075954547, Final residual = 0.005099845224957818, No Iterations 2
[INFO] TimeStep: 23404.97 [ms]
ExecutionTime = 472.23 s  ClockTime = 474 s

Time = 13

velocityDampingConstraint velocityDamping damped 0 (0%) of cells, with max limit 300
[INFO] MatrixAssemblyU: 4322.773 [ms]
smoothSolver:  Solving for Ux, Initial residual = 0.01449268566515076, Final residual = 0.001440914472910331, No Iterations 12
smoothSolver:  Solving for Uy, Initial residual = 0.04331103483237875, Final residual = 0.004233722054805098, No Iterations 12
smoothSolver:  Solving for Uz, Initial residual = 0.04292919003834064, Final residual = 0.004120600959582046, No Iterations 12
[INFO] MomentumPredictor: 3542.288 [ms]
[INFO] MatrixAssemblyPI: 711.961 [ms]
[INFO] MatrixAssemblyPII: 347.153 [ms]
DICPCG:  Solving for p, Initial residual = 0.04909363366512572, Final residual = 0.0004854405931332023, No Iterations 114
[INFO] SolveP: 11862.033 [ms]
time step continuity errors : sum local = 0.003813832170810308, global = -0.0007465971722095891, cumulative = 0.0003232961885392836
[INFO] postSolveP: 185.409 [ms]
smoothSolver:  Solving for nuTilda, Initial residual = 0.03470100956709474, Final residual = 0.002828299545655963, No Iterations 3
[INFO] TimeStep: 23687.123 [ms]
ExecutionTime = 499.27 s  ClockTime = 501 s

Time = 14

velocityDampingConstraint velocityDamping damped 0 (0%) of cells, with max limit 300
[INFO] MatrixAssemblyU: 4315.28 [ms]
smoothSolver:  Solving for Ux, Initial residual = 0.01367669288307685, Final residual = 0.001171375721968614, No Iterations 13
smoothSolver:  Solving for Uy, Initial residual = 0.04150976372829158, Final residual = 0.004072016254948599, No Iterations 12
smoothSolver:  Solving for Uz, Initial residual = 0.04196032847583607, Final residual = 0.004046945634852419, No Iterations 12
[INFO] MomentumPredictor: 3625.273 [ms]
[INFO] MatrixAssemblyPI: 712.1900000000001 [ms]
[INFO] MatrixAssemblyPII: 347.006 [ms]
DICPCG:  Solving for p, Initial residual = 0.04695996482256193, Final residual = 0.0004669560779915695, No Iterations 105
[INFO] SolveP: 10915.965 [ms]
time step continuity errors : sum local = 0.00365865044623557, global = -0.0007457265261160194, cumulative = -0.0004224303375767358
[INFO] postSolveP: 186.549 [ms]
smoothSolver:  Solving for nuTilda, Initial residual = 0.05813732903278489, Final residual = 0.004799621061322226, No Iterations 2
[INFO] TimeStep: 22736.506 [ms]
ExecutionTime = 525.38 s  ClockTime = 528 s

Time = 15

velocityDampingConstraint velocityDamping damped 0 (0%) of cells, with max limit 300
[INFO] MatrixAssemblyU: 4314.898 [ms]
smoothSolver:  Solving for Ux, Initial residual = 0.01282415941796232, Final residual = 0.001109190934987639, No Iterations 13
smoothSolver:  Solving for Uy, Initial residual = 0.040122456203854, Final residual = 0.003964772270422356, No Iterations 12
smoothSolver:  Solving for Uz, Initial residual = 0.04166736724861792, Final residual = 0.004048676924017878, No Iterations 12
[INFO] MomentumPredictor: 3612.42 [ms]
[INFO] MatrixAssemblyPI: 711.413 [ms]
[INFO] MatrixAssemblyPII: 347.282 [ms]
DICPCG:  Solving for p, Initial residual = 0.04559534051731692, Final residual = 0.0004485005305078808, No Iterations 105
[INFO] SolveP: 10931.378 [ms]
time step continuity errors : sum local = 0.00351270416369413, global = -0.0006724414437713886, cumulative = -0.001094871781348125
[INFO] postSolveP: 185.748 [ms]
smoothSolver:  Solving for nuTilda, Initial residual = 0.03134414096143118, Final residual = 0.002661352436448386, No Iterations 3
[INFO] TimeStep: 22814.448 [ms]
ExecutionTime = 551.55 s  ClockTime = 554 s

Time = 16

velocityDampingConstraint velocityDamping damped 0 (0%) of cells, with max limit 300
[INFO] MatrixAssemblyU: 4312.817 [ms]
smoothSolver:  Solving for Ux, Initial residual = 0.01220111986581495, Final residual = 0.001054596473169618, No Iterations 13
smoothSolver:  Solving for Uy, Initial residual = 0.03922973759617722, Final residual = 0.003896662290221471, No Iterations 12
smoothSolver:  Solving for Uz, Initial residual = 0.04157297923998312, Final residual = 0.00404995398123978, No Iterations 12
[INFO] MomentumPredictor: 3631.193 [ms]
[INFO] MatrixAssemblyPI: 711.489 [ms]
[INFO] MatrixAssemblyPII: 346.936 [ms]
DICPCG:  Solving for p, Initial residual = 0.04445623680987489, Final residual = 0.0004413437206746176, No Iterations 100
[INFO] SolveP: 10392.939 [ms]
time step continuity errors : sum local = 0.003456316991074976, global = -0.0005108599638600744, cumulative = -0.001605731745208199
[INFO] postSolveP: 186.428 [ms]
smoothSolver:  Solving for nuTilda, Initial residual = 0.05169395014425474, Final residual = 0.004551559473912574, No Iterations 2
[INFO] TimeStep: 22212.873 [ms]
ExecutionTime = 577.13 s  ClockTime = 580 s

Time = 17

velocityDampingConstraint velocityDamping damped 0 (0%) of cells, with max limit 300
[INFO] MatrixAssemblyU: 4302.26 [ms]
smoothSolver:  Solving for Ux, Initial residual = 0.01158845820944076, Final residual = 0.001006847374996866, No Iterations 13
smoothSolver:  Solving for Uy, Initial residual = 0.03871071019338235, Final residual = 0.003869128876266489, No Iterations 12
smoothSolver:  Solving for Uz, Initial residual = 0.04153691043574287, Final residual = 0.004055612491360919, No Iterations 12
[INFO] MomentumPredictor: 3623.556 [ms]
[INFO] MatrixAssemblyPI: 711.455 [ms]
[INFO] MatrixAssemblyPII: 346.953 [ms]
DICPCG:  Solving for p, Initial residual = 0.04411968882568447, Final residual = 0.000441185855406342, No Iterations 98
[INFO] SolveP: 10204.572 [ms]
time step continuity errors : sum local = 0.00346542334744479, global = -0.0002905157121284266, cumulative = -0.001896247457336626
[INFO] postSolveP: 185.756 [ms]
smoothSolver:  Solving for nuTilda, Initial residual = 0.02888747947281626, Final residual = 0.002512816980291785, No Iterations 3
[INFO] TimeStep: 22082.24 [ms]
ExecutionTime = 602.5599999999999 s  ClockTime = 605 s

Time = 18

velocityDampingConstraint velocityDamping damped 0 (0%) of cells, with max limit 300
[INFO] MatrixAssemblyU: 4299.528 [ms]
smoothSolver:  Solving for Ux, Initial residual = 0.01124626212416975, Final residual = 0.0009672343847541528, No Iterations 13
smoothSolver:  Solving for Uy, Initial residual = 0.03859272397525341, Final residual = 0.003301153926339276, No Iterations 13
smoothSolver:  Solving for Uz, Initial residual = 0.04176127464957354, Final residual = 0.004060649326977638, No Iterations 12
[INFO] MomentumPredictor: 3707.082 [ms]
[INFO] MatrixAssemblyPI: 712.35 [ms]
[INFO] MatrixAssemblyPII: 346.338 [ms]
DICPCG:  Solving for p, Initial residual = 0.04412259984440214, Final residual = 0.0004348492725963571, No Iterations 106
[INFO] SolveP: 11021.886 [ms]
time step continuity errors : sum local = 0.003430435977731807, global = -2.650786718457518e-05, cumulative = -0.001922755324521201
[INFO] postSolveP: 185.75 [ms]
smoothSolver:  Solving for nuTilda, Initial residual = 0.04637133054256058, Final residual = 0.004301529732255008, No Iterations 2
[INFO] TimeStep: 22901.341 [ms]
ExecutionTime = 628.8099999999999 s  ClockTime = 631 s

Time = 19

velocityDampingConstraint velocityDamping damped 0 (0%) of cells, with max limit 300
[INFO] MatrixAssemblyU: 4297.439 [ms]
smoothSolver:  Solving for Ux, Initial residual = 0.01090378716302358, Final residual = 0.0009373000188055991, No Iterations 13
smoothSolver:  Solving for Uy, Initial residual = 0.03885526833565617, Final residual = 0.003319532964597893, No Iterations 13
smoothSolver:  Solving for Uz, Initial residual = 0.042534758239448, Final residual = 0.004106871062394935, No Iterations 12
[INFO] MomentumPredictor: 3707.132 [ms]
[INFO] MatrixAssemblyPI: 710.865 [ms]
[INFO] MatrixAssemblyPII: 347.831 [ms]
DICPCG:  Solving for p, Initial residual = 0.04439061003576292, Final residual = 0.0004411230171594064, No Iterations 113
[INFO] SolveP: 11758.588 [ms]
time step continuity errors : sum local = 0.003498979096919438, global = 0.0002612084763507017, cumulative = -0.001661546848170499
[INFO] postSolveP: 186.063 [ms]
smoothSolver:  Solving for nuTilda, Initial residual = 0.02696093615703766, Final residual = 0.002363907558599109, No Iterations 3
[INFO] TimeStep: 23712.447 [ms]
ExecutionTime = 655.86 s  ClockTime = 659 s

Time = 20

velocityDampingConstraint velocityDamping damped 0 (0%) of cells, with max limit 300
[INFO] MatrixAssemblyU: 4292.242 [ms]
smoothSolver:  Solving for Ux, Initial residual = 0.01072862509227851, Final residual = 0.0009178408918882339, No Iterations 13
smoothSolver:  Solving for Uy, Initial residual = 0.03923957676208549, Final residual = 0.003917683666074952, No Iterations 12
smoothSolver:  Solving for Uz, Initial residual = 0.04314639626263887, Final residual = 0.004138819967718288, No Iterations 12
[INFO] MomentumPredictor: 3630.595 [ms]
[INFO] MatrixAssemblyPI: 712.184 [ms]
[INFO] MatrixAssemblyPII: 346.26 [ms]
DICPCG:  Solving for p, Initial residual = 0.04429782138874522, Final residual = 0.0004365121154314522, No Iterations 120
[INFO] SolveP: 12456.762 [ms]
time step continuity errors : sum local = 0.003495743026316132, global = 0.0005255927181949729, cumulative = -0.001135954129975526
[INFO] postSolveP: 185.199 [ms]
smoothSolver:  Solving for nuTilda, Initial residual = 0.0418378394452858, Final residual = 0.004047726976329671, No Iterations 2
[INFO] TimeStep: 24249.839 [ms]
ExecutionTime = 683.46 s  ClockTime = 686 s

Time = 21

velocityDampingConstraint velocityDamping damped 0 (0%) of cells, with max limit 300
[INFO] MatrixAssemblyU: 4291.747 [ms]
smoothSolver:  Solving for Ux, Initial residual = 0.01052599033543403, Final residual = 0.000903631535909815, No Iterations 13
smoothSolver:  Solving for Uy, Initial residual = 0.03985990759028107, Final residual = 0.003963356498978762, No Iterations 12
smoothSolver:  Solving for Uz, Initial residual = 0.0434770128302755, Final residual = 0.004135477687832342, No Iterations 12
[INFO] MomentumPredictor: 3623.346 [ms]
[INFO] MatrixAssemblyPI: 712.822 [ms]
[INFO] MatrixAssemblyPII: 346.842 [ms]
DICPCG:  Solving for p, Initial residual = 0.04431189679031056, Final residual = 0.0004350938893074015, No Iterations 129
[INFO] SolveP: 13398.638 [ms]
time step continuity errors : sum local = 0.003530360683138889, global = 0.0007316012241178314, cumulative = -0.0004043529058576948
[INFO] postSolveP: 186.082 [ms]
smoothSolver:  Solving for nuTilda, Initial residual = 0.02516864511987529, Final residual = 0.00221871823177367, No Iterations 3
[INFO] TimeStep: 25265.986 [ms]
ExecutionTime = 712.0599999999999 s  ClockTime = 715 s

Time = 22

velocityDampingConstraint velocityDamping damped 0 (0%) of cells, with max limit 300
[INFO] MatrixAssemblyU: 4293.663 [ms]
smoothSolver:  Solving for Ux, Initial residual = 0.01048885282035034, Final residual = 0.001046968355308974, No Iterations 12
smoothSolver:  Solving for Uy, Initial residual = 0.04049744509003837, Final residual = 0.003985717905320052, No Iterations 12
smoothSolver:  Solving for Uz, Initial residual = 0.04339333258315281, Final residual = 0.004094834258828877, No Iterations 12
[INFO] MomentumPredictor: 3546.583 [ms]
[INFO] MatrixAssemblyPI: 712.686 [ms]
[INFO] MatrixAssemblyPII: 347.206 [ms]
DICPCG:  Solving for p, Initial residual = 0.04402302391632292, Final residual = 0.0004372723464852381, No Iterations 234
[INFO] SolveP: 24142.807 [ms]
time step continuity errors : sum local = 0.003602123646053955, global = 2.622376419753366e-05, cumulative = -0.0003781291416601611
[INFO] postSolveP: 186.44 [ms]
smoothSolver:  Solving for nuTilda, Initial residual = 0.03797149657189951, Final residual = 0.002018223736550227, No Iterations 3
[INFO] TimeStep: 35934.817 [ms]
ExecutionTime = 751.28 s  ClockTime = 754 s

Time = 23

velocityDampingConstraint velocityDamping damped 0 (0%) of cells, with max limit 300
[INFO] MatrixAssemblyU: 4293.522 [ms]
smoothSolver:  Solving for Ux, Initial residual = 0.01040775207706092, Final residual = 0.001038711278151783, No Iterations 12
smoothSolver:  Solving for Uy, Initial residual = 0.04129351902881976, Final residual = 0.00399015664690461, No Iterations 12
smoothSolver:  Solving for Uz, Initial residual = 0.04314405047553947, Final residual = 0.004015333640381824, No Iterations 12
[INFO] MomentumPredictor: 3548.47 [ms]
[INFO] MatrixAssemblyPI: 711.6849999999999 [ms]
[INFO] MatrixAssemblyPII: 347.289 [ms]
DICPCG:  Solving for p, Initial residual = 0.04248410298282532, Final residual = 0.0004239491057524363, No Iterations 113
[INFO] SolveP: 11764.885 [ms]
time step continuity errors : sum local = 0.003655064779765172, global = -7.631962376219429e-05, cumulative = -0.0004544487654223554
[INFO] postSolveP: 186.502 [ms]
smoothSolver:  Solving for nuTilda, Initial residual = 0.02334643107008699, Final residual = 0.002087469530518938, No Iterations 3
[INFO] TimeStep: 23558.154 [ms]
ExecutionTime = 778.1900000000001 s  ClockTime = 781 s

Time = 24

velocityDampingConstraint velocityDamping damped 0 (0%) of cells, with max limit 300
[INFO] MatrixAssemblyU: 4295.296 [ms]
smoothSolver:  Solving for Ux, Initial residual = 0.01039185907171715, Final residual = 0.001034108548341773, No Iterations 12
smoothSolver:  Solving for Uy, Initial residual = 0.0417816533957152, Final residual = 0.004020928660167717, No Iterations 12
smoothSolver:  Solving for Uz, Initial residual = 0.04250727090172296, Final residual = 0.003928937764787587, No Iterations 12
[INFO] MomentumPredictor: 3554.158 [ms]
[INFO] MatrixAssemblyPI: 712.058 [ms]
[INFO] MatrixAssemblyPII: 346.757 [ms]
DICPCG:  Solving for p, Initial residual = 0.0425875910759557, Final residual = 0.0004241035468308702, No Iterations 116
[INFO] SolveP: 12105.502 [ms]
time step continuity errors : sum local = 0.00366782922901935, global = -1.419309262096683e-05, cumulative = -0.0004686418580433223
[INFO] postSolveP: 185.964 [ms]
smoothSolver:  Solving for nuTilda, Initial residual = 0.03446785341124938, Final residual = 0.001909052724572431, No Iterations 3
[INFO] TimeStep: 23905.401 [ms]
ExecutionTime = 805.4299999999999 s  ClockTime = 809 s

Time = 25

velocityDampingConstraint velocityDamping damped 0 (0%) of cells, with max limit 300
[INFO] MatrixAssemblyU: 4287.753 [ms]
smoothSolver:  Solving for Ux, Initial residual = 0.0103317645613613, Final residual = 0.0008846967299401708, No Iterations 13
smoothSolver:  Solving for Uy, Initial residual = 0.04259211349869724, Final residual = 0.004114610793205951, No Iterations 12
smoothSolver:  Solving for Uz, Initial residual = 0.04223738765842288, Final residual = 0.003897544698060528, No Iterations 12
[INFO] MomentumPredictor: 3624.703 [ms]
[INFO] MatrixAssemblyPI: 713.282 [ms]
[INFO] MatrixAssemblyPII: 346.72 [ms]
DICPCG:  Solving for p, Initial residual = 0.04219898644456355, Final residual = 0.0004141176400913932, No Iterations 121
[INFO] SolveP: 12571.373 [ms]
time step continuity errors : sum local = 0.00361952146185729, global = 2.601940625413158e-05, cumulative = -0.0004426224517891907
[INFO] postSolveP: 185.903 [ms]
smoothSolver:  Solving for nuTilda, Initial residual = 0.02150413698772339, Final residual = 0.001956156785728701, No Iterations 3
[INFO] TimeStep: 24436.154 [ms]
ExecutionTime = 833.2 s  ClockTime = 837 s

Time = 26

velocityDampingConstraint velocityDamping damped 0 (0%) of cells, with max limit 300
[INFO] MatrixAssemblyU: 4289.41 [ms]
smoothSolver:  Solving for Ux, Initial residual = 0.01040309212337237, Final residual = 0.001037513428980259, No Iterations 12
smoothSolver:  Solving for Uy, Initial residual = 0.04357440304787462, Final residual = 0.004270905691677694, No Iterations 12
smoothSolver:  Solving for Uz, Initial residual = 0.04230404105953215, Final residual = 0.003945222548904117, No Iterations 12
[INFO] MomentumPredictor: 3553.072 [ms]
[INFO] MatrixAssemblyPI: 712.199 [ms]
[INFO] MatrixAssemblyPII: 346.483 [ms]
DICPCG:  Solving for p, Initial residual = 0.04187994843935715, Final residual = 0.0004163273086636818, No Iterations 115
[INFO] SolveP: 11929.416 [ms]
time step continuity errors : sum local = 0.003680530014616901, global = 0.000101137491731309, cumulative = -0.0003414849600578817
[INFO] postSolveP: 185.835 [ms]
smoothSolver:  Solving for nuTilda, Initial residual = 0.0314938075112936, Final residual = 0.001803487567171013, No Iterations 3
[INFO] TimeStep: 23719.249 [ms]
ExecutionTime = 860.26 s  ClockTime = 864 s

Time = 27

velocityDampingConstraint velocityDamping damped 0 (0%) of cells, with max limit 300
[INFO] MatrixAssemblyU: 4285.679 [ms]
smoothSolver:  Solving for Ux, Initial residual = 0.0104154366259617, Final residual = 0.001039377165090216, No Iterations 12
smoothSolver:  Solving for Uy, Initial residual = 0.04462353762965964, Final residual = 0.004440549743303113, No Iterations 12
smoothSolver:  Solving for Uz, Initial residual = 0.04262546852702961, Final residual = 0.004027084134339506, No Iterations 12
[INFO] MomentumPredictor: 3544.836 [ms]
[INFO] MatrixAssemblyPI: 712.047 [ms]
[INFO] MatrixAssemblyPII: 347.41 [ms]
DICPCG:  Solving for p, Initial residual = 0.04224632288180118, Final residual = 0.0004188974368758209, No Iterations 114
[INFO] SolveP: 11888.593 [ms]
time step continuity errors : sum local = 0.003741338014092314, global = 0.0002584785675885606, cumulative = -8.300639246932109e-05
[INFO] postSolveP: 186.718 [ms]
smoothSolver:  Solving for nuTilda, Initial residual = 0.0198209962926651, Final residual = 0.001831088062033469, No Iterations 3
[INFO] TimeStep: 23667.828 [ms]
ExecutionTime = 887.27 s  ClockTime = 891 s

Time = 28

velocityDampingConstraint velocityDamping damped 0 (0%) of cells, with max limit 300
[INFO] MatrixAssemblyU: 4287.128 [ms]
smoothSolver:  Solving for Ux, Initial residual = 0.01056283987788677, Final residual = 0.001042831915145269, No Iterations 12
smoothSolver:  Solving for Uy, Initial residual = 0.04599410684098582, Final residual = 0.003942266892796192, No Iterations 13
smoothSolver:  Solving for Uz, Initial residual = 0.04363191165637926, Final residual = 0.00414011978962066, No Iterations 12
[INFO] MomentumPredictor: 3634.783 [ms]
[INFO] MatrixAssemblyPI: 711.85 [ms]
[INFO] MatrixAssemblyPII: 347.079 [ms]
DICPCG:  Solving for p, Initial residual = 0.04321430399181662, Final residual = 0.0004206356162510049, No Iterations 107
[INFO] SolveP: 11142.789 [ms]
time step continuity errors : sum local = 0.003802090854742144, global = 0.0004445087089247325, cumulative = 0.0003615023164554114
[INFO] postSolveP: 185.448 [ms]
smoothSolver:  Solving for nuTilda, Initial residual = 0.02896444730130965, Final residual = 0.001696790883549076, No Iterations 3
[INFO] TimeStep: 23010.963 [ms]
ExecutionTime = 913.61 s  ClockTime = 917 s

Time = 29

velocityDampingConstraint velocityDamping damped 0 (0%) of cells, with max limit 300
[INFO] MatrixAssemblyU: 4283.279 [ms]
smoothSolver:  Solving for Ux, Initial residual = 0.01060264281408823, Final residual = 0.001044364118894679, No Iterations 12
smoothSolver:  Solving for Uy, Initial residual = 0.04755843660511316, Final residual = 0.004078714389570085, No Iterations 13
smoothSolver:  Solving for Uz, Initial residual = 0.04506455151972783, Final residual = 0.004282267275108381, No Iterations 12
[INFO] MomentumPredictor: 3612.942 [ms]
[INFO] MatrixAssemblyPI: 713.2619999999999 [ms]
[INFO] MatrixAssemblyPII: 346.919 [ms]
DICPCG:  Solving for p, Initial residual = 0.04418938000242441, Final residual = 0.0004368460870279509, No Iterations 106
[INFO] SolveP: 11015.636 [ms]
time step continuity errors : sum local = 0.003995440359329957, global = 0.0006371103095535276, cumulative = 0.000998612626008939
[INFO] postSolveP: 185.227 [ms]
smoothSolver:  Solving for nuTilda, Initial residual = 0.01834028141856051, Final residual = 0.001707836543043652, No Iterations 3
[INFO] TimeStep: 22859.358 [ms]
ExecutionTime = 939.8 s  ClockTime = 944 s

Time = 30

velocityDampingConstraint velocityDamping damped 0 (0%) of cells, with max limit 300
[INFO] MatrixAssemblyU: 4281.01 [ms]
smoothSolver:  Solving for Ux, Initial residual = 0.01080141064728525, Final residual = 0.001050016302207843, No Iterations 12
smoothSolver:  Solving for Uy, Initial residual = 0.049644635001825, Final residual = 0.004227953801251583, No Iterations 13
smoothSolver:  Solving for Uz, Initial residual = 0.04667852430454516, Final residual = 0.004418632234739391, No Iterations 12
[INFO] MomentumPredictor: 3627.063 [ms]
[INFO] MatrixAssemblyPI: 712.89 [ms]
[INFO] MatrixAssemblyPII: 347.039 [ms]
DICPCG:  Solving for p, Initial residual = 0.04508906367934954, Final residual = 0.0004448347910523795, No Iterations 99
[INFO] SolveP: 10286.909 [ms]
time step continuity errors : sum local = 0.004124182984377279, global = 0.0008133199506004064, cumulative = 0.001811932576609345
[INFO] postSolveP: 186.243 [ms]
smoothSolver:  Solving for nuTilda, Initial residual = 0.02677412154542689, Final residual = 0.001589740179292678, No Iterations 3
[INFO] TimeStep: 22137.612 [ms]
ExecutionTime = 965.28 s  ClockTime = 969 s

Time = 31

velocityDampingConstraint velocityDamping damped 0 (0%) of cells, with max limit 300
[INFO] MatrixAssemblyU: 4274.21 [ms]
smoothSolver:  Solving for Ux, Initial residual = 0.01086155018954029, Final residual = 0.001056053741497965, No Iterations 12
smoothSolver:  Solving for Uy, Initial residual = 0.05193419115873375, Final residual = 0.005170269860716268, No Iterations 12
smoothSolver:  Solving for Uz, Initial residual = 0.04834298524652918, Final residual = 0.004572743884232225, No Iterations 12
[INFO] MomentumPredictor: 3537.158 [ms]
[INFO] MatrixAssemblyPI: 711.573 [ms]
[INFO] MatrixAssemblyPII: 346.894 [ms]
DICPCG:  Solving for p, Initial residual = 0.04630673320953396, Final residual = 0.0004627659203151964, No Iterations 99
[INFO] SolveP: 10316.031 [ms]
time step continuity errors : sum local = 0.004345817260139702, global = 0.0009390782382232322, cumulative = 0.002751010814832578
[INFO] postSolveP: 186.002 [ms]
smoothSolver:  Solving for nuTilda, Initial residual = 0.01707745314119642, Final residual = 0.00158952444633085, No Iterations 3
[INFO] TimeStep: 22069.997 [ms]
ExecutionTime = 990.6799999999999 s  ClockTime = 995 s

Time = 32

velocityDampingConstraint velocityDamping damped 0 (0%) of cells, with max limit 300
[INFO] MatrixAssemblyU: 4268.97 [ms]
smoothSolver:  Solving for Ux, Initial residual = 0.0109776845541432, Final residual = 0.001062553634101538, No Iterations 12
smoothSolver:  Solving for Uy, Initial residual = 0.05433980154130699, Final residual = 0.00540847450533806, No Iterations 12
smoothSolver:  Solving for Uz, Initial residual = 0.04988283045317291, Final residual = 0.004772453957937369, No Iterations 12
[INFO] MomentumPredictor: 3545.915 [ms]
[INFO] MatrixAssemblyPI: 713.611 [ms]
[INFO] MatrixAssemblyPII: 346.831 [ms]
DICPCG:  Solving for p, Initial residual = 0.0478251316899907, Final residual = 0.0004642815053692174, No Iterations 101
[INFO] SolveP: 10507.948 [ms]
time step continuity errors : sum local = 0.004414682741194934, global = 0.0009753701315397855, cumulative = 0.003726380946372363
[INFO] postSolveP: 184.574 [ms]
smoothSolver:  Solving for nuTilda, Initial residual = 0.02486998040790769, Final residual = 0.001487746039972012, No Iterations 3
[INFO] TimeStep: 22265.938 [ms]
ExecutionTime = 1016.27 s  ClockTime = 1020 s

Time = 33

velocityDampingConstraint velocityDamping damped 0 (0%) of cells, with max limit 300
[INFO] MatrixAssemblyU: 4265.597 [ms]
smoothSolver:  Solving for Ux, Initial residual = 0.01092388885919823, Final residual = 0.00106823588019547, No Iterations 12
smoothSolver:  Solving for Uy, Initial residual = 0.05664982591207667, Final residual = 0.005631001273808845, No Iterations 12
smoothSolver:  Solving for Uz, Initial residual = 0.05201850878712245, Final residual = 0.005041402126313739, No Iterations 12
[INFO] MomentumPredictor: 3538.403 [ms]
[INFO] MatrixAssemblyPI: 712.747 [ms]
[INFO] MatrixAssemblyPII: 348.976 [ms]
DICPCG:  Solving for p, Initial residual = 0.0496678497184472, Final residual = 0.0004936859072662454, No Iterations 97
[INFO] SolveP: 10108.898 [ms]
time step continuity errors : sum local = 0.004750372677692966, global = 0.0009637535620987833, cumulative = 0.004690134508471147
[INFO] postSolveP: 186.096 [ms]
smoothSolver:  Solving for nuTilda, Initial residual = 0.01598778205427896, Final residual = 0.001480303647575724, No Iterations 3
[INFO] TimeStep: 21854.592 [ms]
ExecutionTime = 1041.44 s  ClockTime = 1046 s

Time = 34

velocityDampingConstraint velocityDamping damped 0 (0%) of cells, with max limit 300
[INFO] MatrixAssemblyU: 4261.945 [ms]
smoothSolver:  Solving for Ux, Initial residual = 0.0110330835418214, Final residual = 0.001077514575621355, No Iterations 12
smoothSolver:  Solving for Uy, Initial residual = 0.05913439612257115, Final residual = 0.005876881156375151, No Iterations 12
smoothSolver:  Solving for Uz, Initial residual = 0.05449803092499073, Final residual = 0.005330132935186775, No Iterations 12
[INFO] MomentumPredictor: 3546.471 [ms]
[INFO] MatrixAssemblyPI: 712.154 [ms]
[INFO] MatrixAssemblyPII: 346.436 [ms]
DICPCG:  Solving for p, Initial residual = 0.05181926993729286, Final residual = 0.0005098902385301896, No Iterations 95
[INFO] SolveP: 9888.891 [ms]
time step continuity errors : sum local = 0.004961004982487859, global = 0.0008871532699754615, cumulative = 0.005577287778446608
[INFO] postSolveP: 185.742 [ms]
smoothSolver:  Solving for nuTilda, Initial residual = 0.02322860566171436, Final residual = 0.001393749804320619, No Iterations 3
[INFO] TimeStep: 21633.857 [ms]
ExecutionTime = 1066.4 s  ClockTime = 1071 s

Time = 35

velocityDampingConstraint velocityDamping damped 0 (0%) of cells, with max limit 300
[INFO] MatrixAssemblyU: 4259.323 [ms]
smoothSolver:  Solving for Ux, Initial residual = 0.01108824776675926, Final residual = 0.001090079301046632, No Iterations 12
smoothSolver:  Solving for Uy, Initial residual = 0.06167092011533092, Final residual = 0.005244328998022796, No Iterations 13
smoothSolver:  Solving for Uz, Initial residual = 0.05702787080049675, Final residual = 0.005597188271139767, No Iterations 12
[INFO] MomentumPredictor: 3607.117 [ms]
[INFO] MatrixAssemblyPI: 713.73 [ms]
[INFO] MatrixAssemblyPII: 347.995 [ms]
DICPCG:  Solving for p, Initial residual = 0.0536387038705065, Final residual = 0.0005179397839764898, No Iterations 94
[INFO] SolveP: 9801.567999999999 [ms]
time step continuity errors : sum local = 0.005097085198287651, global = 0.0007605757696213597, cumulative = 0.006337863548067968
[INFO] postSolveP: 185.877 [ms]
smoothSolver:  Solving for nuTilda, Initial residual = 0.01501978772852479, Final residual = 0.001382742135844736, No Iterations 3
[INFO] TimeStep: 21609.238 [ms]
ExecutionTime = 1091.33 s  ClockTime = 1096 s

Time = 36

velocityDampingConstraint velocityDamping damped 0 (0%) of cells, with max limit 300
[INFO] MatrixAssemblyU: 4261.614 [ms]
smoothSolver:  Solving for Ux, Initial residual = 0.01136276798190078, Final residual = 0.001112068694808769, No Iterations 12
smoothSolver:  Solving for Uy, Initial residual = 0.06369054675108599, Final residual = 0.005498264303682432, No Iterations 13
smoothSolver:  Solving for Uz, Initial residual = 0.05968410907856261, Final residual = 0.005858493501963067, No Iterations 12
[INFO] MomentumPredictor: 3623.846 [ms]
[INFO] MatrixAssemblyPI: 712.242 [ms]
[INFO] MatrixAssemblyPII: 347.035 [ms]
DICPCG:  Solving for p, Initial residual = 0.05498809348064082, Final residual = 0.0005356177446604702, No Iterations 93
[INFO] SolveP: 9684.795 [ms]
time step continuity errors : sum local = 0.005317664315815224, global = 0.0005819040931686291, cumulative = 0.006919767641236597
[INFO] postSolveP: 185.463 [ms]
smoothSolver:  Solving for nuTilda, Initial residual = 0.02181418704399807, Final residual = 0.001307887688615626, No Iterations 3
[INFO] TimeStep: 21508.098 [ms]
ExecutionTime = 1116.16 s  ClockTime = 1121 s

Time = 37

velocityDampingConstraint velocityDamping damped 0 (0%) of cells, with max limit 300
[INFO] MatrixAssemblyU: 4254.495 [ms]
smoothSolver:  Solving for Ux, Initial residual = 0.01158123953788411, Final residual = 0.001138267306614305, No Iterations 12
smoothSolver:  Solving for Uy, Initial residual = 0.06552912403125016, Final residual = 0.005739128106712965, No Iterations 13
smoothSolver:  Solving for Uz, Initial residual = 0.06230375080374444, Final residual = 0.006078952512146077, No Iterations 12
[INFO] MomentumPredictor: 3611.238 [ms]
[INFO] MatrixAssemblyPI: 713.366 [ms]
[INFO] MatrixAssemblyPII: 345.922 [ms]
DICPCG:  Solving for p, Initial residual = 0.05677437775735273, Final residual = 0.000565145805754153, No Iterations 89
[INFO] SolveP: 9288.067999999999 [ms]
time step continuity errors : sum local = 0.005656515162178793, global = 0.0003844855908834318, cumulative = 0.007304253232120029
[INFO] postSolveP: 186.67 [ms]
smoothSolver:  Solving for nuTilda, Initial residual = 0.01420621988496694, Final residual = 0.001295750740327103, No Iterations 3
[INFO] TimeStep: 21089.294 [ms]
ExecutionTime = 1140.56 s  ClockTime = 1145 s

Time = 38

velocityDampingConstraint velocityDamping damped 0 (0%) of cells, with max limit 300
[INFO] MatrixAssemblyU: 4255.855 [ms]
smoothSolver:  Solving for Ux, Initial residual = 0.01190250853409438, Final residual = 0.001161415689230338, No Iterations 12
smoothSolver:  Solving for Uy, Initial residual = 0.06709894213767333, Final residual = 0.005923093102633774, No Iterations 13
smoothSolver:  Solving for Uz, Initial residual = 0.06511609910156808, Final residual = 0.006279660352224358, No Iterations 12
[INFO] MomentumPredictor: 3626.817 [ms]
[INFO] MatrixAssemblyPI: 712.002 [ms]
[INFO] MatrixAssemblyPII: 346.906 [ms]
DICPCG:  Solving for p, Initial residual = 0.05753372471699791, Final residual = 0.0005553491220251475, No Iterations 89
[INFO] SolveP: 9276.992 [ms]
time step continuity errors : sum local = 0.005589677949196468, global = 0.00016784835938887, cumulative = 0.007472101591508899
[INFO] postSolveP: 185.404 [ms]
smoothSolver:  Solving for nuTilda, Initial residual = 0.02058941971897726, Final residual = 0.00123218389231991, No Iterations 3
[INFO] TimeStep: 21095.952 [ms]
ExecutionTime = 1164.97 s  ClockTime = 1170 s

Time = 39

velocityDampingConstraint velocityDamping damped 0 (0%) of cells, with max limit 300
[INFO] MatrixAssemblyU: 4251.66 [ms]
smoothSolver:  Solving for Ux, Initial residual = 0.01200280615713652, Final residual = 0.001174338134936537, No Iterations 12
smoothSolver:  Solving for Uy, Initial residual = 0.06863160610474479, Final residual = 0.006094438780690444, No Iterations 13
smoothSolver:  Solving for Uz, Initial residual = 0.06767760171308694, Final residual = 0.00650326368568664, No Iterations 12
[INFO] MomentumPredictor: 3618.262 [ms]
[INFO] MatrixAssemblyPI: 712.2380000000001 [ms]
[INFO] MatrixAssemblyPII: 346.704 [ms]
DICPCG:  Solving for p, Initial residual = 0.05764192218963039, Final residual = 0.0005631258531121615, No Iterations 88
[INFO] SolveP: 9179.235000000001 [ms]
time step continuity errors : sum local = 0.00569202586520569, global = -5.678654671259364e-05, cumulative = 0.007415315044796306
[INFO] postSolveP: 185.955 [ms]
smoothSolver:  Solving for nuTilda, Initial residual = 0.01354666695034183, Final residual = 0.001221751133969427, No Iterations 3
[INFO] TimeStep: 20984.202 [ms]
ExecutionTime = 1189.27 s  ClockTime = 1194 s

Time = 40

velocityDampingConstraint velocityDamping damped 0 (0%) of cells, with max limit 300
[INFO] MatrixAssemblyU: 4247.606 [ms]
smoothSolver:  Solving for Ux, Initial residual = 0.01214660539371728, Final residual = 0.001185385251307537, No Iterations 12
smoothSolver:  Solving for Uy, Initial residual = 0.06984448559983171, Final residual = 0.006255501883251883, No Iterations 13
smoothSolver:  Solving for Uz, Initial residual = 0.06954865648125887, Final residual = 0.006743562121703725, No Iterations 12
[INFO] MomentumPredictor: 3622.659 [ms]
[INFO] MatrixAssemblyPI: 712.0940000000001 [ms]
[INFO] MatrixAssemblyPII: 346.509 [ms]
DICPCG:  Solving for p, Initial residual = 0.05782685377194082, Final residual = 0.0005704263016540612, No Iterations 87
[INFO] SolveP: 9084.348 [ms]
time step continuity errors : sum local = 0.005774918232190321, global = -0.0002759688868240885, cumulative = 0.007139346157972217
[INFO] postSolveP: 185.354 [ms]
smoothSolver:  Solving for nuTilda, Initial residual = 0.01948530193830778, Final residual = 0.001168677979047287, No Iterations 3
[INFO] TimeStep: 20883.744 [ms]
ExecutionTime = 1213.46 s  ClockTime = 1218 s

Time = 41

velocityDampingConstraint velocityDamping damped 0 (0%) of cells, with max limit 300
[INFO] MatrixAssemblyU: 4243.813 [ms]
smoothSolver:  Solving for Ux, Initial residual = 0.01208419197390446, Final residual = 0.001195760199768156, No Iterations 12
smoothSolver:  Solving for Uy, Initial residual = 0.07047156287198629, Final residual = 0.006415133621619822, No Iterations 13
smoothSolver:  Solving for Uz, Initial residual = 0.07073199392227204, Final residual = 0.006951504139572212, No Iterations 12
[INFO] MomentumPredictor: 3611.265 [ms]
[INFO] MatrixAssemblyPI: 713.14 [ms]
[INFO] MatrixAssemblyPII: 346.431 [ms]
DICPCG:  Solving for p, Initial residual = 0.05737454471521097, Final residual = 0.0005702783352754543, No Iterations 84
[INFO] SolveP: 8773.314 [ms]
time step continuity errors : sum local = 0.00577528802120702, global = -0.0004690862709873917, cumulative = 0.006670259886984825
[INFO] postSolveP: 185.907 [ms]
smoothSolver:  Solving for nuTilda, Initial residual = 0.01295461468694781, Final residual = 0.001160228657456309, No Iterations 3
[INFO] TimeStep: 20558.632 [ms]
ExecutionTime = 1237.33 s  ClockTime = 1242 s

Time = 42

velocityDampingConstraint velocityDamping damped 0 (0%) of cells, with max limit 300
[INFO] MatrixAssemblyU: 4240.265 [ms]
smoothSolver:  Solving for Ux, Initial residual = 0.01212467427372525, Final residual = 0.001202889743385324, No Iterations 12
smoothSolver:  Solving for Uy, Initial residual = 0.07099215537356666, Final residual = 0.006604112559589087, No Iterations 13
smoothSolver:  Solving for Uz, Initial residual = 0.07132009979154015, Final residual = 0.006063162664990206, No Iterations 13
[INFO] MomentumPredictor: 3712.6 [ms]
[INFO] MatrixAssemblyPI: 712.235 [ms]
[INFO] MatrixAssemblyPII: 347.557 [ms]
DICPCG:  Solving for p, Initial residual = 0.05698472681220939, Final residual = 0.0005683682955212305, No Iterations 84
[INFO] SolveP: 8761.939 [ms]
time step continuity errors : sum local = 0.005747713507683201, global = -0.000662384587002857, cumulative = 0.006007875299981968
[INFO] postSolveP: 184.976 [ms]
smoothSolver:  Solving for nuTilda, Initial residual = 0.01847409865829757, Final residual = 0.001113760023337136, No Iterations 3
[INFO] TimeStep: 20647.661 [ms]
ExecutionTime = 1261.27 s  ClockTime = 1266 s

Time = 43

velocityDampingConstraint velocityDamping damped 0 (0%) of cells, with max limit 300
[INFO] MatrixAssemblyU: 4239.169 [ms]
smoothSolver:  Solving for Ux, Initial residual = 0.01202943600845154, Final residual = 0.001029972149518809, No Iterations 13
smoothSolver:  Solving for Uy, Initial residual = 0.0717529293366902, Final residual = 0.00683037369066793, No Iterations 13
smoothSolver:  Solving for Uz, Initial residual = 0.07096273037985457, Final residual = 0.006150344535989616, No Iterations 13
[INFO] MomentumPredictor: 3776.213 [ms]
[INFO] MatrixAssemblyPI: 711.617 [ms]
[INFO] MatrixAssemblyPII: 347.258 [ms]
DICPCG:  Solving for p, Initial residual = 0.05626309938648257, Final residual = 0.0005593237524991481, No Iterations 85
[INFO] SolveP: 8872.364 [ms]
time step continuity errors : sum local = 0.005636322801589343, global = -0.0008593911313769973, cumulative = 0.005148484168604971
[INFO] postSolveP: 186.012 [ms]
smoothSolver:  Solving for nuTilda, Initial residual = 0.01236597634534253, Final residual = 0.001104059095239015, No Iterations 3
[INFO] TimeStep: 20816.362 [ms]
ExecutionTime = 1285.4 s  ClockTime = 1290 s

Time = 44

velocityDampingConstraint velocityDamping damped 0 (0%) of cells, with max limit 300
[INFO] MatrixAssemblyU: 4238.289 [ms]
smoothSolver:  Solving for Ux, Initial residual = 0.0120362594817437, Final residual = 0.001037735195682445, No Iterations 13
smoothSolver:  Solving for Uy, Initial residual = 0.0722709030939345, Final residual = 0.007042444690152877, No Iterations 13
smoothSolver:  Solving for Uz, Initial residual = 0.07029327851579419, Final residual = 0.006223783920026198, No Iterations 13
[INFO] MomentumPredictor: 3792.31 [ms]
[INFO] MatrixAssemblyPI: 712.323 [ms]
[INFO] MatrixAssemblyPII: 346.655 [ms]
DICPCG:  Solving for p, Initial residual = 0.05561721928287219, Final residual = 0.0005504020323149905, No Iterations 106
[INFO] SolveP: 11021.33 [ms]
time step continuity errors : sum local = 0.005503386650208821, global = -0.001041062042146117, cumulative = 0.004107422126458854
[INFO] postSolveP: 185.83 [ms]
smoothSolver:  Solving for nuTilda, Initial residual = 0.01753091636003913, Final residual = 0.001061382914832556, No Iterations 3
[INFO] TimeStep: 22981.375 [ms]
ExecutionTime = 1311.67 s  ClockTime = 1317 s

Time = 45

velocityDampingConstraint velocityDamping damped 0 (0%) of cells, with max limit 300
[INFO] MatrixAssemblyU: 4235.375 [ms]
smoothSolver:  Solving for Ux, Initial residual = 0.01189983819365687, Final residual = 0.001046676551750275, No Iterations 13
smoothSolver:  Solving for Uy, Initial residual = 0.07243871630633059, Final residual = 0.007186451071888334, No Iterations 13
smoothSolver:  Solving for Uz, Initial residual = 0.06948988483189711, Final residual = 0.00629490806596309, No Iterations 13
[INFO] MomentumPredictor: 3771.552 [ms]
[INFO] MatrixAssemblyPI: 711.545 [ms]
[INFO] MatrixAssemblyPII: 346.384 [ms]
DICPCG:  Solving for p, Initial residual = 0.0552599915904098, Final residual = 0.0005394863947629654, No Iterations 87
[INFO] SolveP: 9072.048000000001 [ms]
time step continuity errors : sum local = 0.005321503100433738, global = -0.001195431154655648, cumulative = 0.002911990971803206
[INFO] postSolveP: 186.004 [ms]
smoothSolver:  Solving for nuTilda, Initial residual = 0.0118051427668904, Final residual = 0.001050322025408237, No Iterations 3
[INFO] TimeStep: 21003.165 [ms]
ExecutionTime = 1335.98 s  ClockTime = 1341 s

Time = 46

velocityDampingConstraint velocityDamping damped 0 (0%) of cells, with max limit 300
[INFO] MatrixAssemblyU: 4233.104 [ms]
smoothSolver:  Solving for Ux, Initial residual = 0.01177151300702963, Final residual = 0.001050306200386067, No Iterations 13
smoothSolver:  Solving for Uy, Initial residual = 0.07221550572100426, Final residual = 0.006176378046918397, No Iterations 14
smoothSolver:  Solving for Uz, Initial residual = 0.06814916104232138, Final residual = 0.006338834544978612, No Iterations 13
[INFO] MomentumPredictor: 3868.884 [ms]
[INFO] MatrixAssemblyPI: 711.7329999999999 [ms]
[INFO] MatrixAssemblyPII: 347.082 [ms]
DICPCG:  Solving for p, Initial residual = 0.05457739749789751, Final residual = 0.000543030206755355, No Iterations 216
[INFO] SolveP: 22311.121 [ms]
time step continuity errors : sum local = 0.005305656363236729, global = -0.0003088330302714127, cumulative = 0.002603157941531794
[INFO] postSolveP: 185.841 [ms]
smoothSolver:  Solving for nuTilda, Initial residual = 0.01664889700222986, Final residual = 0.001013073661224569, No Iterations 3
[INFO] TimeStep: 34342.273 [ms]
ExecutionTime = 1373.57 s  ClockTime = 1379 s

Time = 47

velocityDampingConstraint velocityDamping damped 0 (0%) of cells, with max limit 300
[INFO] MatrixAssemblyU: 4232.299 [ms]
smoothSolver:  Solving for Ux, Initial residual = 0.01173670755147458, Final residual = 0.001058232459930837, No Iterations 13
smoothSolver:  Solving for Uy, Initial residual = 0.07225537048607464, Final residual = 0.006183396789655847, No Iterations 14
smoothSolver:  Solving for Uz, Initial residual = 0.06723229210707049, Final residual = 0.006399902742401297, No Iterations 13
[INFO] MomentumPredictor: 3851.968 [ms]
[INFO] MatrixAssemblyPI: 713.086 [ms]
[INFO] MatrixAssemblyPII: 347.107 [ms]
DICPCG:  Solving for p, Initial residual = 0.05591497629286967, Final residual = 0.0005468927863867822, No Iterations 85
[INFO] SolveP: 8879.708000000001 [ms]
time step continuity errors : sum local = 0.005108138899646994, global = 0.0006059053191629279, cumulative = 0.003209063260694721
[INFO] postSolveP: 185.635 [ms]
smoothSolver:  Solving for nuTilda, Initial residual = 0.01128646591697694, Final residual = 0.001003511484409667, No Iterations 3
[INFO] TimeStep: 20891.978 [ms]
ExecutionTime = 1397.77 s  ClockTime = 1403 s

Time = 48

velocityDampingConstraint velocityDamping damped 0 (0%) of cells, with max limit 300
[INFO] MatrixAssemblyU: 4228.076 [ms]
smoothSolver:  Solving for Ux, Initial residual = 0.01164802373723119, Final residual = 0.001063284834546166, No Iterations 13
smoothSolver:  Solving for Uy, Initial residual = 0.07143991987446385, Final residual = 0.006146604090201226, No Iterations 14
smoothSolver:  Solving for Uz, Initial residual = 0.06567897671859702, Final residual = 0.006374220696741847, No Iterations 13
[INFO] MomentumPredictor: 3870.888 [ms]
[INFO] MatrixAssemblyPI: 712.2 [ms]
[INFO] MatrixAssemblyPII: 346.866 [ms]
DICPCG:  Solving for p, Initial residual = 0.05493904506028614, Final residual = 0.0005467602620329967, No Iterations 128
[INFO] SolveP: 13274.8 [ms]
time step continuity errors : sum local = 0.00508666278343793, global = 0.001033000003806789, cumulative = 0.004242063264501511
[INFO] postSolveP: 186.239 [ms]
smoothSolver:  Solving for nuTilda, Initial residual = 0.0158676522380727, Final residual = 0.0009721828234840434, No Iterations 3
[INFO] TimeStep: 25299.803 [ms]
ExecutionTime = 1426.35 s  ClockTime = 1432 s

Time = 49

velocityDampingConstraint velocityDamping damped 0 (0%) of cells, with max limit 300
[INFO] MatrixAssemblyU: 4229.194 [ms]
smoothSolver:  Solving for Ux, Initial residual = 0.01151146076153341, Final residual = 0.00106855976947342, No Iterations 13
smoothSolver:  Solving for Uy, Initial residual = 0.07091018774355955, Final residual = 0.006140411190523686, No Iterations 14
smoothSolver:  Solving for Uz, Initial residual = 0.06473307875705894, Final residual = 0.006367765314172111, No Iterations 13
[INFO] MomentumPredictor: 3853.897 [ms]
[INFO] MatrixAssemblyPI: 713.202 [ms]
[INFO] MatrixAssemblyPII: 346.53 [ms]
DICPCG:  Solving for p, Initial residual = 0.05377979769046545, Final residual = 0.0005368408234848414, No Iterations 94
[INFO] SolveP: 9794.450000000001 [ms]
time step continuity errors : sum local = 0.005022082553035273, global = 0.001268845533820547, cumulative = 0.005510908798322058
[INFO] postSolveP: 186.103 [ms]
smoothSolver:  Solving for nuTilda, Initial residual = 0.01085446740367913, Final residual = 0.0009660232024768285, No Iterations 3
[INFO] TimeStep: 21804.827 [ms]
ExecutionTime = 1451.44 s  ClockTime = 1457 s

Time = 50

velocityDampingConstraint velocityDamping damped 0 (0%) of cells, with max limit 300
[INFO] MatrixAssemblyU: 4225.114 [ms]
smoothSolver:  Solving for Ux, Initial residual = 0.01148361467373054, Final residual = 0.001068946023567041, No Iterations 13
smoothSolver:  Solving for Uy, Initial residual = 0.06957941542472458, Final residual = 0.006039993342215807, No Iterations 14
smoothSolver:  Solving for Uz, Initial residual = 0.06371650643859178, Final residual = 0.006315730423671364, No Iterations 13
[INFO] MomentumPredictor: 3869.438 [ms]
[INFO] MatrixAssemblyPI: 712.51 [ms]
[INFO] MatrixAssemblyPII: 346.76 [ms]
DICPCG:  Solving for p, Initial residual = 0.05308424862210442, Final residual = 0.0005301772791165141, No Iterations 218
[INFO] SolveP: 22493.473 [ms]
time step continuity errors : sum local = 0.00494713390381438, global = 4.7538006830836e-06, cumulative = 0.005515662599005142
[INFO] postSolveP: 185.897 [ms]
smoothSolver:  Solving for nuTilda, Initial residual = 0.01518545103463258, Final residual = 0.0009399430287909313, No Iterations 3
[INFO] TimeStep: 34512.884 [ms]
ExecutionTime = 1489.21 s  ClockTime = 1495 s

End

Finalising parallel run
