/*---------------------------------------------------------------------------*\
| =========                 |                                                 |
| \\      /  F ield         | OpenFOAM: The Open Source CFD Toolbox           |
|  \\    /   O peration     | Version:  2312                                  |
|   \\  /    A nd           | Website:  www.openfoam.com                      |
|    \\/     M anipulation  |                                                 |
\*---------------------------------------------------------------------------*/
Build  : a46b310f-20240104 OPENFOAM=2312 version=v2312
Arch   : "LSB;label=32;scalar=64"
Exec   : decomposePar -force
Date   : Feb 16 2024
Time   : 21:42:10
Host   : i20r02c03s08
PID    : 14028
--> FOAM Warning : 
    From Foam::fileName Foam::cwd_L()
    in file POSIX.C at line 552
    PWD is not the cwd() - reverting to physical description
I/O    : uncollated
--> FOAM Warning : 
    From Foam::fileName Foam::cwd_L()
    in file POSIX.C at line 552
    PWD is not the cwd() - reverting to physical description
Case   : /hppfs/scratch/0B/di35yan/lidDriven3D/workspace/237affb73a7b8bae159400e2fb343f45/case
nProcs : 1
trapFpe: Floating point exception trapping enabled (FOAM_SIGFPE).
fileModificationChecking : Monitoring run-time modified files using timeStampMaster (fileModificationSkew 5, maxFileModificationPolls 20)
allowSystemOperations : Allowing user-supplied system call operations

// * * * * * * * * * * * * * * * * * * * * * * * * * * * * * * * * * * * * * //
Create time

--> FOAM Warning : 
    From void* Foam::dlLibraryTable::openLibrary(const Foam::fileName&, bool)
    in file db/dynamicLibrary/dlLibraryTable/dlLibraryTable.C at line 188
    Could not load "libpetscFoam.so"
libpetscFoam.so: cannot open shared object file: No such file or directory


Decomposing mesh

Create mesh

Calculating distribution of cells
Decomposition method simple [72] (region region0)

Finished decomposition in 16.41 s

Calculating original mesh data

Distributing cells to processors

Distributing faces to processors

Distributing points to processors

Constructing processor meshes

Processor 0
    Number of cells = 371875
    Number of points = 390884
    Number of faces shared with processor 1 = 4950
    Number of faces shared with processor 4 = 2524
    Number of faces shared with processor 8 = 11324
    Number of processor patches = 3
    Number of processor faces = 18798
    Number of boundary faces = 18700

Processor 1
    Number of cells = 371250
    Number of points = 390184
    Number of faces shared with processor 0 = 4950
    Number of faces shared with processor 2 = 4950
    Number of faces shared with processor 5 = 2475
    Number of faces shared with processor 9 = 11250
    Number of processor patches = 4
    Number of processor faces = 23625
    Number of boundary faces = 13725

Processor 2
    Number of cells = 371250
    Number of points = 390184
    Number of faces shared with processor 1 = 4950
    Number of faces shared with processor 3 = 4950
    Number of faces shared with processor 6 = 2475
    Number of faces shared with processor 10 = 11250
    Number of processor patches = 4
    Number of processor faces = 23625
    Number of boundary faces = 13725

Processor 3
    Number of cells = 371250
    Number of points = 390184
    Number of faces shared with processor 2 = 4950
    Number of faces shared with processor 7 = 2475
    Number of faces shared with processor 11 = 11250
    Number of processor patches = 3
    Number of processor faces = 18675
    Number of boundary faces = 18675

Processor 4
    Number of cells = 382344
    Number of points = 401504
    Number of faces shared with processor 0 = 2524
    Number of faces shared with processor 5 = 5087
    Number of faces shared with processor 8 = 2
    Number of faces shared with processor 12 = 11286
    Number of faces shared with processor 13 = 1
    Number of processor patches = 5
    Number of processor faces = 18900
    Number of boundary faces = 18900

Processor 5
    Number of cells = 380156
    Number of points = 399303
    Number of faces shared with processor 1 = 2475
    Number of faces shared with processor 4 = 5087
    Number of faces shared with processor 6 = 5050
    Number of faces shared with processor 13 = 11362
    Number of processor patches = 4
    Number of processor faces = 23974
    Number of boundary faces = 13800

Processor 6
    Number of cells = 377344
    Number of points = 396454
    Number of faces shared with processor 2 = 2475
    Number of faces shared with processor 5 = 5050
    Number of faces shared with processor 7 = 5012
    Number of faces shared with processor 14 = 11362
    Number of faces shared with processor 15 = 1
    Number of processor patches = 5
    Number of processor faces = 23900
    Number of boundary faces = 13800

Processor 7
    Number of cells = 374531
    Number of points = 393603
    Number of faces shared with processor 3 = 2475
    Number of faces shared with processor 6 = 5012
    Number of faces shared with processor 15 = 11362
    Number of processor patches = 3
    Number of processor faces = 18849
    Number of boundary faces = 18775

Processor 8
    Number of cells = 378594
    Number of points = 397729
    Number of faces shared with processor 0 = 11324
    Number of faces shared with processor 4 = 2
    Number of faces shared with processor 9 = 5037
    Number of faces shared with processor 12 = 2499
    Number of faces shared with processor 16 = 11362
    Number of faces shared with processor 17 = 1
    Number of processor patches = 6
    Number of processor faces = 30225
    Number of boundary faces = 7525

Processor 9
    Number of cells = 376406
    Number of points = 395503
    Number of faces shared with processor 1 = 11250
    Number of faces shared with processor 8 = 5037
    Number of faces shared with processor 10 = 5000
    Number of faces shared with processor 13 = 2550
    Number of faces shared with processor 17 = 11362
    Number of processor patches = 5
    Number of processor faces = 35199
    Number of boundary faces = 2475

Processor 10
    Number of cells = 373594
    Number of points = 392654
    Number of faces shared with processor 2 = 11250
    Number of faces shared with processor 9 = 5000
    Number of faces shared with processor 11 = 4962
    Number of faces shared with processor 14 = 2550
    Number of faces shared with processor 18 = 11362
    Number of faces shared with processor 19 = 1
    Number of processor patches = 6
    Number of processor faces = 35125
    Number of boundary faces = 2475

Processor 11
    Number of cells = 371406
    Number of points = 390377
    Number of faces shared with processor 3 = 11250
    Number of faces shared with processor 10 = 4962
    Number of faces shared with processor 15 = 2499
    Number of faces shared with processor 19 = 11286
    Number of processor patches = 4
    Number of processor faces = 29997
    Number of boundary faces = 7425

Processor 12
    Number of cells = 371406
    Number of points = 390377
    Number of faces shared with processor 4 = 11286
    Number of faces shared with processor 8 = 2499
    Number of faces shared with processor 13 = 4962
    Number of faces shared with processor 20 = 11250
    Number of processor patches = 4
    Number of processor faces = 29997
    Number of boundary faces = 7425

Processor 13
    Number of cells = 373594
    Number of points = 392654
    Number of faces shared with processor 4 = 1
    Number of faces shared with processor 5 = 11362
    Number of faces shared with processor 9 = 2550
    Number of faces shared with processor 12 = 4962
    Number of faces shared with processor 14 = 5000
    Number of faces shared with processor 21 = 11250
    Number of processor patches = 6
    Number of processor faces = 35125
    Number of boundary faces = 2475

Processor 14
    Number of cells = 376406
    Number of points = 395503
    Number of faces shared with processor 6 = 11362
    Number of faces shared with processor 10 = 2550
    Number of faces shared with processor 13 = 5000
    Number of faces shared with processor 15 = 5037
    Number of faces shared with processor 22 = 11250
    Number of processor patches = 5
    Number of processor faces = 35199
    Number of boundary faces = 2475

Processor 15
    Number of cells = 378594
    Number of points = 397729
    Number of faces shared with processor 6 = 1
    Number of faces shared with processor 7 = 11362
    Number of faces shared with processor 11 = 2499
    Number of faces shared with processor 14 = 5037
    Number of faces shared with processor 19 = 2
    Number of faces shared with processor 23 = 11324
    Number of processor patches = 6
    Number of processor faces = 30225
    Number of boundary faces = 7525

Processor 16
    Number of cells = 374531
    Number of points = 393603
    Number of faces shared with processor 8 = 11362
    Number of faces shared with processor 17 = 5012
    Number of faces shared with processor 20 = 2475
    Number of faces shared with processor 24 = 11250
    Number of processor patches = 4
    Number of processor faces = 30099
    Number of boundary faces = 7525

Processor 17
    Number of cells = 377344
    Number of points = 396454
    Number of faces shared with processor 8 = 1
    Number of faces shared with processor 9 = 11362
    Number of faces shared with processor 16 = 5012
    Number of faces shared with processor 18 = 5050
    Number of faces shared with processor 21 = 2475
    Number of faces shared with processor 25 = 11250
    Number of processor patches = 6
    Number of processor faces = 35150
    Number of boundary faces = 2550

Processor 18
    Number of cells = 380156
    Number of points = 399303
    Number of faces shared with processor 10 = 11362
    Number of faces shared with processor 17 = 5050
    Number of faces shared with processor 19 = 5087
    Number of faces shared with processor 22 = 2475
    Number of faces shared with processor 26 = 11250
    Number of processor patches = 5
    Number of processor faces = 35224
    Number of boundary faces = 2550

Processor 19
    Number of cells = 382344
    Number of points = 401504
    Number of faces shared with processor 10 = 1
    Number of faces shared with processor 11 = 11286
    Number of faces shared with processor 15 = 2
    Number of faces shared with processor 18 = 5087
    Number of faces shared with processor 23 = 2524
    Number of faces shared with processor 27 = 11250
    Number of processor patches = 6
    Number of processor faces = 30150
    Number of boundary faces = 7650

Processor 20
    Number of cells = 371250
    Number of points = 390184
    Number of faces shared with processor 12 = 11250
    Number of faces shared with processor 16 = 2475
    Number of faces shared with processor 21 = 4950
    Number of faces shared with processor 28 = 11250
    Number of processor patches = 4
    Number of processor faces = 29925
    Number of boundary faces = 7425

Processor 21
    Number of cells = 371250
    Number of points = 390184
    Number of faces shared with processor 13 = 11250
    Number of faces shared with processor 17 = 2475
    Number of faces shared with processor 20 = 4950
    Number of faces shared with processor 22 = 4950
    Number of faces shared with processor 29 = 11250
    Number of processor patches = 5
    Number of processor faces = 34875
    Number of boundary faces = 2475

Processor 22
    Number of cells = 371250
    Number of points = 390184
    Number of faces shared with processor 14 = 11250
    Number of faces shared with processor 18 = 2475
    Number of faces shared with processor 21 = 4950
    Number of faces shared with processor 23 = 4950
    Number of faces shared with processor 30 = 11250
    Number of processor patches = 5
    Number of processor faces = 34875
    Number of boundary faces = 2475

Processor 23
    Number of cells = 371875
    Number of points = 390884
    Number of faces shared with processor 15 = 11324
    Number of faces shared with processor 19 = 2524
    Number of faces shared with processor 22 = 4950
    Number of faces shared with processor 31 = 11250
    Number of processor patches = 4
    Number of processor faces = 30048
    Number of boundary faces = 7450

Processor 24
    Number of cells = 371875
    Number of points = 390884
    Number of faces shared with processor 16 = 11250
    Number of faces shared with processor 25 = 4950
    Number of faces shared with processor 28 = 2524
    Number of faces shared with processor 32 = 11324
    Number of processor patches = 4
    Number of processor faces = 30048
    Number of boundary faces = 7450

Processor 25
    Number of cells = 371250
    Number of points = 390184
    Number of faces shared with processor 17 = 11250
    Number of faces shared with processor 24 = 4950
    Number of faces shared with processor 26 = 4950
    Number of faces shared with processor 29 = 2475
    Number of faces shared with processor 33 = 11250
    Number of processor patches = 5
    Number of processor faces = 34875
    Number of boundary faces = 2475

Processor 26
    Number of cells = 371250
    Number of points = 390184
    Number of faces shared with processor 18 = 11250
    Number of faces shared with processor 25 = 4950
    Number of faces shared with processor 27 = 4950
    Number of faces shared with processor 30 = 2475
    Number of faces shared with processor 34 = 11250
    Number of processor patches = 5
    Number of processor faces = 34875
    Number of boundary faces = 2475

Processor 27
    Number of cells = 371250
    Number of points = 390184
    Number of faces shared with processor 19 = 11250
    Number of faces shared with processor 26 = 4950
    Number of faces shared with processor 31 = 2475
    Number of faces shared with processor 35 = 11250
    Number of processor patches = 4
    Number of processor faces = 29925
    Number of boundary faces = 7425

Processor 28
    Number of cells = 382344
    Number of points = 401504
    Number of faces shared with processor 20 = 11250
    Number of faces shared with processor 24 = 2524
    Number of faces shared with processor 29 = 5087
    Number of faces shared with processor 32 = 2
    Number of faces shared with processor 36 = 11286
    Number of faces shared with processor 37 = 1
    Number of processor patches = 6
    Number of processor faces = 30150
    Number of boundary faces = 7650

Processor 29
    Number of cells = 380156
    Number of points = 399303
    Number of faces shared with processor 21 = 11250
    Number of faces shared with processor 25 = 2475
    Number of faces shared with processor 28 = 5087
    Number of faces shared with processor 30 = 5050
    Number of faces shared with processor 37 = 11362
    Number of processor patches = 5
    Number of processor faces = 35224
    Number of boundary faces = 2550

Processor 30
    Number of cells = 377344
    Number of points = 396454
    Number of faces shared with processor 22 = 11250
    Number of faces shared with processor 26 = 2475
    Number of faces shared with processor 29 = 5050
    Number of faces shared with processor 31 = 5012
    Number of faces shared with processor 38 = 11362
    Number of faces shared with processor 39 = 1
    Number of processor patches = 6
    Number of processor faces = 35150
    Number of boundary faces = 2550

Processor 31
    Number of cells = 374531
    Number of points = 393603
    Number of faces shared with processor 23 = 11250
    Number of faces shared with processor 27 = 2475
    Number of faces shared with processor 30 = 5012
    Number of faces shared with processor 39 = 11362
    Number of processor patches = 4
    Number of processor faces = 30099
    Number of boundary faces = 7525

Processor 32
    Number of cells = 378594
    Number of points = 397729
    Number of faces shared with processor 24 = 11324
    Number of faces shared with processor 28 = 2
    Number of faces shared with processor 33 = 5037
    Number of faces shared with processor 36 = 2499
    Number of faces shared with processor 40 = 11362
    Number of faces shared with processor 41 = 1
    Number of processor patches = 6
    Number of processor faces = 30225
    Number of boundary faces = 7525

Processor 33
    Number of cells = 376406
    Number of points = 395503
    Number of faces shared with processor 25 = 11250
    Number of faces shared with processor 32 = 5037
    Number of faces shared with processor 34 = 5000
    Number of faces shared with processor 37 = 2550
    Number of faces shared with processor 41 = 11362
    Number of processor patches = 5
    Number of processor faces = 35199
    Number of boundary faces = 2475

Processor 34
    Number of cells = 373594
    Number of points = 392654
    Number of faces shared with processor 26 = 11250
    Number of faces shared with processor 33 = 5000
    Number of faces shared with processor 35 = 4962
    Number of faces shared with processor 38 = 2550
    Number of faces shared with processor 42 = 11362
    Number of faces shared with processor 43 = 1
    Number of processor patches = 6
    Number of processor faces = 35125
    Number of boundary faces = 2475

Processor 35
    Number of cells = 371406
    Number of points = 390377
    Number of faces shared with processor 27 = 11250
    Number of faces shared with processor 34 = 4962
    Number of faces shared with processor 39 = 2499
    Number of faces shared with processor 43 = 11286
    Number of processor patches = 4
    Number of processor faces = 29997
    Number of boundary faces = 7425

Processor 36
    Number of cells = 371406
    Number of points = 390377
    Number of faces shared with processor 28 = 11286
    Number of faces shared with processor 32 = 2499
    Number of faces shared with processor 37 = 4962
    Number of faces shared with processor 44 = 11250
    Number of processor patches = 4
    Number of processor faces = 29997
    Number of boundary faces = 7425

Processor 37
    Number of cells = 373594
    Number of points = 392654
    Number of faces shared with processor 28 = 1
    Number of faces shared with processor 29 = 11362
    Number of faces shared with processor 33 = 2550
    Number of faces shared with processor 36 = 4962
    Number of faces shared with processor 38 = 5000
    Number of faces shared with processor 45 = 11250
    Number of processor patches = 6
    Number of processor faces = 35125
    Number of boundary faces = 2475

Processor 38
    Number of cells = 376406
    Number of points = 395503
    Number of faces shared with processor 30 = 11362
    Number of faces shared with processor 34 = 2550
    Number of faces shared with processor 37 = 5000
    Number of faces shared with processor 39 = 5037
    Number of faces shared with processor 46 = 11250
    Number of processor patches = 5
    Number of processor faces = 35199
    Number of boundary faces = 2475

Processor 39
    Number of cells = 378594
    Number of points = 397729
    Number of faces shared with processor 30 = 1
    Number of faces shared with processor 31 = 11362
    Number of faces shared with processor 35 = 2499
    Number of faces shared with processor 38 = 5037
    Number of faces shared with processor 43 = 2
    Number of faces shared with processor 47 = 11324
    Number of processor patches = 6
    Number of processor faces = 30225
    Number of boundary faces = 7525

Processor 40
    Number of cells = 374531
    Number of points = 393603
    Number of faces shared with processor 32 = 11362
    Number of faces shared with processor 41 = 5012
    Number of faces shared with processor 44 = 2475
    Number of faces shared with processor 48 = 11250
    Number of processor patches = 4
    Number of processor faces = 30099
    Number of boundary faces = 7525

Processor 41
    Number of cells = 377344
    Number of points = 396454
    Number of faces shared with processor 32 = 1
    Number of faces shared with processor 33 = 11362
    Number of faces shared with processor 40 = 5012
    Number of faces shared with processor 42 = 5050
    Number of faces shared with processor 45 = 2475
    Number of faces shared with processor 49 = 11250
    Number of processor patches = 6
    Number of processor faces = 35150
    Number of boundary faces = 2550

Processor 42
    Number of cells = 380156
    Number of points = 399303
    Number of faces shared with processor 34 = 11362
    Number of faces shared with processor 41 = 5050
    Number of faces shared with processor 43 = 5087
    Number of faces shared with processor 46 = 2475
    Number of faces shared with processor 50 = 11250
    Number of processor patches = 5
    Number of processor faces = 35224
    Number of boundary faces = 2550

Processor 43
    Number of cells = 382344
    Number of points = 401504
    Number of faces shared with processor 34 = 1
    Number of faces shared with processor 35 = 11286
    Number of faces shared with processor 39 = 2
    Number of faces shared with processor 42 = 5087
    Number of faces shared with processor 47 = 2524
    Number of faces shared with processor 51 = 11250
    Number of processor patches = 6
    Number of processor faces = 30150
    Number of boundary faces = 7650

Processor 44
    Number of cells = 371250
    Number of points = 390184
    Number of faces shared with processor 36 = 11250
    Number of faces shared with processor 40 = 2475
    Number of faces shared with processor 45 = 4950
    Number of faces shared with processor 52 = 11250
    Number of processor patches = 4
    Number of processor faces = 29925
    Number of boundary faces = 7425

Processor 45
    Number of cells = 371250
    Number of points = 390184
    Number of faces shared with processor 37 = 11250
    Number of faces shared with processor 41 = 2475
    Number of faces shared with processor 44 = 4950
    Number of faces shared with processor 46 = 4950
    Number of faces shared with processor 53 = 11250
    Number of processor patches = 5
    Number of processor faces = 34875
    Number of boundary faces = 2475

Processor 46
    Number of cells = 371250
    Number of points = 390184
    Number of faces shared with processor 38 = 11250
    Number of faces shared with processor 42 = 2475
    Number of faces shared with processor 45 = 4950
    Number of faces shared with processor 47 = 4950
    Number of faces shared with processor 54 = 11250
    Number of processor patches = 5
    Number of processor faces = 34875
    Number of boundary faces = 2475

Processor 47
    Number of cells = 371875
    Number of points = 390884
    Number of faces shared with processor 39 = 11324
    Number of faces shared with processor 43 = 2524
    Number of faces shared with processor 46 = 4950
    Number of faces shared with processor 55 = 11250
    Number of processor patches = 4
    Number of processor faces = 30048
    Number of boundary faces = 7450

Processor 48
    Number of cells = 371875
    Number of points = 390884
    Number of faces shared with processor 40 = 11250
    Number of faces shared with processor 49 = 4950
    Number of faces shared with processor 52 = 2524
    Number of faces shared with processor 56 = 11324
    Number of processor patches = 4
    Number of processor faces = 30048
    Number of boundary faces = 7450

Processor 49
    Number of cells = 371250
    Number of points = 390184
    Number of faces shared with processor 41 = 11250
    Number of faces shared with processor 48 = 4950
    Number of faces shared with processor 50 = 4950
    Number of faces shared with processor 53 = 2475
    Number of faces shared with processor 57 = 11250
    Number of processor patches = 5
    Number of processor faces = 34875
    Number of boundary faces = 2475

Processor 50
    Number of cells = 371250
    Number of points = 390184
    Number of faces shared with processor 42 = 11250
    Number of faces shared with processor 49 = 4950
    Number of faces shared with processor 51 = 4950
    Number of faces shared with processor 54 = 2475
    Number of faces shared with processor 58 = 11250
    Number of processor patches = 5
    Number of processor faces = 34875
    Number of boundary faces = 2475

Processor 51
    Number of cells = 371250
    Number of points = 390184
    Number of faces shared with processor 43 = 11250
    Number of faces shared with processor 50 = 4950
    Number of faces shared with processor 55 = 2475
    Number of faces shared with processor 59 = 11250
    Number of processor patches = 4
    Number of processor faces = 29925
    Number of boundary faces = 7425

Processor 52
    Number of cells = 382344
    Number of points = 401504
    Number of faces shared with processor 44 = 11250
    Number of faces shared with processor 48 = 2524
    Number of faces shared with processor 53 = 5087
    Number of faces shared with processor 56 = 2
    Number of faces shared with processor 60 = 11286
    Number of faces shared with processor 61 = 1
    Number of processor patches = 6
    Number of processor faces = 30150
    Number of boundary faces = 7650

Processor 53
    Number of cells = 380156
    Number of points = 399303
    Number of faces shared with processor 45 = 11250
    Number of faces shared with processor 49 = 2475
    Number of faces shared with processor 52 = 5087
    Number of faces shared with processor 54 = 5050
    Number of faces shared with processor 61 = 11362
    Number of processor patches = 5
    Number of processor faces = 35224
    Number of boundary faces = 2550

Processor 54
    Number of cells = 377344
    Number of points = 396454
    Number of faces shared with processor 46 = 11250
    Number of faces shared with processor 50 = 2475
    Number of faces shared with processor 53 = 5050
    Number of faces shared with processor 55 = 5012
    Number of faces shared with processor 62 = 11362
    Number of faces shared with processor 63 = 1
    Number of processor patches = 6
    Number of processor faces = 35150
    Number of boundary faces = 2550

Processor 55
    Number of cells = 374531
    Number of points = 393603
    Number of faces shared with processor 47 = 11250
    Number of faces shared with processor 51 = 2475
    Number of faces shared with processor 54 = 5012
    Number of faces shared with processor 63 = 11362
    Number of processor patches = 4
    Number of processor faces = 30099
    Number of boundary faces = 7525

Processor 56
    Number of cells = 378594
    Number of points = 397729
    Number of faces shared with processor 48 = 11324
    Number of faces shared with processor 52 = 2
    Number of faces shared with processor 57 = 5037
    Number of faces shared with processor 60 = 2499
    Number of faces shared with processor 64 = 11362
    Number of faces shared with processor 65 = 1
    Number of processor patches = 6
    Number of processor faces = 30225
    Number of boundary faces = 7525

Processor 57
    Number of cells = 376406
    Number of points = 395503
    Number of faces shared with processor 49 = 11250
    Number of faces shared with processor 56 = 5037
    Number of faces shared with processor 58 = 5000
    Number of faces shared with processor 61 = 2550
    Number of faces shared with processor 65 = 11362
    Number of processor patches = 5
    Number of processor faces = 35199
    Number of boundary faces = 2475

Processor 58
    Number of cells = 373594
    Number of points = 392654
    Number of faces shared with processor 50 = 11250
    Number of faces shared with processor 57 = 5000
    Number of faces shared with processor 59 = 4962
    Number of faces shared with processor 62 = 2550
    Number of faces shared with processor 66 = 11362
    Number of faces shared with processor 67 = 1
    Number of processor patches = 6
    Number of processor faces = 35125
    Number of boundary faces = 2475

Processor 59
    Number of cells = 371406
    Number of points = 390377
    Number of faces shared with processor 51 = 11250
    Number of faces shared with processor 58 = 4962
    Number of faces shared with processor 63 = 2499
    Number of faces shared with processor 67 = 11286
    Number of processor patches = 4
    Number of processor faces = 29997
    Number of boundary faces = 7425

Processor 60
    Number of cells = 371406
    Number of points = 390377
    Number of faces shared with processor 52 = 11286
    Number of faces shared with processor 56 = 2499
    Number of faces shared with processor 61 = 4962
    Number of faces shared with processor 68 = 11250
    Number of processor patches = 4
    Number of processor faces = 29997
    Number of boundary faces = 7425

Processor 61
    Number of cells = 373594
    Number of points = 392654
    Number of faces shared with processor 52 = 1
    Number of faces shared with processor 53 = 11362
    Number of faces shared with processor 57 = 2550
    Number of faces shared with processor 60 = 4962
    Number of faces shared with processor 62 = 5000
    Number of faces shared with processor 69 = 11250
    Number of processor patches = 6
    Number of processor faces = 35125
    Number of boundary faces = 2475

Processor 62
    Number of cells = 376406
    Number of points = 395503
    Number of faces shared with processor 54 = 11362
    Number of faces shared with processor 58 = 2550
    Number of faces shared with processor 61 = 5000
    Number of faces shared with processor 63 = 5037
    Number of faces shared with processor 70 = 11250
    Number of processor patches = 5
    Number of processor faces = 35199
    Number of boundary faces = 2475

Processor 63
    Number of cells = 378594
    Number of points = 397729
    Number of faces shared with processor 54 = 1
    Number of faces shared with processor 55 = 11362
    Number of faces shared with processor 59 = 2499
    Number of faces shared with processor 62 = 5037
    Number of faces shared with processor 67 = 2
    Number of faces shared with processor 71 = 11324
    Number of processor patches = 6
    Number of processor faces = 30225
    Number of boundary faces = 7525

Processor 64
    Number of cells = 374531
    Number of points = 393603
    Number of faces shared with processor 56 = 11362
    Number of faces shared with processor 65 = 5012
    Number of faces shared with processor 68 = 2475
    Number of processor patches = 3
    Number of processor faces = 18849
    Number of boundary faces = 18775

Processor 65
    Number of cells = 377344
    Number of points = 396454
    Number of faces shared with processor 56 = 1
    Number of faces shared with processor 57 = 11362
    Number of faces shared with processor 64 = 5012
    Number of faces shared with processor 66 = 5050
    Number of faces shared with processor 69 = 2475
    Number of processor patches = 5
    Number of processor faces = 23900
    Number of boundary faces = 13800

Processor 66
    Number of cells = 380156
    Number of points = 399303
    Number of faces shared with processor 58 = 11362
    Number of faces shared with processor 65 = 5050
    Number of faces shared with processor 67 = 5087
    Number of faces shared with processor 70 = 2475
    Number of processor patches = 4
    Number of processor faces = 23974
    Number of boundary faces = 13800

Processor 67
    Number of cells = 382344
    Number of points = 401504
    Number of faces shared with processor 58 = 1
    Number of faces shared with processor 59 = 11286
    Number of faces shared with processor 63 = 2
    Number of faces shared with processor 66 = 5087
    Number of faces shared with processor 71 = 2524
    Number of processor patches = 5
    Number of processor faces = 18900
    Number of boundary faces = 18900

Processor 68
    Number of cells = 371250
    Number of points = 390184
    Number of faces shared with processor 60 = 11250
    Number of faces shared with processor 64 = 2475
    Number of faces shared with processor 69 = 4950
    Number of processor patches = 3
    Number of processor faces = 18675
    Number of boundary faces = 18675

Processor 69
    Number of cells = 371250
    Number of points = 390184
    Number of faces shared with processor 61 = 11250
    Number of faces shared with processor 65 = 2475
    Number of faces shared with processor 68 = 4950
    Number of faces shared with processor 70 = 4950
    Number of processor patches = 4
    Number of processor faces = 23625
    Number of boundary faces = 13725

Processor 70
    Number of cells = 371250
    Number of points = 390184
    Number of faces shared with processor 62 = 11250
    Number of faces shared with processor 66 = 2475
    Number of faces shared with processor 69 = 4950
    Number of faces shared with processor 71 = 4950
    Number of processor patches = 4
    Number of processor faces = 23625
    Number of boundary faces = 13725

Processor 71
    Number of cells = 371875
    Number of points = 390884
    Number of faces shared with processor 63 = 11324
    Number of faces shared with processor 67 = 2524
    Number of faces shared with processor 70 = 4950
    Number of processor patches = 3
    Number of processor faces = 18798
    Number of boundary faces = 18700

Number of processor faces = 1082676
Max number of cells = 382344 (1.9584% above average 375000)
Max number of processor patches = 6 (25.5814% above average 4.77778)
Max number of faces between processors = 35224 (17.1231% above average 30074.3)

Time = 0

Processor 0: field transfer
--> FOAM Warning : 
    From void* Foam::dlLibraryTable::openLibrary(const Foam::fileName&, bool)
    in file db/dynamicLibrary/dlLibraryTable/dlLibraryTable.C at line 188
    Could not load "libpetscFoam.so"
libpetscFoam.so: cannot open shared object file: No such file or directory
Processor 1: field transfer
--> FOAM Warning : 
    From void* Foam::dlLibraryTable::openLibrary(const Foam::fileName&, bool)
    in file db/dynamicLibrary/dlLibraryTable/dlLibraryTable.C at line 188
    Could not load "libpetscFoam.so"
libpetscFoam.so: cannot open shared object file: No such file or directory
Processor 2: field transfer
--> FOAM Warning : 
    From void* Foam::dlLibraryTable::openLibrary(const Foam::fileName&, bool)
    in file db/dynamicLibrary/dlLibraryTable/dlLibraryTable.C at line 188
    Could not load "libpetscFoam.so"
libpetscFoam.so: cannot open shared object file: No such file or directory
Processor 3: field transfer
--> FOAM Warning : 
    From void* Foam::dlLibraryTable::openLibrary(const Foam::fileName&, bool)
    in file db/dynamicLibrary/dlLibraryTable/dlLibraryTable.C at line 188
    Could not load "libpetscFoam.so"
libpetscFoam.so: cannot open shared object file: No such file or directory
Processor 4: field transfer
--> FOAM Warning : 
    From void* Foam::dlLibraryTable::openLibrary(const Foam::fileName&, bool)
    in file db/dynamicLibrary/dlLibraryTable/dlLibraryTable.C at line 188
    Could not load "libpetscFoam.so"
libpetscFoam.so: cannot open shared object file: No such file or directory
Processor 5: field transfer
--> FOAM Warning : 
    From void* Foam::dlLibraryTable::openLibrary(const Foam::fileName&, bool)
    in file db/dynamicLibrary/dlLibraryTable/dlLibraryTable.C at line 188
    Could not load "libpetscFoam.so"
libpetscFoam.so: cannot open shared object file: No such file or directory
Processor 6: field transfer
--> FOAM Warning : 
    From void* Foam::dlLibraryTable::openLibrary(const Foam::fileName&, bool)
    in file db/dynamicLibrary/dlLibraryTable/dlLibraryTable.C at line 188
    Could not load "libpetscFoam.so"
libpetscFoam.so: cannot open shared object file: No such file or directory
Processor 7: field transfer
--> FOAM Warning : 
    From void* Foam::dlLibraryTable::openLibrary(const Foam::fileName&, bool)
    in file db/dynamicLibrary/dlLibraryTable/dlLibraryTable.C at line 188
    Could not load "libpetscFoam.so"
libpetscFoam.so: cannot open shared object file: No such file or directory
Processor 8: field transfer
--> FOAM Warning : 
    From void* Foam::dlLibraryTable::openLibrary(const Foam::fileName&, bool)
    in file db/dynamicLibrary/dlLibraryTable/dlLibraryTable.C at line 188
    Could not load "libpetscFoam.so"
libpetscFoam.so: cannot open shared object file: No such file or directory
Processor 9: field transfer
--> FOAM Warning : 
    From void* Foam::dlLibraryTable::openLibrary(const Foam::fileName&, bool)
    in file db/dynamicLibrary/dlLibraryTable/dlLibraryTable.C at line 188
    Could not load "libpetscFoam.so"
libpetscFoam.so: cannot open shared object file: No such file or directory
Processor 10: field transfer
--> FOAM Warning : 
    From void* Foam::dlLibraryTable::openLibrary(const Foam::fileName&, bool)
    in file db/dynamicLibrary/dlLibraryTable/dlLibraryTable.C at line 188
    Could not load "libpetscFoam.so"
libpetscFoam.so: cannot open shared object file: No such file or directory
Processor 11: field transfer
--> FOAM Warning : 
    From void* Foam::dlLibraryTable::openLibrary(const Foam::fileName&, bool)
    in file db/dynamicLibrary/dlLibraryTable/dlLibraryTable.C at line 188
    Could not load "libpetscFoam.so"
libpetscFoam.so: cannot open shared object file: No such file or directory
Processor 12: field transfer
--> FOAM Warning : 
    From void* Foam::dlLibraryTable::openLibrary(const Foam::fileName&, bool)
    in file db/dynamicLibrary/dlLibraryTable/dlLibraryTable.C at line 188
    Could not load "libpetscFoam.so"
libpetscFoam.so: cannot open shared object file: No such file or directory
Processor 13: field transfer
--> FOAM Warning : 
    From void* Foam::dlLibraryTable::openLibrary(const Foam::fileName&, bool)
    in file db/dynamicLibrary/dlLibraryTable/dlLibraryTable.C at line 188
    Could not load "libpetscFoam.so"
libpetscFoam.so: cannot open shared object file: No such file or directory
Processor 14: field transfer
--> FOAM Warning : 
    From void* Foam::dlLibraryTable::openLibrary(const Foam::fileName&, bool)
    in file db/dynamicLibrary/dlLibraryTable/dlLibraryTable.C at line 188
    Could not load "libpetscFoam.so"
libpetscFoam.so: cannot open shared object file: No such file or directory
Processor 15: field transfer
--> FOAM Warning : 
    From void* Foam::dlLibraryTable::openLibrary(const Foam::fileName&, bool)
    in file db/dynamicLibrary/dlLibraryTable/dlLibraryTable.C at line 188
    Could not load "libpetscFoam.so"
libpetscFoam.so: cannot open shared object file: No such file or directory
Processor 16: field transfer
--> FOAM Warning : 
    From void* Foam::dlLibraryTable::openLibrary(const Foam::fileName&, bool)
    in file db/dynamicLibrary/dlLibraryTable/dlLibraryTable.C at line 188
    Could not load "libpetscFoam.so"
libpetscFoam.so: cannot open shared object file: No such file or directory
Processor 17: field transfer
--> FOAM Warning : 
    From void* Foam::dlLibraryTable::openLibrary(const Foam::fileName&, bool)
    in file db/dynamicLibrary/dlLibraryTable/dlLibraryTable.C at line 188
    Could not load "libpetscFoam.so"
libpetscFoam.so: cannot open shared object file: No such file or directory
Processor 18: field transfer
--> FOAM Warning : 
    From void* Foam::dlLibraryTable::openLibrary(const Foam::fileName&, bool)
    in file db/dynamicLibrary/dlLibraryTable/dlLibraryTable.C at line 188
    Could not load "libpetscFoam.so"
libpetscFoam.so: cannot open shared object file: No such file or directory
Processor 19: field transfer
--> FOAM Warning : 
    From void* Foam::dlLibraryTable::openLibrary(const Foam::fileName&, bool)
    in file db/dynamicLibrary/dlLibraryTable/dlLibraryTable.C at line 188
    Could not load "libpetscFoam.so"
libpetscFoam.so: cannot open shared object file: No such file or directory
Processor 20: field transfer
--> FOAM Warning : 
    From void* Foam::dlLibraryTable::openLibrary(const Foam::fileName&, bool)
    in file db/dynamicLibrary/dlLibraryTable/dlLibraryTable.C at line 188
    Could not load "libpetscFoam.so"
libpetscFoam.so: cannot open shared object file: No such file or directory
Processor 21: field transfer
--> FOAM Warning : 
    From void* Foam::dlLibraryTable::openLibrary(const Foam::fileName&, bool)
    in file db/dynamicLibrary/dlLibraryTable/dlLibraryTable.C at line 188
    Could not load "libpetscFoam.so"
libpetscFoam.so: cannot open shared object file: No such file or directory
Processor 22: field transfer
--> FOAM Warning : 
    From void* Foam::dlLibraryTable::openLibrary(const Foam::fileName&, bool)
    in file db/dynamicLibrary/dlLibraryTable/dlLibraryTable.C at line 188
    Could not load "libpetscFoam.so"
libpetscFoam.so: cannot open shared object file: No such file or directory
Processor 23: field transfer
--> FOAM Warning : 
    From void* Foam::dlLibraryTable::openLibrary(const Foam::fileName&, bool)
    in file db/dynamicLibrary/dlLibraryTable/dlLibraryTable.C at line 188
    Could not load "libpetscFoam.so"
libpetscFoam.so: cannot open shared object file: No such file or directory
Processor 24: field transfer
--> FOAM Warning : 
    From void* Foam::dlLibraryTable::openLibrary(const Foam::fileName&, bool)
    in file db/dynamicLibrary/dlLibraryTable/dlLibraryTable.C at line 188
    Could not load "libpetscFoam.so"
libpetscFoam.so: cannot open shared object file: No such file or directory
Processor 25: field transfer
--> FOAM Warning : 
    From void* Foam::dlLibraryTable::openLibrary(const Foam::fileName&, bool)
    in file db/dynamicLibrary/dlLibraryTable/dlLibraryTable.C at line 188
    Could not load "libpetscFoam.so"
libpetscFoam.so: cannot open shared object file: No such file or directory
Processor 26: field transfer
--> FOAM Warning : 
    From void* Foam::dlLibraryTable::openLibrary(const Foam::fileName&, bool)
    in file db/dynamicLibrary/dlLibraryTable/dlLibraryTable.C at line 188
    Could not load "libpetscFoam.so"
libpetscFoam.so: cannot open shared object file: No such file or directory
Processor 27: field transfer
--> FOAM Warning : 
    From void* Foam::dlLibraryTable::openLibrary(const Foam::fileName&, bool)
    in file db/dynamicLibrary/dlLibraryTable/dlLibraryTable.C at line 188
    Could not load "libpetscFoam.so"
libpetscFoam.so: cannot open shared object file: No such file or directory
Processor 28: field transfer
--> FOAM Warning : 
    From void* Foam::dlLibraryTable::openLibrary(const Foam::fileName&, bool)
    in file db/dynamicLibrary/dlLibraryTable/dlLibraryTable.C at line 188
    Could not load "libpetscFoam.so"
libpetscFoam.so: cannot open shared object file: No such file or directory
Processor 29: field transfer
--> FOAM Warning : 
    From void* Foam::dlLibraryTable::openLibrary(const Foam::fileName&, bool)
    in file db/dynamicLibrary/dlLibraryTable/dlLibraryTable.C at line 188
    Could not load "libpetscFoam.so"
libpetscFoam.so: cannot open shared object file: No such file or directory
Processor 30: field transfer
--> FOAM Warning : 
    From void* Foam::dlLibraryTable::openLibrary(const Foam::fileName&, bool)
    in file db/dynamicLibrary/dlLibraryTable/dlLibraryTable.C at line 188
    Could not load "libpetscFoam.so"
libpetscFoam.so: cannot open shared object file: No such file or directory
Processor 31: field transfer
--> FOAM Warning : 
    From void* Foam::dlLibraryTable::openLibrary(const Foam::fileName&, bool)
    in file db/dynamicLibrary/dlLibraryTable/dlLibraryTable.C at line 188
    Could not load "libpetscFoam.so"
libpetscFoam.so: cannot open shared object file: No such file or directory
Processor 32: field transfer
--> FOAM Warning : 
    From void* Foam::dlLibraryTable::openLibrary(const Foam::fileName&, bool)
    in file db/dynamicLibrary/dlLibraryTable/dlLibraryTable.C at line 188
    Could not load "libpetscFoam.so"
libpetscFoam.so: cannot open shared object file: No such file or directory
Processor 33: field transfer
--> FOAM Warning : 
    From void* Foam::dlLibraryTable::openLibrary(const Foam::fileName&, bool)
    in file db/dynamicLibrary/dlLibraryTable/dlLibraryTable.C at line 188
    Could not load "libpetscFoam.so"
libpetscFoam.so: cannot open shared object file: No such file or directory
Processor 34: field transfer
--> FOAM Warning : 
    From void* Foam::dlLibraryTable::openLibrary(const Foam::fileName&, bool)
    in file db/dynamicLibrary/dlLibraryTable/dlLibraryTable.C at line 188
    Could not load "libpetscFoam.so"
libpetscFoam.so: cannot open shared object file: No such file or directory
Processor 35: field transfer
--> FOAM Warning : 
    From void* Foam::dlLibraryTable::openLibrary(const Foam::fileName&, bool)
    in file db/dynamicLibrary/dlLibraryTable/dlLibraryTable.C at line 188
    Could not load "libpetscFoam.so"
libpetscFoam.so: cannot open shared object file: No such file or directory
Processor 36: field transfer
--> FOAM Warning : 
    From void* Foam::dlLibraryTable::openLibrary(const Foam::fileName&, bool)
    in file db/dynamicLibrary/dlLibraryTable/dlLibraryTable.C at line 188
    Could not load "libpetscFoam.so"
libpetscFoam.so: cannot open shared object file: No such file or directory
Processor 37: field transfer
--> FOAM Warning : 
    From void* Foam::dlLibraryTable::openLibrary(const Foam::fileName&, bool)
    in file db/dynamicLibrary/dlLibraryTable/dlLibraryTable.C at line 188
    Could not load "libpetscFoam.so"
libpetscFoam.so: cannot open shared object file: No such file or directory
Processor 38: field transfer
--> FOAM Warning : 
    From void* Foam::dlLibraryTable::openLibrary(const Foam::fileName&, bool)
    in file db/dynamicLibrary/dlLibraryTable/dlLibraryTable.C at line 188
    Could not load "libpetscFoam.so"
libpetscFoam.so: cannot open shared object file: No such file or directory
Processor 39: field transfer
--> FOAM Warning : 
    From void* Foam::dlLibraryTable::openLibrary(const Foam::fileName&, bool)
    in file db/dynamicLibrary/dlLibraryTable/dlLibraryTable.C at line 188
    Could not load "libpetscFoam.so"
libpetscFoam.so: cannot open shared object file: No such file or directory
Processor 40: field transfer
--> FOAM Warning : 
    From void* Foam::dlLibraryTable::openLibrary(const Foam::fileName&, bool)
    in file db/dynamicLibrary/dlLibraryTable/dlLibraryTable.C at line 188
    Could not load "libpetscFoam.so"
libpetscFoam.so: cannot open shared object file: No such file or directory
Processor 41: field transfer
--> FOAM Warning : 
    From void* Foam::dlLibraryTable::openLibrary(const Foam::fileName&, bool)
    in file db/dynamicLibrary/dlLibraryTable/dlLibraryTable.C at line 188
    Could not load "libpetscFoam.so"
libpetscFoam.so: cannot open shared object file: No such file or directory
Processor 42: field transfer
--> FOAM Warning : 
    From void* Foam::dlLibraryTable::openLibrary(const Foam::fileName&, bool)
    in file db/dynamicLibrary/dlLibraryTable/dlLibraryTable.C at line 188
    Could not load "libpetscFoam.so"
libpetscFoam.so: cannot open shared object file: No such file or directory
Processor 43: field transfer
--> FOAM Warning : 
    From void* Foam::dlLibraryTable::openLibrary(const Foam::fileName&, bool)
    in file db/dynamicLibrary/dlLibraryTable/dlLibraryTable.C at line 188
    Could not load "libpetscFoam.so"
libpetscFoam.so: cannot open shared object file: No such file or directory
Processor 44: field transfer
--> FOAM Warning : 
    From void* Foam::dlLibraryTable::openLibrary(const Foam::fileName&, bool)
    in file db/dynamicLibrary/dlLibraryTable/dlLibraryTable.C at line 188
    Could not load "libpetscFoam.so"
libpetscFoam.so: cannot open shared object file: No such file or directory
Processor 45: field transfer
--> FOAM Warning : 
    From void* Foam::dlLibraryTable::openLibrary(const Foam::fileName&, bool)
    in file db/dynamicLibrary/dlLibraryTable/dlLibraryTable.C at line 188
    Could not load "libpetscFoam.so"
libpetscFoam.so: cannot open shared object file: No such file or directory
Processor 46: field transfer
--> FOAM Warning : 
    From void* Foam::dlLibraryTable::openLibrary(const Foam::fileName&, bool)
    in file db/dynamicLibrary/dlLibraryTable/dlLibraryTable.C at line 188
    Could not load "libpetscFoam.so"
libpetscFoam.so: cannot open shared object file: No such file or directory
Processor 47: field transfer
--> FOAM Warning : 
    From void* Foam::dlLibraryTable::openLibrary(const Foam::fileName&, bool)
    in file db/dynamicLibrary/dlLibraryTable/dlLibraryTable.C at line 188
    Could not load "libpetscFoam.so"
libpetscFoam.so: cannot open shared object file: No such file or directory
Processor 48: field transfer
--> FOAM Warning : 
    From void* Foam::dlLibraryTable::openLibrary(const Foam::fileName&, bool)
    in file db/dynamicLibrary/dlLibraryTable/dlLibraryTable.C at line 188
    Could not load "libpetscFoam.so"
libpetscFoam.so: cannot open shared object file: No such file or directory
Processor 49: field transfer
--> FOAM Warning : 
    From void* Foam::dlLibraryTable::openLibrary(const Foam::fileName&, bool)
    in file db/dynamicLibrary/dlLibraryTable/dlLibraryTable.C at line 188
    Could not load "libpetscFoam.so"
libpetscFoam.so: cannot open shared object file: No such file or directory
Processor 50: field transfer
--> FOAM Warning : 
    From void* Foam::dlLibraryTable::openLibrary(const Foam::fileName&, bool)
    in file db/dynamicLibrary/dlLibraryTable/dlLibraryTable.C at line 188
    Could not load "libpetscFoam.so"
libpetscFoam.so: cannot open shared object file: No such file or directory
Processor 51: field transfer
--> FOAM Warning : 
    From void* Foam::dlLibraryTable::openLibrary(const Foam::fileName&, bool)
    in file db/dynamicLibrary/dlLibraryTable/dlLibraryTable.C at line 188
    Could not load "libpetscFoam.so"
libpetscFoam.so: cannot open shared object file: No such file or directory
Processor 52: field transfer
--> FOAM Warning : 
    From void* Foam::dlLibraryTable::openLibrary(const Foam::fileName&, bool)
    in file db/dynamicLibrary/dlLibraryTable/dlLibraryTable.C at line 188
    Could not load "libpetscFoam.so"
libpetscFoam.so: cannot open shared object file: No such file or directory
Processor 53: field transfer
--> FOAM Warning : 
    From void* Foam::dlLibraryTable::openLibrary(const Foam::fileName&, bool)
    in file db/dynamicLibrary/dlLibraryTable/dlLibraryTable.C at line 188
    Could not load "libpetscFoam.so"
libpetscFoam.so: cannot open shared object file: No such file or directory
Processor 54: field transfer
--> FOAM Warning : 
    From void* Foam::dlLibraryTable::openLibrary(const Foam::fileName&, bool)
    in file db/dynamicLibrary/dlLibraryTable/dlLibraryTable.C at line 188
    Could not load "libpetscFoam.so"
libpetscFoam.so: cannot open shared object file: No such file or directory
Processor 55: field transfer
--> FOAM Warning : 
    From void* Foam::dlLibraryTable::openLibrary(const Foam::fileName&, bool)
    in file db/dynamicLibrary/dlLibraryTable/dlLibraryTable.C at line 188
    Could not load "libpetscFoam.so"
libpetscFoam.so: cannot open shared object file: No such file or directory
Processor 56: field transfer
--> FOAM Warning : 
    From void* Foam::dlLibraryTable::openLibrary(const Foam::fileName&, bool)
    in file db/dynamicLibrary/dlLibraryTable/dlLibraryTable.C at line 188
    Could not load "libpetscFoam.so"
libpetscFoam.so: cannot open shared object file: No such file or directory
Processor 57: field transfer
--> FOAM Warning : 
    From void* Foam::dlLibraryTable::openLibrary(const Foam::fileName&, bool)
    in file db/dynamicLibrary/dlLibraryTable/dlLibraryTable.C at line 188
    Could not load "libpetscFoam.so"
libpetscFoam.so: cannot open shared object file: No such file or directory
Processor 58: field transfer
--> FOAM Warning : 
    From void* Foam::dlLibraryTable::openLibrary(const Foam::fileName&, bool)
    in file db/dynamicLibrary/dlLibraryTable/dlLibraryTable.C at line 188
    Could not load "libpetscFoam.so"
libpetscFoam.so: cannot open shared object file: No such file or directory
Processor 59: field transfer
--> FOAM Warning : 
    From void* Foam::dlLibraryTable::openLibrary(const Foam::fileName&, bool)
    in file db/dynamicLibrary/dlLibraryTable/dlLibraryTable.C at line 188
    Could not load "libpetscFoam.so"
libpetscFoam.so: cannot open shared object file: No such file or directory
Processor 60: field transfer
--> FOAM Warning : 
    From void* Foam::dlLibraryTable::openLibrary(const Foam::fileName&, bool)
    in file db/dynamicLibrary/dlLibraryTable/dlLibraryTable.C at line 188
    Could not load "libpetscFoam.so"
libpetscFoam.so: cannot open shared object file: No such file or directory
Processor 61: field transfer
--> FOAM Warning : 
    From void* Foam::dlLibraryTable::openLibrary(const Foam::fileName&, bool)
    in file db/dynamicLibrary/dlLibraryTable/dlLibraryTable.C at line 188
    Could not load "libpetscFoam.so"
libpetscFoam.so: cannot open shared object file: No such file or directory
Processor 62: field transfer
--> FOAM Warning : 
    From void* Foam::dlLibraryTable::openLibrary(const Foam::fileName&, bool)
    in file db/dynamicLibrary/dlLibraryTable/dlLibraryTable.C at line 188
    Could not load "libpetscFoam.so"
libpetscFoam.so: cannot open shared object file: No such file or directory
Processor 63: field transfer
--> FOAM Warning : 
    From void* Foam::dlLibraryTable::openLibrary(const Foam::fileName&, bool)
    in file db/dynamicLibrary/dlLibraryTable/dlLibraryTable.C at line 188
    Could not load "libpetscFoam.so"
libpetscFoam.so: cannot open shared object file: No such file or directory
Processor 64: field transfer
--> FOAM Warning : 
    From void* Foam::dlLibraryTable::openLibrary(const Foam::fileName&, bool)
    in file db/dynamicLibrary/dlLibraryTable/dlLibraryTable.C at line 188
    Could not load "libpetscFoam.so"
libpetscFoam.so: cannot open shared object file: No such file or directory
Processor 65: field transfer
--> FOAM Warning : 
    From void* Foam::dlLibraryTable::openLibrary(const Foam::fileName&, bool)
    in file db/dynamicLibrary/dlLibraryTable/dlLibraryTable.C at line 188
    Could not load "libpetscFoam.so"
libpetscFoam.so: cannot open shared object file: No such file or directory
Processor 66: field transfer
--> FOAM Warning : 
    From void* Foam::dlLibraryTable::openLibrary(const Foam::fileName&, bool)
    in file db/dynamicLibrary/dlLibraryTable/dlLibraryTable.C at line 188
    Could not load "libpetscFoam.so"
libpetscFoam.so: cannot open shared object file: No such file or directory
Processor 67: field transfer
--> FOAM Warning : 
    From void* Foam::dlLibraryTable::openLibrary(const Foam::fileName&, bool)
    in file db/dynamicLibrary/dlLibraryTable/dlLibraryTable.C at line 188
    Could not load "libpetscFoam.so"
libpetscFoam.so: cannot open shared object file: No such file or directory
Processor 68: field transfer
--> FOAM Warning : 
    From void* Foam::dlLibraryTable::openLibrary(const Foam::fileName&, bool)
    in file db/dynamicLibrary/dlLibraryTable/dlLibraryTable.C at line 188
    Could not load "libpetscFoam.so"
libpetscFoam.so: cannot open shared object file: No such file or directory
Processor 69: field transfer
--> FOAM Warning : 
    From void* Foam::dlLibraryTable::openLibrary(const Foam::fileName&, bool)
    in file db/dynamicLibrary/dlLibraryTable/dlLibraryTable.C at line 188
    Could not load "libpetscFoam.so"
libpetscFoam.so: cannot open shared object file: No such file or directory
Processor 70: field transfer
--> FOAM Warning : 
    From void* Foam::dlLibraryTable::openLibrary(const Foam::fileName&, bool)
    in file db/dynamicLibrary/dlLibraryTable/dlLibraryTable.C at line 188
    Could not load "libpetscFoam.so"
libpetscFoam.so: cannot open shared object file: No such file or directory
Processor 71: field transfer
--> FOAM Warning : 
    From void* Foam::dlLibraryTable::openLibrary(const Foam::fileName&, bool)
    in file db/dynamicLibrary/dlLibraryTable/dlLibraryTable.C at line 188
    Could not load "libpetscFoam.so"
libpetscFoam.so: cannot open shared object file: No such file or directory

End

