/*---------------------------------------------------------------------------*\
| =========                 |                                                 |
| \\      /  F ield         | OpenFOAM: The Open Source CFD Toolbox           |
|  \\    /   O peration     | Version:  2312                                  |
|   \\  /    A nd           | Website:  www.openfoam.com                      |
|    \\/     M anipulation  |                                                 |
\*---------------------------------------------------------------------------*/
Build  : a46b310f-20240104 OPENFOAM=2312 version=v2312
Arch   : "LSB;label=32;scalar=64"
Exec   : icoFoam -parallel -case /hppfs/scratch/0B/di35yan/lidDriven3D/workspace/13dfb8ad4932b2a0ffcebe04fd83af05/case
Date   : Feb 17 2024
Time   : 09:41:18
Host   : i20r05c01s02
PID    : 147379
I/O    : uncollated
Case   : /hppfs/scratch/0B/di35yan/lidDriven3D/workspace/13dfb8ad4932b2a0ffcebe04fd83af05/case
nProcs : 224
Hosts  :
(
    (i20r05c01s02 112)
    (i20r05c01s04 112)
)
Pstream initialized with:
    floatTransfer      : false
    nProcsSimpleSum    : 0
    nonBlockingExchange: 0 (tuning: 0)
    exchange algorithm : 0
    commsType          : nonBlocking
    polling iterations : 0
trapFpe: Floating point exception trapping enabled (FOAM_SIGFPE).
fileModificationChecking : Monitoring run-time modified files using timeStampMaster (fileModificationSkew 5, maxFileModificationPolls 20)
allowSystemOperations : Allowing user-supplied system call operations

// * * * * * * * * * * * * * * * * * * * * * * * * * * * * * * * * * * * * * //
Create time

--> FOAM Warning : 
    From void* Foam::dlLibraryTable::openLibrary(const Foam::fileName&, bool)
    in file db/dynamicLibrary/dlLibraryTable/dlLibraryTable.C at line 188
    Could not load "libpetscFoam.so"
libpetscFoam.so: cannot open shared object file: No such file or directory
Create mesh for time = 0


PISO: Operating solver in PISO mode

Reading transportProperties

Reading field p

Reading field U

Reading/calculating face flux field phi


Starting time loop

Time = 0.00025

Courant Number mean: 8.24341e-18 max: 2.08167e-14
DILUPBiCGStab:  Solving for Ux, Initial residual = 1, Final residual = 0.014244, No Iterations 5
DILUPBiCGStab:  Solving for Uy:  solution singularity
DILUPBiCGStab:  Solving for Uz:  solution singularity
DICPCG:  Solving for p, Initial residual = 1, Final residual = 9.94498e-05, No Iterations 661
time step continuity errors : sum local = 7.96804e-09, global = 2.75899e-21, cumulative = 2.75899e-21
DICPCG:  Solving for p, Initial residual = 0.769206, Final residual = 9.93411e-05, No Iterations 660
time step continuity errors : sum local = 9.98551e-09, global = 3.15996e-22, cumulative = 3.07499e-21
ExecutionTime = 12.75 s  ClockTime = 18 s

Time = 0.0005

Courant Number mean: 0.0156777 max: 0.411861
DILUPBiCGStab:  Solving for Ux, Initial residual = 0.129485, Final residual = 0.00819063, No Iterations 5
DILUPBiCGStab:  Solving for Uy, Initial residual = 0.428878, Final residual = 0.0199076, No Iterations 5
DILUPBiCGStab:  Solving for Uz, Initial residual = 0.981463, Final residual = 0.0506567, No Iterations 5
DICPCG:  Solving for p, Initial residual = 0.834694, Final residual = 9.30682e-05, No Iterations 657
time step continuity errors : sum local = 1.44998e-08, global = -5.92339e-23, cumulative = 3.01575e-21
DICPCG:  Solving for p, Initial residual = 0.753542, Final residual = 9.82846e-05, No Iterations 655
time step continuity errors : sum local = 1.56892e-08, global = 1.28381e-22, cumulative = 3.14413e-21
ExecutionTime = 14.35 s  ClockTime = 19 s

Time = 0.00075

Courant Number mean: 0.0240254 max: 0.47134
DILUPBiCGStab:  Solving for Ux, Initial residual = 0.0548682, Final residual = 0.00293918, No Iterations 5
DILUPBiCGStab:  Solving for Uy, Initial residual = 0.182817, Final residual = 0.0105846, No Iterations 5
DILUPBiCGStab:  Solving for Uz, Initial residual = 0.801862, Final residual = 0.0364441, No Iterations 5
DICPCG:  Solving for p, Initial residual = 0.854396, Final residual = 9.4792e-05, No Iterations 309
time step continuity errors : sum local = 1.46123e-08, global = -3.22693e-21, cumulative = -8.28021e-23
DICPCG:  Solving for p, Initial residual = 0.801198, Final residual = 9.55363e-05, No Iterations 308
time step continuity errors : sum local = 1.34772e-08, global = -8.65409e-22, cumulative = -9.48211e-22
ExecutionTime = 15.15 s  ClockTime = 20 s

Time = 0.001

Courant Number mean: 0.0288768 max: 0.467214
DILUPBiCGStab:  Solving for Ux, Initial residual = 0.0348902, Final residual = 0.00190985, No Iterations 5
DILUPBiCGStab:  Solving for Uy, Initial residual = 0.12914, Final residual = 0.00692795, No Iterations 5
DILUPBiCGStab:  Solving for Uz, Initial residual = 0.610187, Final residual = 0.0244488, No Iterations 5
DICPCG:  Solving for p, Initial residual = 0.782029, Final residual = 9.85833e-05, No Iterations 309
time step continuity errors : sum local = 1.43302e-08, global = -3.69812e-21, cumulative = -4.64633e-21
DICPCG:  Solving for p, Initial residual = 0.703221, Final residual = 9.58883e-05, No Iterations 307
time step continuity errors : sum local = 1.29877e-08, global = -2.1127e-21, cumulative = -6.75903e-21
ExecutionTime = 15.91 s  ClockTime = 21 s

Time = 0.00125

Courant Number mean: 0.0330005 max: 0.472351
DILUPBiCGStab:  Solving for Ux, Initial residual = 0.027395, Final residual = 0.00140806, No Iterations 5
DILUPBiCGStab:  Solving for Uy, Initial residual = 0.0822733, Final residual = 0.00526023, No Iterations 5
DILUPBiCGStab:  Solving for Uz, Initial residual = 0.468454, Final residual = 0.0196925, No Iterations 5
DICPCG:  Solving for p, Initial residual = 0.786131, Final residual = 9.813e-05, No Iterations 648
time step continuity errors : sum local = 1.04422e-08, global = -5.00201e-21, cumulative = -1.1761e-20
DICPCG:  Solving for p, Initial residual = 0.721785, Final residual = 9.61884e-05, No Iterations 648
time step continuity errors : sum local = 1.00648e-08, global = -1.15021e-21, cumulative = -1.29112e-20
ExecutionTime = 17.34 s  ClockTime = 22 s

Time = 0.0015

Courant Number mean: 0.0362903 max: 0.475163
DILUPBiCGStab:  Solving for Ux, Initial residual = 0.0207501, Final residual = 0.000998072, No Iterations 5
DILUPBiCGStab:  Solving for Uy, Initial residual = 0.0666535, Final residual = 0.00360451, No Iterations 5
DILUPBiCGStab:  Solving for Uz, Initial residual = 0.339748, Final residual = 0.0135921, No Iterations 5
DICPCG:  Solving for p, Initial residual = 0.698659, Final residual = 9.78534e-05, No Iterations 642
time step continuity errors : sum local = 9.62244e-09, global = -5.80851e-21, cumulative = -1.87198e-20
DICPCG:  Solving for p, Initial residual = 0.62792, Final residual = 9.61276e-05, No Iterations 641
time step continuity errors : sum local = 9.46825e-09, global = -2.91145e-21, cumulative = -2.16312e-20
ExecutionTime = 18.8 s  ClockTime = 24 s

Time = 0.00175

Courant Number mean: 0.0392007 max: 0.47731
DILUPBiCGStab:  Solving for Ux, Initial residual = 0.017728, Final residual = 0.00079567, No Iterations 5
DILUPBiCGStab:  Solving for Uy, Initial residual = 0.0500913, Final residual = 0.00277384, No Iterations 5
DILUPBiCGStab:  Solving for Uz, Initial residual = 0.263392, Final residual = 0.012108, No Iterations 5
DICPCG:  Solving for p, Initial residual = 0.693223, Final residual = 9.87445e-05, No Iterations 603
time step continuity errors : sum local = 8.03068e-09, global = -8.07561e-21, cumulative = -2.97068e-20
DICPCG:  Solving for p, Initial residual = 0.626338, Final residual = 9.74581e-05, No Iterations 602
time step continuity errors : sum local = 7.86126e-09, global = -8.37339e-21, cumulative = -3.80802e-20
ExecutionTime = 20.15 s  ClockTime = 25 s

Time = 0.002

Courant Number mean: 0.0417258 max: 0.47891
DILUPBiCGStab:  Solving for Ux, Initial residual = 0.0145957, Final residual = 0.000611378, No Iterations 5
DILUPBiCGStab:  Solving for Uy, Initial residual = 0.0425965, Final residual = 0.00211806, No Iterations 5
DILUPBiCGStab:  Solving for Uz, Initial residual = 0.204358, Final residual = 0.00936962, No Iterations 5
DICPCG:  Solving for p, Initial residual = 0.604579, Final residual = 9.76605e-05, No Iterations 298
time step continuity errors : sum local = 8.71541e-09, global = -5.16192e-21, cumulative = -4.32421e-20
DICPCG:  Solving for p, Initial residual = 0.542113, Final residual = 9.4995e-05, No Iterations 289
time step continuity errors : sum local = 7.73753e-09, global = -5.2845e-21, cumulative = -4.85266e-20
ExecutionTime = 20.87 s  ClockTime = 26 s

Time = 0.00225

Courant Number mean: 0.0440143 max: 0.480186
DILUPBiCGStab:  Solving for Ux, Initial residual = 0.0128559, Final residual = 0.000498992, No Iterations 5
DILUPBiCGStab:  Solving for Uy, Initial residual = 0.0346166, Final residual = 0.0015922, No Iterations 5
DILUPBiCGStab:  Solving for Uz, Initial residual = 0.17253, Final residual = 0.00923599, No Iterations 5
DICPCG:  Solving for p, Initial residual = 0.590306, Final residual = 9.98617e-05, No Iterations 620
time step continuity errors : sum local = 6.61232e-09, global = -1.08147e-20, cumulative = -5.93413e-20
DICPCG:  Solving for p, Initial residual = 0.527222, Final residual = 9.98224e-05, No Iterations 619
time step continuity errors : sum local = 6.59207e-09, global = -4.48042e-21, cumulative = -6.38217e-20
ExecutionTime = 22.28 s  ClockTime = 27 s

Time = 0.0025

Courant Number mean: 0.0460746 max: 0.481229
DILUPBiCGStab:  Solving for Ux, Initial residual = 0.0110875, Final residual = 0.000403973, No Iterations 5
DILUPBiCGStab:  Solving for Uy, Initial residual = 0.0303131, Final residual = 0.0012822, No Iterations 5
DILUPBiCGStab:  Solving for Uz, Initial residual = 0.137593, Final residual = 0.00710927, No Iterations 5
DICPCG:  Solving for p, Initial residual = 0.514803, Final residual = 9.49271e-05, No Iterations 620
time step continuity errors : sum local = 6.10695e-09, global = -9.32205e-21, cumulative = -7.31437e-20
DICPCG:  Solving for p, Initial residual = 0.460014, Final residual = 9.67005e-05, No Iterations 619
time step continuity errors : sum local = 6.19375e-09, global = -1.03322e-20, cumulative = -8.34759e-20
ExecutionTime = 23.71 s  ClockTime = 29 s

Time = 0.00275

Courant Number mean: 0.0479709 max: 0.482091
DILUPBiCGStab:  Solving for Ux, Initial residual = 0.00992728, Final residual = 0.00033674, No Iterations 5
DILUPBiCGStab:  Solving for Uy, Initial residual = 0.0258159, Final residual = 0.000967652, No Iterations 5
DILUPBiCGStab:  Solving for Uz, Initial residual = 0.11898, Final residual = 0.0069637, No Iterations 5
DICPCG:  Solving for p, Initial residual = 0.489974, Final residual = 9.50948e-05, No Iterations 620
time step continuity errors : sum local = 5.48285e-09, global = -1.19037e-20, cumulative = -9.53796e-20
DICPCG:  Solving for p, Initial residual = 0.435715, Final residual = 9.69009e-05, No Iterations 619
time step continuity errors : sum local = 5.58266e-09, global = -6.11195e-21, cumulative = -1.01492e-19
ExecutionTime = 25.25 s  ClockTime = 30 s

Time = 0.003

Courant Number mean: 0.0497126 max: 0.482838
DILUPBiCGStab:  Solving for Ux, Initial residual = 0.00882901, Final residual = 0.000284274, No Iterations 5
DILUPBiCGStab:  Solving for Uy, Initial residual = 0.0230247, Final residual = 0.000792594, No Iterations 5
DILUPBiCGStab:  Solving for Uz, Initial residual = 0.0973259, Final residual = 0.00566502, No Iterations 5
DICPCG:  Solving for p, Initial residual = 0.434038, Final residual = 9.47677e-05, No Iterations 613
time step continuity errors : sum local = 5.31909e-09, global = -9.78381e-21, cumulative = -1.11275e-19
DICPCG:  Solving for p, Initial residual = 0.38784, Final residual = 9.7806e-05, No Iterations 302
time step continuity errors : sum local = 6.43278e-09, global = -1.141e-20, cumulative = -1.22685e-19
ExecutionTime = 26.31 s  ClockTime = 31 s

Time = 0.00325

Courant Number mean: 0.0513317 max: 0.483469
DILUPBiCGStab:  Solving for Ux, Initial residual = 0.00803914, Final residual = 0.00024254, No Iterations 5
DILUPBiCGStab:  Solving for Uy, Initial residual = 0.0202038, Final residual = 0.000620645, No Iterations 5
DILUPBiCGStab:  Solving for Uz, Initial residual = 0.0897886, Final residual = 0.00584188, No Iterations 5
DICPCG:  Solving for p, Initial residual = 0.403517, Final residual = 9.84719e-05, No Iterations 587
time step continuity errors : sum local = 5.14948e-09, global = -1.10948e-20, cumulative = -1.3378e-19
DICPCG:  Solving for p, Initial residual = 0.358698, Final residual = 9.90112e-05, No Iterations 588
time step continuity errors : sum local = 5.17872e-09, global = -1.35555e-20, cumulative = -1.47336e-19
ExecutionTime = 27.63 s  ClockTime = 33 s

Time = 0.0035

Courant Number mean: 0.0528375 max: 0.484032
DILUPBiCGStab:  Solving for Ux, Initial residual = 0.00727947, Final residual = 0.000209718, No Iterations 5
DILUPBiCGStab:  Solving for Uy, Initial residual = 0.0183869, Final residual = 0.000509551, No Iterations 5
DILUPBiCGStab:  Solving for Uz, Initial residual = 0.0770147, Final residual = 0.00488039, No Iterations 5
DICPCG:  Solving for p, Initial residual = 0.363868, Final residual = 9.75094e-05, No Iterations 615
time step continuity errors : sum local = 4.94747e-09, global = -1.039e-20, cumulative = -1.57726e-19
DICPCG:  Solving for p, Initial residual = 0.325242, Final residual = 9.58944e-05, No Iterations 615
time step continuity errors : sum local = 4.85031e-09, global = -1.02525e-20, cumulative = -1.67978e-19
ExecutionTime = 29.01 s  ClockTime = 34 s

Time = 0.00375

Courant Number mean: 0.0542495 max: 0.48452
DILUPBiCGStab:  Solving for Ux, Initial residual = 0.00667191, Final residual = 0.000180865, No Iterations 5
DILUPBiCGStab:  Solving for Uy, Initial residual = 0.0164731, Final residual = 0.000420499, No Iterations 5
DILUPBiCGStab:  Solving for Uz, Initial residual = 0.0666578, Final residual = 0.00440301, No Iterations 5
DICPCG:  Solving for p, Initial residual = 0.332417, Final residual = 9.96916e-05, No Iterations 612
time step continuity errors : sum local = 4.84765e-09, global = -9.48313e-21, cumulative = -1.77461e-19
DICPCG:  Solving for p, Initial residual = 0.295882, Final residual = 9.48318e-05, No Iterations 612
time step continuity errors : sum local = 4.61216e-09, global = -1.09255e-20, cumulative = -1.88387e-19
ExecutionTime = 30.38 s  ClockTime = 35 s

Time = 0.004

Courant Number mean: 0.0555726 max: 0.484962
DILUPBiCGStab:  Solving for Ux, Initial residual = 0.00614071, Final residual = 0.000159413, No Iterations 5
DILUPBiCGStab:  Solving for Uy, Initial residual = 0.0150892, Final residual = 0.000345466, No Iterations 5
DILUPBiCGStab:  Solving for Uz, Initial residual = 0.057948, Final residual = 0.00385237, No Iterations 5
DICPCG:  Solving for p, Initial residual = 0.303718, Final residual = 9.93362e-05, No Iterations 610
time step continuity errors : sum local = 4.66565e-09, global = -1.77638e-20, cumulative = -2.06151e-19
DICPCG:  Solving for p, Initial residual = 0.271646, Final residual = 9.41176e-05, No Iterations 610
time step continuity errors : sum local = 4.40998e-09, global = -1.07797e-20, cumulative = -2.1693e-19
ExecutionTime = 31.95 s  ClockTime = 37 s

Time = 0.00425

Courant Number mean: 0.0568216 max: 0.485353
DILUPBiCGStab:  Solving for Ux, Initial residual = 0.00567293, Final residual = 0.000138737, No Iterations 5
DILUPBiCGStab:  Solving for Uy, Initial residual = 0.0137611, Final residual = 0.000301008, No Iterations 5
DILUPBiCGStab:  Solving for Uz, Initial residual = 0.0514844, Final residual = 0.00350427, No Iterations 5
DICPCG:  Solving for p, Initial residual = 0.274367, Final residual = 9.85483e-05, No Iterations 610
time step continuity errors : sum local = 4.52118e-09, global = -1.3606e-20, cumulative = -2.30536e-19
DICPCG:  Solving for p, Initial residual = 0.244746, Final residual = 9.37017e-05, No Iterations 610
time step continuity errors : sum local = 4.29902e-09, global = -1.35278e-20, cumulative = -2.44064e-19
ExecutionTime = 33.34 s  ClockTime = 38 s

Time = 0.0045

Courant Number mean: 0.0579997 max: 0.485708
DILUPBiCGStab:  Solving for Ux, Initial residual = 0.00527811, Final residual = 0.000123751, No Iterations 5
DILUPBiCGStab:  Solving for Uy, Initial residual = 0.01273, Final residual = 0.000250184, No Iterations 5
DILUPBiCGStab:  Solving for Uz, Initial residual = 0.0458079, Final residual = 0.00312718, No Iterations 5
DICPCG:  Solving for p, Initial residual = 0.252703, Final residual = 9.87792e-05, No Iterations 607
time step continuity errors : sum local = 4.37437e-09, global = -1.62909e-20, cumulative = -2.60355e-19
DICPCG:  Solving for p, Initial residual = 0.226331, Final residual = 9.39257e-05, No Iterations 607
time step continuity errors : sum local = 4.15232e-09, global = -1.34835e-20, cumulative = -2.73839e-19
ExecutionTime = 34.71 s  ClockTime = 40 s

Time = 0.00475

Courant Number mean: 0.0591172 max: 0.486033
DILUPBiCGStab:  Solving for Ux, Initial residual = 0.0049101, Final residual = 0.000108621, No Iterations 5
DILUPBiCGStab:  Solving for Uy, Initial residual = 0.0117445, Final residual = 0.000228522, No Iterations 5
DILUPBiCGStab:  Solving for Uz, Initial residual = 0.0411634, Final residual = 0.00281529, No Iterations 5
DICPCG:  Solving for p, Initial residual = 0.226945, Final residual = 9.91826e-05, No Iterations 271
time step continuity errors : sum local = 5.20644e-09, global = -1.26642e-20, cumulative = -2.86503e-19
DICPCG:  Solving for p, Initial residual = 0.202945, Final residual = 9.81159e-05, No Iterations 263
time step continuity errors : sum local = 4.58949e-09, global = -1.5058e-20, cumulative = -3.01561e-19
ExecutionTime = 35.39 s  ClockTime = 40 s

Time = 0.005

Courant Number mean: 0.0601763 max: 0.486326
DILUPBiCGStab:  Solving for Ux, Initial residual = 0.0045973, Final residual = 9.78172e-05, No Iterations 5
DILUPBiCGStab:  Solving for Uy, Initial residual = 0.0109947, Final residual = 0.0001945, No Iterations 5
DILUPBiCGStab:  Solving for Uz, Initial residual = 0.0385529, Final residual = 0.00264016, No Iterations 5
DICPCG:  Solving for p, Initial residual = 0.209963, Final residual = 9.77661e-05, No Iterations 558
time step continuity errors : sum local = 4.13902e-09, global = -1.3371e-20, cumulative = -3.14932e-19
DICPCG:  Solving for p, Initial residual = 0.188205, Final residual = 9.85251e-05, No Iterations 554
time step continuity errors : sum local = 4.16677e-09, global = -1.41993e-20, cumulative = -3.29131e-19
ExecutionTime = 36.69 s  ClockTime = 42 s

End

Finalising parallel run
