/*---------------------------------------------------------------------------*\
| =========                 |                                                 |
| \\      /  F ield         | OpenFOAM: The Open Source CFD Toolbox           |
|  \\    /   O peration     | Version:  2306                                  |
|   \\  /    A nd           | Website:  www.openfoam.com                      |
|    \\/     M anipulation  |                                                 |
\*---------------------------------------------------------------------------*/
Build  : a6e826bd55-20230630 OPENFOAM=2306 version=v2306
Arch   : "LSB;label=32;scalar=64"
Exec   : simpleFoam -parallel -case /home/greole/data/code/exasim_project/micro_benchmarks/WindsorBody/workspace/9c141231e00163313a08e10fdd1c75f2/case
Date   : Aug 02 2023
Time   : 13:05:26
Host   : nla-gpu2.ianm.kit.edu
PID    : 80233
I/O    : uncollated
Case   : /home/greole/data/code/exasim_project/micro_benchmarks/WindsorBody/workspace/9c141231e00163313a08e10fdd1c75f2/case
nProcs : 16
Hosts  :
(
    (nla-gpu2.ianm.kit.edu 16)
)
Pstream initialized with:
    floatTransfer      : false
    nProcsSimpleSum    : 0
    nonBlockingExchange: 0 (tuning: 0)
    exchange algorithm : -1
    commsType          : nonBlocking
    polling iterations : 0
trapFpe: Floating point exception trapping enabled (FOAM_SIGFPE).
fileModificationChecking : Monitoring run-time modified files using timeStampMaster (fileModificationSkew 5, maxFileModificationPolls 20)
allowSystemOperations : Allowing user-supplied system call operations

// * * * * * * * * * * * * * * * * * * * * * * * * * * * * * * * * * * * * * //
Create time

--> FOAM Warning : 
    From void* Foam::dlLibraryTable::openLibrary(const Foam::fileName&, bool)
    in file db/dynamicLibrary/dlLibraryTable/dlLibraryTable.C at line 188
    Could not load "libpetscFoam.so"
libpetscFoam.so: cannot open shared object file: No such file or directory
Create mesh for time = 0


SIMPLE: convergence criteria
    field p	 tolerance 1e-08
    field U	 tolerance 1e-08
    field k	 tolerance 1e-08
    field omega	 tolerance 1e-08
    field nuTilda	 tolerance 1e-08

Reading field p

Reading field U

Reading/calculating face flux field phi

Selecting incompressible transport model Newtonian
Selecting turbulence model type RAS
Selecting RAS turbulence model SpalartAllmaras
Selecting patchDistMethod meshWave
ft2 term: inactive
RAS
{
    RASModel        SpalartAllmaras;
    turbulence      on;
    printCoeffs     on;
    sigmaNut        0.66666;
    kappa           0.41;
    Cb1             0.1355;
    Cb2             0.622;
    Cw2             0.3;
    Cw3             2;
    Cv1             7.1;
    Cs              0.3;
    ck              0.07000000000000001;
    ft2             false;
    Ct3             1.2;
    Ct4             0.5;
}

No MRF models present

Creating finite volume options from "system/fvOptions"

Selecting finite volume options type velocityDampingConstraint
    Source: velocityDamping
    - selecting all cells
    - selected 18921408 cell(s) with volume 83.47749154808595

Starting time loop

--> FOAM Warning : 
    From bool Foam::functionObjectList::read()
    in file db/functionObjects/functionObjectList/functionObjectList.C at line 1035
    Reading "system/controlDict" at line 2 to 41
    Entry 'lref' is not a dictionary
--> FOAM Warning : 
    From bool Foam::functionObjectList::read()
    in file db/functionObjects/functionObjectList/functionObjectList.C at line 1035
    Reading "system/controlDict" at line 2 to 41
    Entry 'Aref' is not a dictionary
--> FOAM Warning : 
    From bool Foam::functionObjectList::read()
    in file db/functionObjects/functionObjectList/functionObjectList.C at line 1035
    Reading "system/controlDict" at line 2 to 41
    Entry 'yawAngle' is not a dictionary
--> FOAM Warning : 
    From bool Foam::functionObjectList::read()
    in file db/functionObjects/functionObjectList/functionObjectList.C at line 1035
    Reading "system/controlDict" at line 2 to 41
    Entry 'lDomain' is not a dictionary
--> FOAM Warning : 
    From bool Foam::functionObjectList::read()
    in file db/functionObjects/functionObjectList/functionObjectList.C at line 1035
    Reading "system/controlDict" at line 2 to 41
    Entry 'bDomain' is not a dictionary
--> FOAM Warning : 
    From bool Foam::functionObjectList::read()
    in file db/functionObjects/functionObjectList/functionObjectList.C at line 1035
    Reading "system/controlDict" at line 2 to 41
    Entry 'hDomain' is not a dictionary
--> FOAM Warning : 
    From bool Foam::functionObjectList::read()
    in file db/functionObjects/functionObjectList/functionObjectList.C at line 1035
    Reading "system/controlDict" at line 2 to 41
    Entry 'xCenter' is not a dictionary
--> FOAM Warning : 
    From bool Foam::functionObjectList::read()
    in file db/functionObjects/functionObjectList/functionObjectList.C at line 1035
    Reading "system/controlDict" at line 2 to 41
    Entry 'yCenter' is not a dictionary
--> FOAM Warning : 
    From bool Foam::functionObjectList::read()
    in file db/functionObjects/functionObjectList/functionObjectList.C at line 1035
    Reading "system/controlDict" at line 2 to 41
    Entry 'zCenter' is not a dictionary
--> FOAM Warning : 
    From bool Foam::functionObjectList::read()
    in file db/functionObjects/functionObjectList/functionObjectList.C at line 1035
    Reading "system/controlDict" at line 2 to 41
    Entry 'inletPatch' is not a dictionary
--> FOAM Warning : 
    From bool Foam::functionObjectList::read()
    in file db/functionObjects/functionObjectList/functionObjectList.C at line 1035
    Reading "system/controlDict" at line 2 to 41
    Entry 'outletPatch' is not a dictionary
--> FOAM Warning : 
    From bool Foam::functionObjectList::read()
    in file db/functionObjects/functionObjectList/functionObjectList.C at line 1035
    Reading "system/controlDict" at line 2 to 41
    Entry 'wallPatches' is not a dictionary
--> FOAM Warning : 
    From bool Foam::functionObjectList::read()
    in file db/functionObjects/functionObjectList/functionObjectList.C at line 1035
    Reading "system/controlDict" at line 2 to 41
    Entry 'forcesWallPatches' is not a dictionary
--> FOAM Warning : 
    From bool Foam::functionObjectList::read()
    in file db/functionObjects/functionObjectList/functionObjectList.C at line 1035
    Reading "system/controlDict" at line 2 to 41
    Entry 'symmPatches' is not a dictionary
--> FOAM Warning : 
    From bool Foam::functionObjectList::read()
    in file db/functionObjects/functionObjectList/functionObjectList.C at line 1035
    Reading "system/controlDict" at line 2 to 41
    Entry 'Uinf' is not a dictionary
--> FOAM Warning : 
    From bool Foam::functionObjectList::read()
    in file db/functionObjects/functionObjectList/functionObjectList.C at line 1035
    Reading "system/controlDict" at line 2 to 41
    Entry 'UinfMag' is not a dictionary
--> FOAM Warning : 
    From bool Foam::functionObjectList::read()
    in file db/functionObjects/functionObjectList/functionObjectList.C at line 1035
    Reading "system/controlDict" at line 2 to 41
    Entry 'nu' is not a dictionary
--> FOAM Warning : 
    From bool Foam::functionObjectList::read()
    in file db/functionObjects/functionObjectList/functionObjectList.C at line 1035
    Reading "system/controlDict" at line 2 to 41
    Entry 'pref' is not a dictionary
--> FOAM Warning : 
    From bool Foam::functionObjectList::read()
    in file db/functionObjects/functionObjectList/functionObjectList.C at line 1035
    Reading "system/controlDict" at line 2 to 41
    Entry 'viscRatio' is not a dictionary
--> FOAM Warning : 
    From bool Foam::functionObjectList::read()
    in file db/functionObjects/functionObjectList/functionObjectList.C at line 1035
    Reading "system/controlDict" at line 2 to 41
    Entry 'Tu' is not a dictionary
--> FOAM Warning : 
    From bool Foam::functionObjectList::read()
    in file db/functionObjects/functionObjectList/functionObjectList.C at line 1035
    Reading "system/controlDict" at line 2 to 41
    Entry 'LESturbModel' is not a dictionary
--> FOAM Warning : 
    From bool Foam::functionObjectList::read()
    in file db/functionObjects/functionObjectList/functionObjectList.C at line 1035
    Reading "system/controlDict" at line 2 to 41
    Entry 'RASturbModel' is not a dictionary
--> FOAM Warning : 
    From bool Foam::functionObjectList::read()
    in file db/functionObjects/functionObjectList/functionObjectList.C at line 1035
    Reading "system/controlDict" at line 2 to 41
    Entry 'deltaTurb' is not a dictionary
--> FOAM Warning : 
    From bool Foam::functionObjectList::read()
    in file db/functionObjects/functionObjectList/functionObjectList.C at line 1035
    Reading "system/controlDict" at line 2 to 41
    Entry 'dt' is not a dictionary
--> FOAM Warning : 
    From bool Foam::functionObjectList::read()
    in file db/functionObjects/functionObjectList/functionObjectList.C at line 1035
    Reading "system/controlDict" at line 2 to 41
    Entry 'tAvg' is not a dictionary
--> FOAM Warning : 
    From bool Foam::functionObjectList::read()
    in file db/functionObjects/functionObjectList/functionObjectList.C at line 1035
    Reading "system/controlDict" at line 2 to 41
    Entry 'tEnd' is not a dictionary
--> FOAM Warning : 
    From bool Foam::functionObjectList::read()
    in file db/functionObjects/functionObjectList/functionObjectList.C at line 1035
    Reading "system/controlDict" at line 2 to 41
    Entry 'writeInterval_' is not a dictionary
--> FOAM Warning : 
    From bool Foam::functionObjectList::read()
    in file db/functionObjects/functionObjectList/functionObjectList.C at line 1035
    Reading "system/controlDict" at line 2 to 41
    Entry 'nCores' is not a dictionary
--> FOAM Warning : 
    From bool Foam::functionObjectList::read()
    in file db/functionObjects/functionObjectList/functionObjectList.C at line 1035
    Reading "system/controlDict" at line 2 to 41
    Entry 'interpScheme' is not a dictionary
--> FOAM Warning : 
    From bool Foam::functionObjectList::read()
    in file db/functionObjects/functionObjectList/functionObjectList.C at line 1035
    Reading "system/controlDict" at line 2 to 41
    Entry 'probeField' is not a dictionary
wallShearStress wallShearStress:
    processing wall patches: 
        Windsor_Body
        CFDWT_Floor
        Windsor_Pins
        Windsor_Base
        Windsor_Body_2
        CFDWT_Floor_2
        Windsor_Pins_2
        Windsor_Base_2
        Windsor_Body_3
        CFDWT_Floor_3
        Windsor_Pins_3
        Windsor_Base_3

pressure calc_cp:
    Operating mode: staticCoeff
    Not including hydrostatic effects

forceCoeffs forceCoeffsAll:
    rho: rhoInf
    Freestream density (rhoInf) set to 1
    Not including porosity effects
    magUInf: 40
    lRef   : 0.6375
    Aref   : 0.1124
    rhoInf : 1
    Selecting all coefficients
    - Drag force: Cd
    - Drag force front: Cd(f)
    - Drag force rear: Cd(r)
    - Lift force: Cl
    - Lift force front: Cl(f)
    - Lift force rear: Cl(r)
    - Pitch moment: CmPitch
    - Roll moment: CmRoll
    - Yaw moment: CmYaw
    - Side force: Cs
    - Side force front: Cs(f)
    - Side force rear: Cs(r)


forceCoeffs dragCoeffBase:
    rho: rhoInf
    Freestream density (rhoInf) set to 1
    Not including porosity effects
    magUInf: 40
    lRef   : 0.6375
    Aref   : 0.1124
    rhoInf : 1
    Selecting coefficients:
    - Drag force: Cd


Time = 1

velocityDampingConstraint velocityDamping damped 0 (0%) of cells, with max limit 300
[INFO] MatrixAssemblyU: 1687.485 [ms]
smoothSolver:  Solving for Ux, Initial residual = 0.9999999999991638, Final residual = 0.08731797386317708, No Iterations 15
smoothSolver:  Solving for Uy, Initial residual = 1, Final residual = 0.08970563155359472, No Iterations 31
smoothSolver:  Solving for Uz, Initial residual = 1, Final residual = 0.03285841130865035, No Iterations 2
[INFO] MomentumPredictor: 1657.611 [ms]
[INFO] MatrixAssemblyPI: 261.486 [ms]
[INFO] MatrixAssemblyPII: 129.423 [ms]
GAMG:  Solving for p, Initial residual = 1, Final residual = 0.009017571326589154, No Iterations 25
[INFO] SolveP: 4139.181 [ms]
time step continuity errors : sum local = 0.003308593983988371, global = 8.460852288028884e-06, cumulative = 8.460852288028884e-06
[INFO] postSolveP: 70.349 [ms]
smoothSolver:  Solving for nuTilda, Initial residual = 0.9999999956665623, Final residual = 0.06431476782525558, No Iterations 3
[INFO] TimeStep: 8955.575000000001 [ms]
ExecutionTime = 32.57 s  ClockTime = 33 s

--> FOAM Warning : 
    From virtual bool Foam::functionObjects::fieldSelection::checkSelection()
    in file functionObjects/fieldSelections/fieldSelection/fieldSelection.C at line 166
    Field k not found
--> FOAM Warning : 
    From virtual bool Foam::functionObjects::fieldSelection::checkSelection()
    in file functionObjects/fieldSelections/fieldSelection/fieldSelection.C at line 166
    Field gammaInt not found
--> FOAM Warning : 
    From virtual bool Foam::functionObjects::fieldSelection::checkSelection()
    in file functionObjects/fieldSelections/fieldSelection/fieldSelection.C at line 166
    Field omega not found
--> FOAM Warning : 
    From virtual bool Foam::functionObjects::fieldSelection::checkSelection()
    in file functionObjects/fieldSelections/fieldSelection/fieldSelection.C at line 166
    Field ReThetat not found
--> FOAM Warning : 
    From virtual bool Foam::functionObjects::fieldSelection::checkSelection()
    in file functionObjects/fieldSelections/fieldSelection/fieldSelection.C at line 166
    Field epsilon not found
--> FOAM Warning : 
    From virtual bool Foam::functionObjects::solverFieldSelection::updateSelection()
    in file functionObjects/fieldSelections/solverFieldSelection/solverFieldSelection.C at line 85
    Valid solver fields are: 3(U nuTilda p)Time = 2

velocityDampingConstraint velocityDamping damped 0 (0%) of cells, with max limit 300
[INFO] MatrixAssemblyU: 1617.646 [ms]
smoothSolver:  Solving for Ux, Initial residual = 0.2130551132376681, Final residual = 0.01841226209492467, No Iterations 13
smoothSolver:  Solving for Uy, Initial residual = 0.3545361741851941, Final residual = 0.03307465686857639, No Iterations 13
smoothSolver:  Solving for Uz, Initial residual = 0.3289567249305826, Final residual = 0.02813158065984672, No Iterations 13
[INFO] MomentumPredictor: 1380.191 [ms]
[INFO] MatrixAssemblyPI: 261.596 [ms]
[INFO] MatrixAssemblyPII: 129.49 [ms]
GAMG:  Solving for p, Initial residual = 0.2099948137452672, Final residual = 0.002003799010833536, No Iterations 13
[INFO] SolveP: 1910.509 [ms]
time step continuity errors : sum local = 0.04102902269230198, global = -0.0003872768593657497, cumulative = -0.0003788160070777208
[INFO] postSolveP: 69.34999999999999 [ms]
smoothSolver:  Solving for nuTilda, Initial residual = 0.4059181300057166, Final residual = 0.0253472258850924, No Iterations 1
[INFO] TimeStep: 6332.774 [ms]
ExecutionTime = 40.18 s  ClockTime = 41 s

Time = 3

velocityDampingConstraint velocityDamping damped 2493 (0.01%) of cells, with max limit 300
[INFO] MatrixAssemblyU: 1655.698 [ms]
smoothSolver:  Solving for Ux, Initial residual = 0.1251122129413887, Final residual = 0.0118553572678194, No Iterations 9
smoothSolver:  Solving for Uy, Initial residual = 0.2048050691720692, Final residual = 0.01998986974319552, No Iterations 10
smoothSolver:  Solving for Uz, Initial residual = 0.2158481105999754, Final residual = 0.02141985017068003, No Iterations 9
[INFO] MomentumPredictor: 1059.046 [ms]
[INFO] MatrixAssemblyPI: 261.296 [ms]
[INFO] MatrixAssemblyPII: 129.444 [ms]
GAMG:  Solving for p, Initial residual = 0.1101783977426392, Final residual = 0.0009746424945229662, No Iterations 12
[INFO] SolveP: 1767.759 [ms]
time step continuity errors : sum local = 0.01172225359124472, global = -0.0001561840680018599, cumulative = -0.0005350000750795807
[INFO] postSolveP: 69.682 [ms]
smoothSolver:  Solving for nuTilda, Initial residual = 0.2089005400939154, Final residual = 0.0131566333765798, No Iterations 2
[INFO] TimeStep: 5935.654 [ms]
ExecutionTime = 47.42 s  ClockTime = 48 s

Time = 4

velocityDampingConstraint velocityDamping damped 0 (0%) of cells, with max limit 300
[INFO] MatrixAssemblyU: 1659.384 [ms]
smoothSolver:  Solving for Ux, Initial residual = 0.05451465513708056, Final residual = 0.004943827016905025, No Iterations 11
smoothSolver:  Solving for Uy, Initial residual = 0.1221528549323957, Final residual = 0.01066512521968518, No Iterations 11
smoothSolver:  Solving for Uz, Initial residual = 0.1319034268083012, Final residual = 0.01271751487139841, No Iterations 10
[INFO] MomentumPredictor: 1177.277 [ms]
[INFO] MatrixAssemblyPI: 260.871 [ms]
[INFO] MatrixAssemblyPII: 129.904 [ms]
GAMG:  Solving for p, Initial residual = 0.1415031801865195, Final residual = 0.00114884254636772, No Iterations 7
[INFO] SolveP: 1061.6 [ms]
time step continuity errors : sum local = 0.01098095226184391, global = 6.904653794736241e-05, cumulative = -0.0004659535371322183
[INFO] postSolveP: 69.127 [ms]
smoothSolver:  Solving for nuTilda, Initial residual = 0.1250164222252248, Final residual = 0.01050261392590036, No Iterations 2
[INFO] TimeStep: 5346.546 [ms]
ExecutionTime = 54.08 s  ClockTime = 55 s

Time = 5

velocityDampingConstraint velocityDamping damped 342 (0%) of cells, with max limit 300
[INFO] MatrixAssemblyU: 1646.999 [ms]
smoothSolver:  Solving for Ux, Initial residual = 0.04406463476538627, Final residual = 0.004190725683264109, No Iterations 10
smoothSolver:  Solving for Uy, Initial residual = 0.09756736194929699, Final residual = 0.009049007233668168, No Iterations 11
smoothSolver:  Solving for Uz, Initial residual = 0.1139674057474647, Final residual = 0.01116231108704509, No Iterations 10
[INFO] MomentumPredictor: 1147.075 [ms]
[INFO] MatrixAssemblyPI: 261.018 [ms]
[INFO] MatrixAssemblyPII: 129.648 [ms]
GAMG:  Solving for p, Initial residual = 0.1103650754504228, Final residual = 0.001081658791567437, No Iterations 7
[INFO] SolveP: 1058.774 [ms]
time step continuity errors : sum local = 0.007541255629902554, global = 0.0001830746749645164, cumulative = -0.0002828788621677019
[INFO] postSolveP: 69.07899999999999 [ms]
smoothSolver:  Solving for nuTilda, Initial residual = 0.07092473601855794, Final residual = 0.004313235291919048, No Iterations 3
[INFO] TimeStep: 5324.971 [ms]
ExecutionTime = 60.7 s  ClockTime = 61 s

Time = 6

velocityDampingConstraint velocityDamping damped 0 (0%) of cells, with max limit 300
[INFO] MatrixAssemblyU: 1637.427 [ms]
smoothSolver:  Solving for Ux, Initial residual = 0.02996400422311972, Final residual = 0.002660864035140157, No Iterations 12
smoothSolver:  Solving for Uy, Initial residual = 0.07493166328671691, Final residual = 0.006901038124460906, No Iterations 12
smoothSolver:  Solving for Uz, Initial residual = 0.08170103974586805, Final residual = 0.006977841163490548, No Iterations 12
[INFO] MomentumPredictor: 1292.277 [ms]
[INFO] MatrixAssemblyPI: 261.726 [ms]
[INFO] MatrixAssemblyPII: 129.328 [ms]
GAMG:  Solving for p, Initial residual = 0.09398804316546254, Final residual = 0.0007540147255171169, No Iterations 7
[INFO] SolveP: 1061.703 [ms]
time step continuity errors : sum local = 0.005694363723755016, global = 4.234075209631741e-05, cumulative = -0.0002405381100713845
[INFO] postSolveP: 69.178 [ms]
smoothSolver:  Solving for nuTilda, Initial residual = 0.06438979216793239, Final residual = 0.006432376751098028, No Iterations 2
[INFO] TimeStep: 5431.097 [ms]
ExecutionTime = 67.42 s  ClockTime = 68 s

Time = 7

velocityDampingConstraint velocityDamping damped 39 (0%) of cells, with max limit 300
[INFO] MatrixAssemblyU: 1629.75 [ms]
smoothSolver:  Solving for Ux, Initial residual = 0.02711281510896028, Final residual = 0.002422419502570751, No Iterations 12
smoothSolver:  Solving for Uy, Initial residual = 0.06788492499290688, Final residual = 0.006437331862874597, No Iterations 12
smoothSolver:  Solving for Uz, Initial residual = 0.0717441657258697, Final residual = 0.006280782990955381, No Iterations 12
[INFO] MomentumPredictor: 1295.97 [ms]
[INFO] MatrixAssemblyPI: 261.443 [ms]
[INFO] MatrixAssemblyPII: 129.656 [ms]
GAMG:  Solving for p, Initial residual = 0.08002163370153388, Final residual = 0.0007141669828981362, No Iterations 6
[INFO] SolveP: 919.115 [ms]
time step continuity errors : sum local = 0.005418642595107953, global = -5.231458245657987e-05, cumulative = -0.0002928526925279644
[INFO] postSolveP: 68.923 [ms]
smoothSolver:  Solving for nuTilda, Initial residual = 0.04948177819667008, Final residual = 0.003237060825330638, No Iterations 3
[INFO] TimeStep: 5312.398 [ms]
ExecutionTime = 74.02 s  ClockTime = 75 s

Time = 8

velocityDampingConstraint velocityDamping damped 0 (0%) of cells, with max limit 300
[INFO] MatrixAssemblyU: 1625.543 [ms]
smoothSolver:  Solving for Ux, Initial residual = 0.02305283905512012, Final residual = 0.002137927766861057, No Iterations 12
smoothSolver:  Solving for Uy, Initial residual = 0.06025731301925952, Final residual = 0.005923936160402846, No Iterations 12
smoothSolver:  Solving for Uz, Initial residual = 0.06222021870538948, Final residual = 0.005640918836745496, No Iterations 12
[INFO] MomentumPredictor: 1292.348 [ms]
[INFO] MatrixAssemblyPI: 261.017 [ms]
[INFO] MatrixAssemblyPII: 129.559 [ms]
GAMG:  Solving for p, Initial residual = 0.07288304038881885, Final residual = 0.0005472594855885416, No Iterations 6
[INFO] SolveP: 919.539 [ms]
time step continuity errors : sum local = 0.00420414333225932, global = -3.089439781189511e-05, cumulative = -0.0003237470903398595
[INFO] postSolveP: 69.327 [ms]
smoothSolver:  Solving for nuTilda, Initial residual = 0.06588616637773188, Final residual = 0.005893083790174201, No Iterations 2
[INFO] TimeStep: 5276.268 [ms]
ExecutionTime = 80.56999999999999 s  ClockTime = 81 s

Time = 9

velocityDampingConstraint velocityDamping damped 0 (0%) of cells, with max limit 300
[INFO] MatrixAssemblyU: 1622.104 [ms]
smoothSolver:  Solving for Ux, Initial residual = 0.02034187529092242, Final residual = 0.001901113669998243, No Iterations 12
smoothSolver:  Solving for Uy, Initial residual = 0.05437296827858328, Final residual = 0.005426475128940103, No Iterations 12
smoothSolver:  Solving for Uz, Initial residual = 0.05533665426110608, Final residual = 0.00513688800387445, No Iterations 12
[INFO] MomentumPredictor: 1296.414 [ms]
[INFO] MatrixAssemblyPI: 261.064 [ms]
[INFO] MatrixAssemblyPII: 135.291 [ms]
GAMG:  Solving for p, Initial residual = 0.06733342058382619, Final residual = 0.0006711106477119312, No Iterations 5
[INFO] SolveP: 779.562 [ms]
time step continuity errors : sum local = 0.005154042237350218, global = -3.538893062605854e-05, cumulative = -0.000359136020965918
[INFO] postSolveP: 69.13800000000001 [ms]
smoothSolver:  Solving for nuTilda, Initial residual = 0.04446572231444926, Final residual = 0.003227964081250346, No Iterations 3
[INFO] TimeStep: 5169.555 [ms]
ExecutionTime = 87.02 s  ClockTime = 88 s

Time = 10

velocityDampingConstraint velocityDamping damped 0 (0%) of cells, with max limit 300
[INFO] MatrixAssemblyU: 1622.497 [ms]
smoothSolver:  Solving for Ux, Initial residual = 0.01829908408056535, Final residual = 0.001725745499198382, No Iterations 12
smoothSolver:  Solving for Uy, Initial residual = 0.05018196829086399, Final residual = 0.004997255320196219, No Iterations 12
smoothSolver:  Solving for Uz, Initial residual = 0.05061152261660096, Final residual = 0.004766567609548107, No Iterations 12
[INFO] MomentumPredictor: 1289.649 [ms]
[INFO] MatrixAssemblyPI: 261.266 [ms]
[INFO] MatrixAssemblyPII: 129.867 [ms]
GAMG:  Solving for p, Initial residual = 0.06144220516176284, Final residual = 0.0004158978631749059, No Iterations 6
[INFO] SolveP: 919.638 [ms]
time step continuity errors : sum local = 0.003170925943937612, global = 4.266565923565316e-06, cumulative = -0.0003548694550423527
[INFO] postSolveP: 69.047 [ms]
smoothSolver:  Solving for nuTilda, Initial residual = 0.06997799968803059, Final residual = 0.005534263326714595, No Iterations 2
[INFO] TimeStep: 5268.625 [ms]
ExecutionTime = 93.56999999999999 s  ClockTime = 94 s

Time = 11

velocityDampingConstraint velocityDamping damped 0 (0%) of cells, with max limit 300
[INFO] MatrixAssemblyU: 1621.826 [ms]
smoothSolver:  Solving for Ux, Initial residual = 0.01668769441666943, Final residual = 0.001605860669611089, No Iterations 12
smoothSolver:  Solving for Uy, Initial residual = 0.04739321420085937, Final residual = 0.004686103886558397, No Iterations 12
smoothSolver:  Solving for Uz, Initial residual = 0.04737726127869292, Final residual = 0.004495517741061518, No Iterations 12
[INFO] MomentumPredictor: 1296.25 [ms]
[INFO] MatrixAssemblyPI: 260.885 [ms]
[INFO] MatrixAssemblyPII: 129.613 [ms]
GAMG:  Solving for p, Initial residual = 0.05703062963311215, Final residual = 0.0003664929860804186, No Iterations 6
[INFO] SolveP: 921.735 [ms]
time step continuity errors : sum local = 0.00280596345516348, global = 2.680213097348192e-05, cumulative = -0.0003280673240688708
[INFO] postSolveP: 69.48999999999999 [ms]
smoothSolver:  Solving for nuTilda, Initial residual = 0.03935258882175197, Final residual = 0.003055179761571465, No Iterations 3
[INFO] TimeStep: 5302.853 [ms]
ExecutionTime = 100.14 s  ClockTime = 101 s

Time = 12

velocityDampingConstraint velocityDamping damped 0 (0%) of cells, with max limit 300
[INFO] MatrixAssemblyU: 1617.904 [ms]
smoothSolver:  Solving for Ux, Initial residual = 0.01554733773037041, Final residual = 0.001518764335987133, No Iterations 12
smoothSolver:  Solving for Uy, Initial residual = 0.04531218528153105, Final residual = 0.004454831949183695, No Iterations 12
smoothSolver:  Solving for Uz, Initial residual = 0.04490962466498778, Final residual = 0.004287514550481676, No Iterations 12
[INFO] MomentumPredictor: 1288.178 [ms]
[INFO] MatrixAssemblyPI: 261.071 [ms]
[INFO] MatrixAssemblyPII: 129.708 [ms]
GAMG:  Solving for p, Initial residual = 0.05295819465914435, Final residual = 0.0003514379739221418, No Iterations 6
[INFO] SolveP: 917.534 [ms]
time step continuity errors : sum local = 0.002711992529356945, global = 2.713247836717706e-05, cumulative = -0.0003009348457016937
[INFO] postSolveP: 69.517 [ms]
smoothSolver:  Solving for nuTilda, Initial residual = 0.06587953209417968, Final residual = 0.005139630335074483, No Iterations 2
[INFO] TimeStep: 5258.871 [ms]
ExecutionTime = 106.67 s  ClockTime = 107 s

Time = 13

velocityDampingConstraint velocityDamping damped 0 (0%) of cells, with max limit 300
[INFO] MatrixAssemblyU: 1616.672 [ms]
smoothSolver:  Solving for Ux, Initial residual = 0.01451720246823503, Final residual = 0.001444592486092122, No Iterations 12
smoothSolver:  Solving for Uy, Initial residual = 0.04341074492875465, Final residual = 0.004258803555767335, No Iterations 12
smoothSolver:  Solving for Uz, Initial residual = 0.04306404601933624, Final residual = 0.00413835876968804, No Iterations 12
[INFO] MomentumPredictor: 1293.283 [ms]
[INFO] MatrixAssemblyPI: 261.318 [ms]
[INFO] MatrixAssemblyPII: 129.389 [ms]
GAMG:  Solving for p, Initial residual = 0.04972030937523734, Final residual = 0.0003338224349773924, No Iterations 6
[INFO] SolveP: 920.162 [ms]
time step continuity errors : sum local = 0.002592648983858557, global = 2.185209949128977e-05, cumulative = -0.000279082746210404
[INFO] postSolveP: 69.41200000000001 [ms]
smoothSolver:  Solving for nuTilda, Initial residual = 0.03476610254091866, Final residual = 0.002854327040543141, No Iterations 3
[INFO] TimeStep: 5293.722 [ms]
ExecutionTime = 113.23 s  ClockTime = 114 s

Time = 14

velocityDampingConstraint velocityDamping damped 0 (0%) of cells, with max limit 300
[INFO] MatrixAssemblyU: 1615.441 [ms]
smoothSolver:  Solving for Ux, Initial residual = 0.01368552268404935, Final residual = 0.001173164655142912, No Iterations 13
smoothSolver:  Solving for Uy, Initial residual = 0.04159874995877832, Final residual = 0.004090960951166173, No Iterations 12
smoothSolver:  Solving for Uz, Initial residual = 0.04202624276287154, Final residual = 0.00405918955347596, No Iterations 12
[INFO] MomentumPredictor: 1322.733 [ms]
[INFO] MatrixAssemblyPI: 261.292 [ms]
[INFO] MatrixAssemblyPII: 129.745 [ms]
GAMG:  Solving for p, Initial residual = 0.0472785560550474, Final residual = 0.0003106926985992554, No Iterations 6
[INFO] SolveP: 919.846 [ms]
time step continuity errors : sum local = 0.002422694919219133, global = 1.194565020832583e-05, cumulative = -0.0002671370960020781
[INFO] postSolveP: 69.538 [ms]
smoothSolver:  Solving for nuTilda, Initial residual = 0.05854058095494361, Final residual = 0.004828019085332315, No Iterations 2
[INFO] TimeStep: 5290.42 [ms]
ExecutionTime = 119.79 s  ClockTime = 121 s

Time = 15

velocityDampingConstraint velocityDamping damped 0 (0%) of cells, with max limit 300
[INFO] MatrixAssemblyU: 1615.064 [ms]
smoothSolver:  Solving for Ux, Initial residual = 0.01281658003858878, Final residual = 0.00111011115130532, No Iterations 13
smoothSolver:  Solving for Uy, Initial residual = 0.04017955296055096, Final residual = 0.003976790701781376, No Iterations 12
smoothSolver:  Solving for Uz, Initial residual = 0.04166756013098476, Final residual = 0.004049557044600138, No Iterations 12
[INFO] MomentumPredictor: 1325.276 [ms]
[INFO] MatrixAssemblyPI: 261.198 [ms]
[INFO] MatrixAssemblyPII: 129.767 [ms]
GAMG:  Solving for p, Initial residual = 0.04567464052693704, Final residual = 0.0003017655473820591, No Iterations 6
[INFO] SolveP: 922.6 [ms]
time step continuity errors : sum local = 0.002364545784438741, global = -3.330814168294401e-06, cumulative = -0.0002704679101703725
[INFO] postSolveP: 69.447 [ms]
smoothSolver:  Solving for nuTilda, Initial residual = 0.03116964765195783, Final residual = 0.002683100810129206, No Iterations 3
[INFO] TimeStep: 5325.362 [ms]
ExecutionTime = 126.39 s  ClockTime = 127 s

Time = 16

velocityDampingConstraint velocityDamping damped 0 (0%) of cells, with max limit 300
[INFO] MatrixAssemblyU: 1612.824 [ms]
smoothSolver:  Solving for Ux, Initial residual = 0.01217864974264781, Final residual = 0.001054362052433749, No Iterations 13
smoothSolver:  Solving for Uy, Initial residual = 0.03926091226540056, Final residual = 0.003904558571676798, No Iterations 12
smoothSolver:  Solving for Uz, Initial residual = 0.04158912460691656, Final residual = 0.004053755068246674, No Iterations 12
[INFO] MomentumPredictor: 1320.354 [ms]
[INFO] MatrixAssemblyPI: 261.056 [ms]
[INFO] MatrixAssemblyPII: 129.837 [ms]
GAMG:  Solving for p, Initial residual = 0.04436788376947089, Final residual = 0.0002937091166623038, No Iterations 6
[INFO] SolveP: 920.1180000000001 [ms]
time step continuity errors : sum local = 0.002309017013364698, global = -1.155705571708764e-05, cumulative = -0.0002820249658874602
[INFO] postSolveP: 69.395 [ms]
smoothSolver:  Solving for nuTilda, Initial residual = 0.05195720294061971, Final residual = 0.004572966636076712, No Iterations 2
[INFO] TimeStep: 5284.365 [ms]
ExecutionTime = 132.93 s  ClockTime = 134 s

Time = 17

velocityDampingConstraint velocityDamping damped 0 (0%) of cells, with max limit 300
[INFO] MatrixAssemblyU: 1614.6 [ms]
smoothSolver:  Solving for Ux, Initial residual = 0.01155543695149455, Final residual = 0.001005772842403439, No Iterations 13
smoothSolver:  Solving for Uy, Initial residual = 0.03872030244230702, Final residual = 0.003293786735554858, No Iterations 13
smoothSolver:  Solving for Uz, Initial residual = 0.04153735224401765, Final residual = 0.004056774952187796, No Iterations 12
[INFO] MomentumPredictor: 1354.315 [ms]
[INFO] MatrixAssemblyPI: 260.887 [ms]
[INFO] MatrixAssemblyPII: 129.971 [ms]
GAMG:  Solving for p, Initial residual = 0.04390969802375788, Final residual = 0.0003007438211302881, No Iterations 6
[INFO] SolveP: 920.961 [ms]
time step continuity errors : sum local = 0.002378629076064363, global = -1.631708713450859e-05, cumulative = -0.0002983420530219688
[INFO] postSolveP: 69.348 [ms]
smoothSolver:  Solving for nuTilda, Initial residual = 0.02852843256346121, Final residual = 0.002531329538427181, No Iterations 3
[INFO] TimeStep: 5350.121 [ms]
ExecutionTime = 139.55 s  ClockTime = 140 s

Time = 18

velocityDampingConstraint velocityDamping damped 0 (0%) of cells, with max limit 300
[INFO] MatrixAssemblyU: 1610.1 [ms]
smoothSolver:  Solving for Ux, Initial residual = 0.011215833151631, Final residual = 0.0009665572437840167, No Iterations 13
smoothSolver:  Solving for Uy, Initial residual = 0.0384529942005822, Final residual = 0.003281679979825561, No Iterations 13
smoothSolver:  Solving for Uz, Initial residual = 0.04178975293761144, Final residual = 0.004067461220710099, No Iterations 12
[INFO] MomentumPredictor: 1350.897 [ms]
[INFO] MatrixAssemblyPI: 260.616 [ms]
[INFO] MatrixAssemblyPII: 129.852 [ms]
GAMG:  Solving for p, Initial residual = 0.04377132208116854, Final residual = 0.0002982262229289035, No Iterations 6
[INFO] SolveP: 919.4 [ms]
time step continuity errors : sum local = 0.00237375707797704, global = -8.700066594874326e-06, cumulative = -0.0003070421196168431
[INFO] postSolveP: 69.367 [ms]
smoothSolver:  Solving for nuTilda, Initial residual = 0.0466001027862481, Final residual = 0.004317713512936046, No Iterations 2
[INFO] TimeStep: 5311.477 [ms]
ExecutionTime = 146.13 s  ClockTime = 147 s

Time = 19

velocityDampingConstraint velocityDamping damped 0 (0%) of cells, with max limit 300
[INFO] MatrixAssemblyU: 1608.858 [ms]
smoothSolver:  Solving for Ux, Initial residual = 0.01086096831645097, Final residual = 0.0009359239242553362, No Iterations 13
smoothSolver:  Solving for Uy, Initial residual = 0.03878297755425925, Final residual = 0.003309131753612707, No Iterations 13
smoothSolver:  Solving for Uz, Initial residual = 0.04252803260799207, Final residual = 0.004110509854353277, No Iterations 12
[INFO] MomentumPredictor: 1355.904 [ms]
[INFO] MatrixAssemblyPI: 261.149 [ms]
[INFO] MatrixAssemblyPII: 129.58 [ms]
GAMG:  Solving for p, Initial residual = 0.04399542293187259, Final residual = 0.0002838938338402535, No Iterations 6
[INFO] SolveP: 920.936 [ms]
time step continuity errors : sum local = 0.002274895854378998, global = 4.469669390057466e-06, cumulative = -0.0003025724502267856
[INFO] postSolveP: 69.151 [ms]
smoothSolver:  Solving for nuTilda, Initial residual = 0.02653089267420347, Final residual = 0.002379570387813789, No Iterations 3
[INFO] TimeStep: 5344.088 [ms]
ExecutionTime = 152.73 s  ClockTime = 154 s

Time = 20

velocityDampingConstraint velocityDamping damped 0 (0%) of cells, with max limit 300
[INFO] MatrixAssemblyU: 1610.944 [ms]
smoothSolver:  Solving for Ux, Initial residual = 0.01069020051787393, Final residual = 0.0009166100763553773, No Iterations 13
smoothSolver:  Solving for Uy, Initial residual = 0.0392143557684815, Final residual = 0.003911222939962715, No Iterations 12
smoothSolver:  Solving for Uz, Initial residual = 0.0431402033224896, Final residual = 0.004143083344019509, No Iterations 12
[INFO] MomentumPredictor: 1320.634 [ms]
[INFO] MatrixAssemblyPI: 261.115 [ms]
[INFO] MatrixAssemblyPII: 129.567 [ms]
GAMG:  Solving for p, Initial residual = 0.04389367791241611, Final residual = 0.0002645130955656357, No Iterations 6
[INFO] SolveP: 920.658 [ms]
time step continuity errors : sum local = 0.002139177045146224, global = 1.487352005396815e-05, cumulative = -0.0002876989301728174
[INFO] postSolveP: 69.20699999999999 [ms]
smoothSolver:  Solving for nuTilda, Initial residual = 0.04204195779249906, Final residual = 0.004060897243790239, No Iterations 2
[INFO] TimeStep: 5282.246 [ms]
ExecutionTime = 159.27 s  ClockTime = 160 s

Time = 21

velocityDampingConstraint velocityDamping damped 0 (0%) of cells, with max limit 300
[INFO] MatrixAssemblyU: 1608.227 [ms]
smoothSolver:  Solving for Ux, Initial residual = 0.01048455548720394, Final residual = 0.0009030238607499675, No Iterations 13
smoothSolver:  Solving for Uy, Initial residual = 0.0398641384771149, Final residual = 0.003962641655789966, No Iterations 12
smoothSolver:  Solving for Uz, Initial residual = 0.0434661981841019, Final residual = 0.004140455722192586, No Iterations 12
[INFO] MomentumPredictor: 1326.414 [ms]
[INFO] MatrixAssemblyPI: 261.057 [ms]
[INFO] MatrixAssemblyPII: 129.54 [ms]
GAMG:  Solving for p, Initial residual = 0.04387951868664553, Final residual = 0.000266303221907427, No Iterations 6
[INFO] SolveP: 921.87 [ms]
time step continuity errors : sum local = 0.002182283544953723, global = 2.04422346218875e-05, cumulative = -0.00026725669555093
[INFO] postSolveP: 69.133 [ms]
smoothSolver:  Solving for nuTilda, Initial residual = 0.0248655158987966, Final residual = 0.002231403575874274, No Iterations 3
[INFO] TimeStep: 5316.079 [ms]
ExecutionTime = 165.85 s  ClockTime = 167 s

Time = 22

velocityDampingConstraint velocityDamping damped 0 (0%) of cells, with max limit 300
[INFO] MatrixAssemblyU: 1609.366 [ms]
smoothSolver:  Solving for Ux, Initial residual = 0.0104565943995327, Final residual = 0.0008917397337189456, No Iterations 13
smoothSolver:  Solving for Uy, Initial residual = 0.04052012027447436, Final residual = 0.003989058811528039, No Iterations 12
smoothSolver:  Solving for Uz, Initial residual = 0.0434022250076142, Final residual = 0.004098441225320032, No Iterations 12
[INFO] MomentumPredictor: 1321.233 [ms]
[INFO] MatrixAssemblyPI: 260.958 [ms]
[INFO] MatrixAssemblyPII: 129.529 [ms]
GAMG:  Solving for p, Initial residual = 0.04362122725596795, Final residual = 0.0002827106076891053, No Iterations 6
[INFO] SolveP: 921.9589999999999 [ms]
time step continuity errors : sum local = 0.002348931059266355, global = 2.428084669258689e-05, cumulative = -0.0002429758488583431
[INFO] postSolveP: 69.34699999999999 [ms]
smoothSolver:  Solving for nuTilda, Initial residual = 0.03813580267719857, Final residual = 0.003813238450093648, No Iterations 2
[INFO] TimeStep: 5282.85 [ms]
ExecutionTime = 172.4 s  ClockTime = 173 s

Time = 23

velocityDampingConstraint velocityDamping damped 0 (0%) of cells, with max limit 300
[INFO] MatrixAssemblyU: 1608.133 [ms]
smoothSolver:  Solving for Ux, Initial residual = 0.01031649771806026, Final residual = 0.0008822173113249245, No Iterations 13
smoothSolver:  Solving for Uy, Initial residual = 0.04113122531008327, Final residual = 0.003994381278657171, No Iterations 12
smoothSolver:  Solving for Uz, Initial residual = 0.04299263617421503, Final residual = 0.004016377341951129, No Iterations 12
[INFO] MomentumPredictor: 1321.139 [ms]
[INFO] MatrixAssemblyPI: 260.877 [ms]
[INFO] MatrixAssemblyPII: 129.482 [ms]
GAMG:  Solving for p, Initial residual = 0.04334708591620531, Final residual = 0.0002997405469983069, No Iterations 6
[INFO] SolveP: 923.125 [ms]
time step continuity errors : sum local = 0.002529712922712971, global = 3.022595444025607e-05, cumulative = -0.000212749894418087
[INFO] postSolveP: 69.04900000000001 [ms]
smoothSolver:  Solving for nuTilda, Initial residual = 0.02316092787957869, Final residual = 0.002095240762997556, No Iterations 3
[INFO] TimeStep: 5310.482 [ms]
ExecutionTime = 178.97 s  ClockTime = 180 s

Time = 24

velocityDampingConstraint velocityDamping damped 0 (0%) of cells, with max limit 300
[INFO] MatrixAssemblyU: 1609.575 [ms]
smoothSolver:  Solving for Ux, Initial residual = 0.01034142169604533, Final residual = 0.001028914757225629, No Iterations 12
smoothSolver:  Solving for Uy, Initial residual = 0.04184414492121735, Final residual = 0.004032351746441655, No Iterations 12
smoothSolver:  Solving for Uz, Initial residual = 0.04256989682965765, Final residual = 0.003940379796303267, No Iterations 12
[INFO] MomentumPredictor: 1291.521 [ms]
[INFO] MatrixAssemblyPI: 260.475 [ms]
[INFO] MatrixAssemblyPII: 129.797 [ms]
GAMG:  Solving for p, Initial residual = 0.04296456252908594, Final residual = 0.0003026068567137157, No Iterations 6
[INFO] SolveP: 921.223 [ms]
time step continuity errors : sum local = 0.002597352876506461, global = 3.172426961931145e-05, cumulative = -0.0001810256247987755
[INFO] postSolveP: 69.29600000000001 [ms]
smoothSolver:  Solving for nuTilda, Initial residual = 0.03484680781528331, Final residual = 0.001924713588457516, No Iterations 3
[INFO] TimeStep: 5280.521 [ms]
ExecutionTime = 185.51 s  ClockTime = 187 s

Time = 25

velocityDampingConstraint velocityDamping damped 0 (0%) of cells, with max limit 300
[INFO] MatrixAssemblyU: 1609.17 [ms]
smoothSolver:  Solving for Ux, Initial residual = 0.01028507777058051, Final residual = 0.0008803645396463341, No Iterations 13
smoothSolver:  Solving for Uy, Initial residual = 0.04267474953331715, Final residual = 0.004124005798531699, No Iterations 12
smoothSolver:  Solving for Uz, Initial residual = 0.04231220370795111, Final residual = 0.003906300033174536, No Iterations 12
[INFO] MomentumPredictor: 1322.362 [ms]
[INFO] MatrixAssemblyPI: 261.966 [ms]
[INFO] MatrixAssemblyPII: 129.468 [ms]
GAMG:  Solving for p, Initial residual = 0.04227780557419172, Final residual = 0.0002980547336567536, No Iterations 6
[INFO] SolveP: 922.777 [ms]
time step continuity errors : sum local = 0.002604751417025376, global = 3.603202589543938e-05, cumulative = -0.0001449935989033362
[INFO] postSolveP: 69.032 [ms]
smoothSolver:  Solving for nuTilda, Initial residual = 0.02148601033202253, Final residual = 0.001975475934605302, No Iterations 3
[INFO] TimeStep: 5314.951 [ms]
ExecutionTime = 192.09 s  ClockTime = 193 s

Time = 26

velocityDampingConstraint velocityDamping damped 0 (0%) of cells, with max limit 300
[INFO] MatrixAssemblyU: 1608.166 [ms]
smoothSolver:  Solving for Ux, Initial residual = 0.01036237152369309, Final residual = 0.001032778425665377, No Iterations 12
smoothSolver:  Solving for Uy, Initial residual = 0.04359617323209963, Final residual = 0.004272480846549148, No Iterations 12
smoothSolver:  Solving for Uz, Initial residual = 0.04229721100109013, Final residual = 0.003949533097326684, No Iterations 12
[INFO] MomentumPredictor: 1292.781 [ms]
[INFO] MatrixAssemblyPI: 261.126 [ms]
[INFO] MatrixAssemblyPII: 129.684 [ms]
GAMG:  Solving for p, Initial residual = 0.04185440962711241, Final residual = 0.0003024245443630494, No Iterations 6
[INFO] SolveP: 921.705 [ms]
time step continuity errors : sum local = 0.0026782649434194, global = 3.644701034373239e-05, cumulative = -0.0001085465885596038
[INFO] postSolveP: 68.96299999999999 [ms]
smoothSolver:  Solving for nuTilda, Initial residual = 0.03185949984551582, Final residual = 0.001818506304496728, No Iterations 3
[INFO] TimeStep: 5281.225 [ms]
ExecutionTime = 198.63 s  ClockTime = 200 s

Time = 27

velocityDampingConstraint velocityDamping damped 0 (0%) of cells, with max limit 300
[INFO] MatrixAssemblyU: 1608.492 [ms]
smoothSolver:  Solving for Ux, Initial residual = 0.01036003878821372, Final residual = 0.001034284133475655, No Iterations 12
smoothSolver:  Solving for Uy, Initial residual = 0.04461136892364135, Final residual = 0.004438610257809192, No Iterations 12
smoothSolver:  Solving for Uz, Initial residual = 0.04258790021895371, Final residual = 0.004030977202395212, No Iterations 12
[INFO] MomentumPredictor: 1292.612 [ms]
[INFO] MatrixAssemblyPI: 261.288 [ms]
[INFO] MatrixAssemblyPII: 129.634 [ms]
GAMG:  Solving for p, Initial residual = 0.04207091958384043, Final residual = 0.0002990517284576789, No Iterations 6
[INFO] SolveP: 920.0410000000001 [ms]
time step continuity errors : sum local = 0.002684527178522357, global = 3.982717542524633e-05, cumulative = -6.871941313435744e-05
[INFO] postSolveP: 69.30200000000001 [ms]
smoothSolver:  Solving for nuTilda, Initial residual = 0.01985983196470082, Final residual = 0.001849882117479497, No Iterations 3
[INFO] TimeStep: 5284.214 [ms]
ExecutionTime = 205.18 s  ClockTime = 206 s

Time = 28

velocityDampingConstraint velocityDamping damped 0 (0%) of cells, with max limit 300
[INFO] MatrixAssemblyU: 1607.759 [ms]
smoothSolver:  Solving for Ux, Initial residual = 0.01050670390693596, Final residual = 0.00103794008880308, No Iterations 12
smoothSolver:  Solving for Uy, Initial residual = 0.04596082691753849, Final residual = 0.003938728259547754, No Iterations 13
smoothSolver:  Solving for Uz, Initial residual = 0.04359287452565403, Final residual = 0.004143142336521998, No Iterations 12
[INFO] MomentumPredictor: 1328.354 [ms]
[INFO] MatrixAssemblyPI: 260.915 [ms]
[INFO] MatrixAssemblyPII: 129.653 [ms]
GAMG:  Solving for p, Initial residual = 0.0429715469685564, Final residual = 0.0003001506851559883, No Iterations 6
[INFO] SolveP: 921.174 [ms]
time step continuity errors : sum local = 0.002731464714333898, global = 4.042987775602769e-05, cumulative = -2.828953537832975e-05
[INFO] postSolveP: 69.18300000000001 [ms]
smoothSolver:  Solving for nuTilda, Initial residual = 0.02928130956318036, Final residual = 0.001712123223687306, No Iterations 3
[INFO] TimeStep: 5316.214 [ms]
ExecutionTime = 211.75 s  ClockTime = 213 s

Time = 29

velocityDampingConstraint velocityDamping damped 0 (0%) of cells, with max limit 300
[INFO] MatrixAssemblyU: 1606.772 [ms]
smoothSolver:  Solving for Ux, Initial residual = 0.01054623421305128, Final residual = 0.001040171950232342, No Iterations 12
smoothSolver:  Solving for Uy, Initial residual = 0.0475386842113024, Final residual = 0.004075571157732855, No Iterations 13
smoothSolver:  Solving for Uz, Initial residual = 0.04503365471559782, Final residual = 0.004283963505916173, No Iterations 12
[INFO] MomentumPredictor: 1346.825 [ms]
[INFO] MatrixAssemblyPI: 261.184 [ms]
[INFO] MatrixAssemblyPII: 129.605 [ms]
GAMG:  Solving for p, Initial residual = 0.04392437106668019, Final residual = 0.0002955618887140996, No Iterations 6
[INFO] SolveP: 922.182 [ms]
time step continuity errors : sum local = 0.002726197958671529, global = 4.043300552955533e-05, cumulative = 1.214347015122558e-05
[INFO] postSolveP: 68.992 [ms]
smoothSolver:  Solving for nuTilda, Initial residual = 0.01842790433507219, Final residual = 0.001725791592830508, No Iterations 3
[INFO] TimeStep: 5334.459 [ms]
ExecutionTime = 218.34 s  ClockTime = 219 s

Time = 30

velocityDampingConstraint velocityDamping damped 0 (0%) of cells, with max limit 300
[INFO] MatrixAssemblyU: 1605.349 [ms]
smoothSolver:  Solving for Ux, Initial residual = 0.01074456614108869, Final residual = 0.001046704145527376, No Iterations 12
smoothSolver:  Solving for Uy, Initial residual = 0.0496018818975789, Final residual = 0.004222622525338927, No Iterations 13
smoothSolver:  Solving for Uz, Initial residual = 0.04662054326687908, Final residual = 0.004417294544510698, No Iterations 12
[INFO] MomentumPredictor: 1318.998 [ms]
[INFO] MatrixAssemblyPI: 260.781 [ms]
[INFO] MatrixAssemblyPII: 129.728 [ms]
GAMG:  Solving for p, Initial residual = 0.04481719137467823, Final residual = 0.0002850119893590977, No Iterations 6
[INFO] SolveP: 919.3099999999999 [ms]
time step continuity errors : sum local = 0.002665757736246428, global = 3.621887525707942e-05, cumulative = 4.836234540830501e-05
[INFO] postSolveP: 69.15600000000001 [ms]
smoothSolver:  Solving for nuTilda, Initial residual = 0.02705042740175663, Final residual = 0.001604850796467703, No Iterations 3
[INFO] TimeStep: 5301.3 [ms]
ExecutionTime = 224.91 s  ClockTime = 226 s

Time = 31

velocityDampingConstraint velocityDamping damped 0 (0%) of cells, with max limit 300
[INFO] MatrixAssemblyU: 1602.359 [ms]
smoothSolver:  Solving for Ux, Initial residual = 0.01081863540350265, Final residual = 0.00105355167146578, No Iterations 12
smoothSolver:  Solving for Uy, Initial residual = 0.05194740192980234, Final residual = 0.005167432628004843, No Iterations 12
smoothSolver:  Solving for Uz, Initial residual = 0.04832832591338475, Final residual = 0.004572455784734909, No Iterations 12
[INFO] MomentumPredictor: 1287.411 [ms]
[INFO] MatrixAssemblyPI: 261.327 [ms]
[INFO] MatrixAssemblyPII: 129.533 [ms]
GAMG:  Solving for p, Initial residual = 0.04604062414770246, Final residual = 0.0002751237637306026, No Iterations 6
[INFO] SolveP: 921.28 [ms]
time step continuity errors : sum local = 0.002604808052286697, global = 3.445031888101257e-05, cumulative = 8.281266428931757e-05
[INFO] postSolveP: 69.2 [ms]
smoothSolver:  Solving for nuTilda, Initial residual = 0.01713408467166543, Final residual = 0.001606227230063679, No Iterations 3
[INFO] TimeStep: 5267.379 [ms]
ExecutionTime = 231.44 s  ClockTime = 233 s

Time = 32

velocityDampingConstraint velocityDamping damped 0 (0%) of cells, with max limit 300
[INFO] MatrixAssemblyU: 1601.565 [ms]
smoothSolver:  Solving for Ux, Initial residual = 0.01094924127610343, Final residual = 0.001060652387573742, No Iterations 12
smoothSolver:  Solving for Uy, Initial residual = 0.05435940403192826, Final residual = 0.005403248680579445, No Iterations 12
smoothSolver:  Solving for Uz, Initial residual = 0.04988361585290194, Final residual = 0.004774062582223687, No Iterations 12
[INFO] MomentumPredictor: 1291.31 [ms]
[INFO] MatrixAssemblyPI: 261.214 [ms]
[INFO] MatrixAssemblyPII: 129.685 [ms]
GAMG:  Solving for p, Initial residual = 0.04763029538308403, Final residual = 0.0002780770513022194, No Iterations 6
[INFO] SolveP: 921.152 [ms]
time step continuity errors : sum local = 0.002659280716710635, global = 3.188556118785249e-05, cumulative = 0.0001146982254771701
[INFO] postSolveP: 69.163 [ms]
smoothSolver:  Solving for nuTilda, Initial residual = 0.02512303779939089, Final residual = 0.001501717325758907, No Iterations 3
[INFO] TimeStep: 5271.408 [ms]
ExecutionTime = 237.96 s  ClockTime = 239 s

Time = 33

velocityDampingConstraint velocityDamping damped 0 (0%) of cells, with max limit 300
[INFO] MatrixAssemblyU: 1601.396 [ms]
smoothSolver:  Solving for Ux, Initial residual = 0.01090889977760709, Final residual = 0.00106700775381013, No Iterations 12
smoothSolver:  Solving for Uy, Initial residual = 0.05668854309673038, Final residual = 0.005630861922817199, No Iterations 12
smoothSolver:  Solving for Uz, Initial residual = 0.05204747223967845, Final residual = 0.005047856550283677, No Iterations 12
[INFO] MomentumPredictor: 1290.959 [ms]
[INFO] MatrixAssemblyPI: 261.541 [ms]
[INFO] MatrixAssemblyPII: 129.497 [ms]
GAMG:  Solving for p, Initial residual = 0.04959622866866102, Final residual = 0.0002863466692350191, No Iterations 6
[INFO] SolveP: 922.4450000000001 [ms]
time step continuity errors : sum local = 0.002762497031879182, global = 3.253946362519967e-05, cumulative = 0.0001472376891023697
[INFO] postSolveP: 69.002 [ms]
smoothSolver:  Solving for nuTilda, Initial residual = 0.01602638577721615, Final residual = 0.001495292884045584, No Iterations 3
[INFO] TimeStep: 5271.988 [ms]
ExecutionTime = 244.49 s  ClockTime = 246 s

Time = 34

velocityDampingConstraint velocityDamping damped 0 (0%) of cells, with max limit 300
[INFO] MatrixAssemblyU: 1600.513 [ms]
smoothSolver:  Solving for Ux, Initial residual = 0.01103693556260664, Final residual = 0.001077551470973443, No Iterations 12
smoothSolver:  Solving for Uy, Initial residual = 0.05923255273889017, Final residual = 0.005884077117921866, No Iterations 12
smoothSolver:  Solving for Uz, Initial residual = 0.05455750340755396, Final residual = 0.005343948479827337, No Iterations 12
[INFO] MomentumPredictor: 1291.67 [ms]
[INFO] MatrixAssemblyPI: 261.109 [ms]
[INFO] MatrixAssemblyPII: 129.891 [ms]
GAMG:  Solving for p, Initial residual = 0.05178380012286533, Final residual = 0.0005064183062993693, No Iterations 5
[INFO] SolveP: 778.442 [ms]
time step continuity errors : sum local = 0.004927378362195033, global = 3.914696775427822e-05, cumulative = 0.000186384656856648
[INFO] postSolveP: 69.23999999999999 [ms]
smoothSolver:  Solving for nuTilda, Initial residual = 0.02346385746044709, Final residual = 0.001406239895423863, No Iterations 3
[INFO] TimeStep: 5127.167 [ms]
ExecutionTime = 250.88 s  ClockTime = 252 s

Time = 35

velocityDampingConstraint velocityDamping damped 0 (0%) of cells, with max limit 300
[INFO] MatrixAssemblyU: 1598.046 [ms]
smoothSolver:  Solving for Ux, Initial residual = 0.01110485016662903, Final residual = 0.001091007394169633, No Iterations 12
smoothSolver:  Solving for Uy, Initial residual = 0.06174365373407759, Final residual = 0.006174241332990145, No Iterations 12
smoothSolver:  Solving for Uz, Initial residual = 0.05709923277987532, Final residual = 0.005612337854596014, No Iterations 12
[INFO] MomentumPredictor: 1291.098 [ms]
[INFO] MatrixAssemblyPI: 260.883 [ms]
[INFO] MatrixAssemblyPII: 129.837 [ms]
GAMG:  Solving for p, Initial residual = 0.05364930848798985, Final residual = 0.0005200823807927197, No Iterations 5
[INFO] SolveP: 779.532 [ms]
time step continuity errors : sum local = 0.005107359784747399, global = 4.318842525083769e-05, cumulative = 0.0002295730821074856
[INFO] postSolveP: 69.083 [ms]
smoothSolver:  Solving for nuTilda, Initial residual = 0.01510312951805834, Final residual = 0.001395583926964924, No Iterations 3
[INFO] TimeStep: 5124.287 [ms]
ExecutionTime = 257.25 s  ClockTime = 259 s

Time = 36

velocityDampingConstraint velocityDamping damped 0 (0%) of cells, with max limit 300
[INFO] MatrixAssemblyU: 1596.469 [ms]
smoothSolver:  Solving for Ux, Initial residual = 0.01138021234978589, Final residual = 0.001112238939871516, No Iterations 12
smoothSolver:  Solving for Uy, Initial residual = 0.06397981458352922, Final residual = 0.005537758632895448, No Iterations 13
smoothSolver:  Solving for Uz, Initial residual = 0.05975235133330437, Final residual = 0.005870293462339131, No Iterations 12
[INFO] MomentumPredictor: 1319.565 [ms]
[INFO] MatrixAssemblyPI: 261.18 [ms]
[INFO] MatrixAssemblyPII: 129.807 [ms]
GAMG:  Solving for p, Initial residual = 0.05514444767509679, Final residual = 0.0004917086871591489, No Iterations 5
[INFO] SolveP: 779.205 [ms]
time step continuity errors : sum local = 0.00486225741476315, global = 4.04193217208739e-05, cumulative = 0.0002699924038283595
[INFO] postSolveP: 69.248 [ms]
smoothSolver:  Solving for nuTilda, Initial residual = 0.02201369303812259, Final residual = 0.001318550251848772, No Iterations 3
[INFO] TimeStep: 5150.136 [ms]
ExecutionTime = 263.65 s  ClockTime = 265 s

Time = 37

velocityDampingConstraint velocityDamping damped 0 (0%) of cells, with max limit 300
[INFO] MatrixAssemblyU: 1595.956 [ms]
smoothSolver:  Solving for Ux, Initial residual = 0.01159606051783954, Final residual = 0.001138891020767865, No Iterations 12
smoothSolver:  Solving for Uy, Initial residual = 0.06569545266163733, Final residual = 0.005772906329869929, No Iterations 13
smoothSolver:  Solving for Uz, Initial residual = 0.06241152390984901, Final residual = 0.006104218013843325, No Iterations 12
[INFO] MomentumPredictor: 1320.059 [ms]
[INFO] MatrixAssemblyPI: 261.016 [ms]
[INFO] MatrixAssemblyPII: 129.659 [ms]
GAMG:  Solving for p, Initial residual = 0.05690608746737376, Final residual = 0.0004786269717856146, No Iterations 5
[INFO] SolveP: 780.756 [ms]
time step continuity errors : sum local = 0.004766872843570053, global = 3.9057602124632e-05, cumulative = 0.0003090500059529915
[INFO] postSolveP: 69.236 [ms]
smoothSolver:  Solving for nuTilda, Initial residual = 0.01427399654893365, Final residual = 0.001306576479201189, No Iterations 3
[INFO] TimeStep: 5152.174 [ms]
ExecutionTime = 270.07 s  ClockTime = 271 s

Time = 38

velocityDampingConstraint velocityDamping damped 0 (0%) of cells, with max limit 300
[INFO] MatrixAssemblyU: 1595.449 [ms]
smoothSolver:  Solving for Ux, Initial residual = 0.01191312470004277, Final residual = 0.001162213024850005, No Iterations 12
smoothSolver:  Solving for Uy, Initial residual = 0.06716378332593609, Final residual = 0.005952436825462427, No Iterations 13
smoothSolver:  Solving for Uz, Initial residual = 0.06516467781690528, Final residual = 0.006305116996852208, No Iterations 12
[INFO] MomentumPredictor: 1320.334 [ms]
[INFO] MatrixAssemblyPI: 260.972 [ms]
[INFO] MatrixAssemblyPII: 129.904 [ms]
GAMG:  Solving for p, Initial residual = 0.05771085816788307, Final residual = 0.0004939718484182453, No Iterations 5
[INFO] SolveP: 779.025 [ms]
time step continuity errors : sum local = 0.004946711071871669, global = 3.137464237500132e-05, cumulative = 0.0003404246483279928
[INFO] postSolveP: 69.04000000000001 [ms]
smoothSolver:  Solving for nuTilda, Initial residual = 0.02074285388012331, Final residual = 0.001241118841726247, No Iterations 3
[INFO] TimeStep: 5149.016 [ms]
ExecutionTime = 276.46 s  ClockTime = 278 s

Time = 39

velocityDampingConstraint velocityDamping damped 0 (0%) of cells, with max limit 300
[INFO] MatrixAssemblyU: 1594.53 [ms]
smoothSolver:  Solving for Ux, Initial residual = 0.01200129740278413, Final residual = 0.001174963854858343, No Iterations 12
smoothSolver:  Solving for Uy, Initial residual = 0.0686043295942807, Final residual = 0.006114930814753248, No Iterations 13
smoothSolver:  Solving for Uz, Initial residual = 0.06761858304688906, Final residual = 0.006521145881457776, No Iterations 12
[INFO] MomentumPredictor: 1320.735 [ms]
[INFO] MatrixAssemblyPI: 261.269 [ms]
[INFO] MatrixAssemblyPII: 129.896 [ms]
GAMG:  Solving for p, Initial residual = 0.05789775183845444, Final residual = 0.0005207412993753869, No Iterations 5
[INFO] SolveP: 780.703 [ms]
time step continuity errors : sum local = 0.005234354340519525, global = 2.078349641519487e-05, cumulative = 0.0003612081447431877
[INFO] postSolveP: 68.977 [ms]
smoothSolver:  Solving for nuTilda, Initial residual = 0.01354254913238677, Final residual = 0.001230814545345719, No Iterations 3
[INFO] TimeStep: 5147.995 [ms]
ExecutionTime = 282.86 s  ClockTime = 284 s

Time = 40

velocityDampingConstraint velocityDamping damped 0 (0%) of cells, with max limit 300
[INFO] MatrixAssemblyU: 1593.331 [ms]
smoothSolver:  Solving for Ux, Initial residual = 0.01213447254157109, Final residual = 0.001184690286301411, No Iterations 12
smoothSolver:  Solving for Uy, Initial residual = 0.06968950786672186, Final residual = 0.00626834990081584, No Iterations 13
smoothSolver:  Solving for Uz, Initial residual = 0.06932391263011034, Final residual = 0.006747591748587532, No Iterations 12
[INFO] MomentumPredictor: 1323.14 [ms]
[INFO] MatrixAssemblyPI: 260.598 [ms]
[INFO] MatrixAssemblyPII: 129.498 [ms]
GAMG:  Solving for p, Initial residual = 0.05802337642432055, Final residual = 0.0005274546452604092, No Iterations 5
[INFO] SolveP: 779.1180000000001 [ms]
time step continuity errors : sum local = 0.005307714252279295, global = 7.533821829078717e-06, cumulative = 0.0003687419665722664
[INFO] postSolveP: 69.221 [ms]
smoothSolver:  Solving for nuTilda, Initial residual = 0.01961823371193355, Final residual = 0.001175516589702174, No Iterations 3
[INFO] TimeStep: 5146.977 [ms]
ExecutionTime = 289.26 s  ClockTime = 291 s

Time = 41

velocityDampingConstraint velocityDamping damped 0 (0%) of cells, with max limit 300
[INFO] MatrixAssemblyU: 1591.623 [ms]
smoothSolver:  Solving for Ux, Initial residual = 0.01205448121372059, Final residual = 0.00119273682548982, No Iterations 12
smoothSolver:  Solving for Uy, Initial residual = 0.07023063618723691, Final residual = 0.006413642485586222, No Iterations 13
smoothSolver:  Solving for Uz, Initial residual = 0.07037282815040806, Final residual = 0.006934982321851204, No Iterations 12
[INFO] MomentumPredictor: 1322.242 [ms]
[INFO] MatrixAssemblyPI: 261.892 [ms]
[INFO] MatrixAssemblyPII: 129.509 [ms]
GAMG:  Solving for p, Initial residual = 0.05749784842785026, Final residual = 0.00049868771976914, No Iterations 5
[INFO] SolveP: 780.116 [ms]
time step continuity errors : sum local = 0.005017830794190174, global = 5.14688861809062e-07, cumulative = 0.0003692566554340755
[INFO] postSolveP: 69.01600000000001 [ms]
smoothSolver:  Solving for nuTilda, Initial residual = 0.01292061375593144, Final residual = 0.001167171158499177, No Iterations 3
[INFO] TimeStep: 5147.808 [ms]
ExecutionTime = 295.66 s  ClockTime = 297 s

Time = 42

velocityDampingConstraint velocityDamping damped 0 (0%) of cells, with max limit 300
[INFO] MatrixAssemblyU: 1591.351 [ms]
smoothSolver:  Solving for Ux, Initial residual = 0.01209945187589541, Final residual = 0.001199650856782132, No Iterations 12
smoothSolver:  Solving for Uy, Initial residual = 0.07069031932005652, Final residual = 0.006594222454209041, No Iterations 13
smoothSolver:  Solving for Uz, Initial residual = 0.07089859830015643, Final residual = 0.006037831973008939, No Iterations 13
[INFO] MomentumPredictor: 1349.601 [ms]
[INFO] MatrixAssemblyPI: 260.596 [ms]
[INFO] MatrixAssemblyPII: 129.959 [ms]
GAMG:  Solving for p, Initial residual = 0.05718946179466851, Final residual = 0.0004716650583280803, No Iterations 5
[INFO] SolveP: 779.38 [ms]
time step continuity errors : sum local = 0.004734978434867567, global = -9.568665832073125e-06, cumulative = 0.0003596879896020024
[INFO] postSolveP: 69.142 [ms]
smoothSolver:  Solving for nuTilda, Initial residual = 0.01860760785589929, Final residual = 0.001118946641114165, No Iterations 3
[INFO] TimeStep: 5172.95 [ms]
ExecutionTime = 302.07 s  ClockTime = 304 s

Time = 43

velocityDampingConstraint velocityDamping damped 0 (0%) of cells, with max limit 300
[INFO] MatrixAssemblyU: 1589.077 [ms]
smoothSolver:  Solving for Ux, Initial residual = 0.01200868603931354, Final residual = 0.001028192471874778, No Iterations 13
smoothSolver:  Solving for Uy, Initial residual = 0.07141313708199271, Final residual = 0.006811127069096153, No Iterations 13
smoothSolver:  Solving for Uz, Initial residual = 0.07059548221087963, Final residual = 0.006129158148770991, No Iterations 13
[INFO] MomentumPredictor: 1377.552 [ms]
[INFO] MatrixAssemblyPI: 260.832 [ms]
[INFO] MatrixAssemblyPII: 129.533 [ms]
GAMG:  Solving for p, Initial residual = 0.05656821211276854, Final residual = 0.0004720830616322976, No Iterations 5
[INFO] SolveP: 778.973 [ms]
time step continuity errors : sum local = 0.004716795180024639, global = -1.583338651541964e-05, cumulative = 0.0003438546030865827
[INFO] postSolveP: 69.172 [ms]
smoothSolver:  Solving for nuTilda, Initial residual = 0.01238536222807438, Final residual = 0.001109689751493823, No Iterations 3
[INFO] TimeStep: 5197.432 [ms]
ExecutionTime = 308.52 s  ClockTime = 310 s

Time = 44

velocityDampingConstraint velocityDamping damped 0 (0%) of cells, with max limit 300
[INFO] MatrixAssemblyU: 1587.993 [ms]
smoothSolver:  Solving for Ux, Initial residual = 0.01203125251039284, Final residual = 0.001036664949944108, No Iterations 13
smoothSolver:  Solving for Uy, Initial residual = 0.07186689970121656, Final residual = 0.007010170261219311, No Iterations 13
smoothSolver:  Solving for Uz, Initial residual = 0.07005582091984711, Final residual = 0.006210097777795551, No Iterations 13
[INFO] MomentumPredictor: 1383.183 [ms]
[INFO] MatrixAssemblyPI: 260.702 [ms]
[INFO] MatrixAssemblyPII: 129.655 [ms]
GAMG:  Solving for p, Initial residual = 0.05602766360240009, Final residual = 0.000487383769376064, No Iterations 5
[INFO] SolveP: 777.53 [ms]
time step continuity errors : sum local = 0.004822347148945749, global = -1.56063735104806e-05, cumulative = 0.0003282482295761021
[INFO] postSolveP: 69.393 [ms]
smoothSolver:  Solving for nuTilda, Initial residual = 0.01765400337458872, Final residual = 0.001066006485115266, No Iterations 3
[INFO] TimeStep: 5199.233 [ms]
ExecutionTime = 314.96 s  ClockTime = 316 s

Time = 45

velocityDampingConstraint velocityDamping damped 0 (0%) of cells, with max limit 300
[INFO] MatrixAssemblyU: 1586.244 [ms]
smoothSolver:  Solving for Ux, Initial residual = 0.01189949525184444, Final residual = 0.001045039772542087, No Iterations 13
smoothSolver:  Solving for Uy, Initial residual = 0.07198078949117392, Final residual = 0.007135307738978945, No Iterations 13
smoothSolver:  Solving for Uz, Initial residual = 0.06925159155381377, Final residual = 0.006272927760522227, No Iterations 13
[INFO] MomentumPredictor: 1378.44 [ms]
[INFO] MatrixAssemblyPI: 260.99 [ms]
[INFO] MatrixAssemblyPII: 129.594 [ms]
GAMG:  Solving for p, Initial residual = 0.05560339353087791, Final residual = 0.0004861671411495766, No Iterations 5
[INFO] SolveP: 779.352 [ms]
time step continuity errors : sum local = 0.004743418385265937, global = -7.909217583736653e-07, cumulative = 0.0003274573078177285
[INFO] postSolveP: 68.932 [ms]
smoothSolver:  Solving for nuTilda, Initial residual = 0.01184084979630068, Final residual = 0.001054930473120476, No Iterations 3
[INFO] TimeStep: 5195.059 [ms]
ExecutionTime = 321.4 s  ClockTime = 323 s

Time = 46

velocityDampingConstraint velocityDamping damped 0 (0%) of cells, with max limit 300
[INFO] MatrixAssemblyU: 1585.747 [ms]
smoothSolver:  Solving for Ux, Initial residual = 0.01177729587340309, Final residual = 0.001048929126075915, No Iterations 13
smoothSolver:  Solving for Uy, Initial residual = 0.07198087855090694, Final residual = 0.006151464536560755, No Iterations 14
smoothSolver:  Solving for Uz, Initial residual = 0.06802218857931561, Final residual = 0.006325531290958869, No Iterations 13
[INFO] MomentumPredictor: 1421.827 [ms]
[INFO] MatrixAssemblyPI: 261.333 [ms]
[INFO] MatrixAssemblyPII: 129.833 [ms]
GAMG:  Solving for p, Initial residual = 0.05493200219283716, Final residual = 0.00047425883324756, No Iterations 5
[INFO] SolveP: 780.006 [ms]
time step continuity errors : sum local = 0.004579829872136798, global = 1.7957979821464e-05, cumulative = 0.0003454152876391925
[INFO] postSolveP: 69.48999999999999 [ms]
smoothSolver:  Solving for nuTilda, Initial residual = 0.01675911077861179, Final residual = 0.001016108062854408, No Iterations 3
[INFO] TimeStep: 5240.751 [ms]
ExecutionTime = 327.89 s  ClockTime = 329 s

Time = 47

velocityDampingConstraint velocityDamping damped 0 (0%) of cells, with max limit 300
[INFO] MatrixAssemblyU: 1587.338 [ms]
smoothSolver:  Solving for Ux, Initial residual = 0.0115370601092137, Final residual = 0.001054091346729867, No Iterations 13
smoothSolver:  Solving for Uy, Initial residual = 0.07167045261206488, Final residual = 0.006154230385092154, No Iterations 14
smoothSolver:  Solving for Uz, Initial residual = 0.06671963186878711, Final residual = 0.006367032672414221, No Iterations 13
[INFO] MomentumPredictor: 1406.009 [ms]
[INFO] MatrixAssemblyPI: 261.054 [ms]
[INFO] MatrixAssemblyPII: 129.984 [ms]
GAMG:  Solving for p, Initial residual = 0.05422443851277433, Final residual = 0.0004706511071866885, No Iterations 5
[INFO] SolveP: 780.881 [ms]
time step continuity errors : sum local = 0.004516165786962355, global = 3.510654023528802e-05, cumulative = 0.0003805218278744805
[INFO] postSolveP: 69.06 [ms]
smoothSolver:  Solving for nuTilda, Initial residual = 0.01130698729423275, Final residual = 0.001006334267022069, No Iterations 3
[INFO] TimeStep: 5226.373 [ms]
ExecutionTime = 334.36 s  ClockTime = 336 s

Time = 48

velocityDampingConstraint velocityDamping damped 0 (0%) of cells, with max limit 300
[INFO] MatrixAssemblyU: 1585.552 [ms]
smoothSolver:  Solving for Ux, Initial residual = 0.01149188372637796, Final residual = 0.001059336775464227, No Iterations 13
smoothSolver:  Solving for Uy, Initial residual = 0.07135244865057712, Final residual = 0.006152168267713026, No Iterations 14
smoothSolver:  Solving for Uz, Initial residual = 0.06556880679230495, Final residual = 0.006360543608848138, No Iterations 13
[INFO] MomentumPredictor: 1415.773 [ms]
[INFO] MatrixAssemblyPI: 260.888 [ms]
[INFO] MatrixAssemblyPII: 129.688 [ms]
GAMG:  Solving for p, Initial residual = 0.05335336731401217, Final residual = 0.000475252946605853, No Iterations 5
[INFO] SolveP: 778.401 [ms]
time step continuity errors : sum local = 0.004528564608134604, global = 3.32332921878836e-05, cumulative = 0.0004137551200623641
[INFO] postSolveP: 69.437 [ms]
smoothSolver:  Solving for nuTilda, Initial residual = 0.01596138018104074, Final residual = 0.0009741251038358123, No Iterations 3
[INFO] TimeStep: 5228.309 [ms]
ExecutionTime = 340.83 s  ClockTime = 342 s

Time = 49

velocityDampingConstraint velocityDamping damped 0 (0%) of cells, with max limit 300
[INFO] MatrixAssemblyU: 1585.402 [ms]
smoothSolver:  Solving for Ux, Initial residual = 0.01138434578153657, Final residual = 0.001063358863217177, No Iterations 13
smoothSolver:  Solving for Uy, Initial residual = 0.0707382582302067, Final residual = 0.006131098694207322, No Iterations 14
smoothSolver:  Solving for Uz, Initial residual = 0.06456066705056257, Final residual = 0.006339937085634267, No Iterations 13
[INFO] MomentumPredictor: 1437.085 [ms]
[INFO] MatrixAssemblyPI: 260.61 [ms]
[INFO] MatrixAssemblyPII: 129.669 [ms]
GAMG:  Solving for p, Initial residual = 0.05271560651813625, Final residual = 0.0004790431297443547, No Iterations 5
[INFO] SolveP: 780.307 [ms]
time step continuity errors : sum local = 0.00453688832422342, global = 2.081177172525115e-05, cumulative = 0.0004345668917876153
[INFO] postSolveP: 69.348 [ms]
smoothSolver:  Solving for nuTilda, Initial residual = 0.01085540722813108, Final residual = 0.0009678664795391609, No Iterations 3
[INFO] TimeStep: 5252.041 [ms]
ExecutionTime = 347.32 s  ClockTime = 349 s

Time = 50

velocityDampingConstraint velocityDamping damped 0 (0%) of cells, with max limit 300
[INFO] MatrixAssemblyU: 1582.266 [ms]
smoothSolver:  Solving for Ux, Initial residual = 0.01139013497110952, Final residual = 0.001065251941652232, No Iterations 13
smoothSolver:  Solving for Uy, Initial residual = 0.06978261776668639, Final residual = 0.006063960448464228, No Iterations 14
smoothSolver:  Solving for Uz, Initial residual = 0.06362413201800889, Final residual = 0.006307588153948944, No Iterations 13
[INFO] MomentumPredictor: 1413.177 [ms]
[INFO] MatrixAssemblyPI: 260.534 [ms]
[INFO] MatrixAssemblyPII: 129.668 [ms]
GAMG:  Solving for p, Initial residual = 0.05248214664315848, Final residual = 0.00049018912848393, No Iterations 5
[INFO] SolveP: 778.985 [ms]
time step continuity errors : sum local = 0.004606530814285617, global = 2.578877548248338e-06, cumulative = 0.0004371457693358636
[INFO] postSolveP: 69.486 [ms]
smoothSolver:  Solving for nuTilda, Initial residual = 0.0152691145102329, Final residual = 0.000941181053137586, No Iterations 3
[INFO] TimeStep: 5226.16 [ms]
ExecutionTime = 353.79 s  ClockTime = 355 s

End

Finalising parallel run
