/*---------------------------------------------------------------------------*\
| =========                 |                                                 |
| \\      /  F ield         | OpenFOAM: The Open Source CFD Toolbox           |
|  \\    /   O peration     | Version:  2306                                  |
|   \\  /    A nd           | Website:  www.openfoam.com                      |
|    \\/     M anipulation  |                                                 |
\*---------------------------------------------------------------------------*/
Build  : a6e826bd55-20230630 OPENFOAM=2306 version=v2306
Arch   : "LSB;label=32;scalar=64"
Exec   : icoFoam -parallel -case /tmp/lidDrivenCavity/workspace/0892108c0924d24b955c55ab41008332/case
Date   : Jan 10 2024
Time   : 10:39:57
Host   : nla-gpu2.ianm.kit.edu
PID    : 419205
I/O    : uncollated
Case   : /tmp/lidDrivenCavity/workspace/0892108c0924d24b955c55ab41008332/case
nProcs : 16
Hosts  :
(
    (nla-gpu2.ianm.kit.edu 16)
)
Pstream initialized with:
    floatTransfer      : false
    nProcsSimpleSum    : 0
    nonBlockingExchange: 0 (tuning: 0)
    exchange algorithm : -1
    commsType          : nonBlocking
    polling iterations : 0
trapFpe: Floating point exception trapping enabled (FOAM_SIGFPE).
fileModificationChecking : Monitoring run-time modified files using timeStampMaster (fileModificationSkew 5, maxFileModificationPolls 20)
allowSystemOperations : Allowing user-supplied system call operations

// * * * * * * * * * * * * * * * * * * * * * * * * * * * * * * * * * * * * * //
Create time

--> FOAM Warning : 
    From void* Foam::dlLibraryTable::openLibrary(const Foam::fileName&, bool)
    in file db/dynamicLibrary/dlLibraryTable/dlLibraryTable.C at line 188
    Could not load "libpetscFoam.so"
libpetscFoam.so: cannot open shared object file: No such file or directory
Create mesh for time = 0


PISO: Operating solver in PISO mode

Reading transportProperties

Reading field p

Reading field U

Reading/calculating face flux field phi


Starting time loop

Time = 0.000125

Courant Number mean: 8.02505e-18 max: 4.85723e-14
[INFO] MatrixAssemblyU: 578.978 [ms]
DILUPBiCGStab:  Solving for Ux, Initial residual = 1, Final residual = 0.0215184, No Iterations 5
DILUPBiCGStab:  Solving for Uy:  solution singularity
DILUPBiCGStab:  Solving for Uz:  solution singularity
[INFO] MomentumPredictor: 2242.29 [ms]
[INFO] MatrixAssemblyPI: 587.025 [ms]
[INFO] AdjustPhi: 33.227 [ms]
[INFO] ConstrainPressure: 0.014 [ms]
[INFO] MatrixAssemblyPII: 168.131 [ms]
[OGL LOG][lduLduBase.H:119] Initialising OGL
	OGL commit:  82f220c+
	Branch: feat/on_device_permute 
	Build type: Release
	Ginkgo version: 1.8.0 ( develop)
	Ginkgo commit: sparse-communicator
	MPI is GPU aware: 1
	Forces host buffer based communication: 0
	CPU ranks per GPU: 1
	Matrix format: Ell
	End OGL_INFO
[OGL LOG][Proc: 0]: global_index_init: 12.444 [ms]
[OGL LOG][Proc: 0]p_local_cols: call_init: 0.041 [ms]
[OGL LOG][Proc: 0]p_local_rows: call_init: 0.003 [ms]
[OGL LOG][Proc: 0]p_local_ldu_map: call_init: 0.012 [ms]
[OGL LOG][Proc: 0]p_local_coeffs: call_init: 0.458 [ms]
[OGL LOG][Proc: 0]p_non_local_cols: call_init: 0.005 [ms]
[OGL LOG][Proc: 0]p_non_local_rows: call_init: 0.002 [ms]
[OGL LOG][Proc: 0]p_non_local_ldu_map: call_init: 0.002 [ms]
[OGL LOG][Proc: 0]p_non_local_coeffs: call_init: 0.003 [ms]
[OGL LOG][Proc: 0]p: init_local_sparsity_pattern: 1096.63 [ms]
[OGL LOG][Proc: 0]p: init_non_local_sparsity_pattern: 7.18 [ms]
[OGL LOG][Proc: 0]p: update_local_matrix_data: 128.538 [ms]
[OGL LOG][Proc: 0]p: update_non_local_matrix_data: 0.507 [ms]
[OGL LOG][Proc: 0]device_partition: call_init: 0.203 [ms]
[OGL LOG][Proc: 0]p_matrix: call_init: 337.364 [ms]
[OGL LOG][Proc: 0]p_rhs: call_init: 36.932 [ms]
[OGL LOG][Proc: 0]p_solution: call_init: 3.615 [ms]
[OGL LOG][Proc: 0]p: init_precond: 0.116 [ms]
[OGL LOG][StoppingCriterion.H:239] Creating stopping criterion with minIter 0 frequency 1
[OGL LOG][Proc: 0]p: generate_solver: 0.034 [ms]
[OGL LOG][Proc: 0]p: solve: 11542.6 [ms]
[OGL LOG][Proc: 0]p: copy_x_back: 12.404 [ms]
[OGL LOG][lduLduBase.H:330] 
Statistics:
	Time per iteration: 3549 [mu s]
	Time per residual norm calculation: 1259.000000 [mu s]
	Time per iteration and DOF: 0.055453 [ns]
	Retrieve results bandwidth 2.579000 [GByte/s]
[OGL LOG][Proc: 0]p: solve_multi_gpu: 11953.5 [ms]
nonehipGKOCG:  Solving for p, Initial residual = 1, Final residual = 9.90334e-05, No Iterations 3252
[INFO] SolveP: 13458.7 [ms]
time step continuity errors : sum local = 2.51223e-09, global = 2.86768e-22, cumulative = 2.86768e-22
[INFO] ContinuityError: 72.633 [ms]
[INFO] CorrectBoundary: 3.114 [ms]
[INFO] PISOStep: 14509.8 [ms]
[INFO] MatrixAssemblyPI: 554.214 [ms]
[INFO] AdjustPhi: 38.984 [ms]
[INFO] ConstrainPressure: 0.005 [ms]
[INFO] MatrixAssemblyPII: 167.606 [ms]
[OGL LOG][Proc: 0]: global_index_init: 0.341 [ms]
[OGL LOG][Proc: 0]p_local_coeffs: call_update: 0.004 [ms]
[OGL LOG][Proc: 0]p_non_local_coeffs: call_update: 0 [ms]
[OGL LOG][Proc: 0]p: update_local_matrix_data: 92.942 [ms]
[OGL LOG][Proc: 0]p: update_non_local_matrix_data: 0.449 [ms]
[OGL LOG][Proc: 0]p: regenerate_distributed_matrix: 326.618 [ms]
[OGL LOG][Proc: 0]p_matrix: call_update: 338.106 [ms]
[OGL LOG][Proc: 0]p_rhs: call_update: 31.36 [ms]
[OGL LOG][Proc: 0]p: init_precond: 0.082 [ms]
[OGL LOG][StoppingCriterion.H:239] Creating stopping criterion with minIter 1951 frequency 25
[OGL LOG][Proc: 0]p: generate_solver: 0.004 [ms]
[OGL LOG][Proc: 0]p: solve: 8547.28 [ms]
[OGL LOG][Proc: 0]p: copy_x_back: 15.251 [ms]
[OGL LOG][lduLduBase.H:330] 
Statistics:
	Time per iteration: 2629 [mu s]
	Time per residual norm calculation: 422.000000 [mu s]
	Time per iteration and DOF: 0.041078 [ns]
	Retrieve results bandwidth 2.098000 [GByte/s]
[OGL LOG][Proc: 0]p: solve_multi_gpu: 8946.59 [ms]
nonehipGKOCG:  Solving for p, Initial residual = 0.822079, Final residual = 7.84161e-05, No Iterations 3251
[INFO] SolveP: 9062.75 [ms]
time step continuity errors : sum local = 2.39667e-09, global = 5.76965e-22, cumulative = 8.63733e-22
[INFO] ContinuityError: 68.767 [ms]
[INFO] CorrectBoundary: 4.034 [ms]
[INFO] PISOStep: 10084.2 [ms]
[INFO] TimeStep: 27485.7 [ms]
ExecutionTime = 35.83 s  ClockTime = 30 s

Time = 0.00025

Courant Number mean: 0.0108529 max: 0.437705
[INFO] MatrixAssemblyU: 493.879 [ms]
DILUPBiCGStab:  Solving for Ux, Initial residual = 0.108168, Final residual = 0.0134444, No Iterations 5
DILUPBiCGStab:  Solving for Uy, Initial residual = 0.484635, Final residual = 0.0521708, No Iterations 5
DILUPBiCGStab:  Solving for Uz, Initial residual = 0.990104, Final residual = 0.118541, No Iterations 5
[INFO] MomentumPredictor: 4221.4 [ms]
[INFO] MatrixAssemblyPI: 574.831 [ms]
[INFO] AdjustPhi: 31.658 [ms]
[INFO] ConstrainPressure: 0.005 [ms]
[INFO] MatrixAssemblyPII: 166.83 [ms]
[OGL LOG][Proc: 0]: global_index_init: 0.033 [ms]
[OGL LOG][Proc: 0]p_local_coeffs: call_update: 0 [ms]
[OGL LOG][Proc: 0]p_non_local_coeffs: call_update: 0 [ms]
[OGL LOG][Proc: 0]p: update_local_matrix_data: 108.819 [ms]
[OGL LOG][Proc: 0]p: update_non_local_matrix_data: 0.378 [ms]
[OGL LOG][Proc: 0]p: regenerate_distributed_matrix: 307.115 [ms]
[OGL LOG][Proc: 0]p_matrix: call_update: 309.632 [ms]
[OGL LOG][Proc: 0]p_rhs: call_update: 27.941 [ms]
[OGL LOG][Proc: 0]p: init_precond: 0.061 [ms]
[OGL LOG][StoppingCriterion.H:239] Creating stopping criterion with minIter 1950 frequency 14
[OGL LOG][Proc: 0]p: generate_solver: 0.004 [ms]
[OGL LOG][Proc: 0]p: solve: 8374.11 [ms]
[OGL LOG][Proc: 0]p: copy_x_back: 12.451 [ms]
[OGL LOG][lduLduBase.H:330] 
Statistics:
	Time per iteration: 2622 [mu s]
	Time per residual norm calculation: 428.000000 [mu s]
	Time per iteration and DOF: 0.040969 [ns]
	Retrieve results bandwidth 2.570000 [GByte/s]
[OGL LOG][Proc: 0]p: solve_multi_gpu: 8734.63 [ms]
nonehipGKOCG:  Solving for p, Initial residual = 0.906407, Final residual = 9.21399e-05, No Iterations 3193
[INFO] SolveP: 8865.51 [ms]
time step continuity errors : sum local = 6.4825e-09, global = -2.13296e-22, cumulative = 6.50437e-22
[INFO] ContinuityError: 72.39 [ms]
[INFO] CorrectBoundary: 2.874 [ms]
[INFO] PISOStep: 9901.84 [ms]
[INFO] MatrixAssemblyPI: 556.522 [ms]
[INFO] AdjustPhi: 34.27 [ms]
[INFO] ConstrainPressure: 0.004 [ms]
[INFO] MatrixAssemblyPII: 168.159 [ms]
[OGL LOG][Proc: 0]: global_index_init: 0.036 [ms]
[OGL LOG][Proc: 0]p_local_coeffs: call_update: 0 [ms]
[OGL LOG][Proc: 0]p_non_local_coeffs: call_update: 0 [ms]
[OGL LOG][Proc: 0]p: update_local_matrix_data: 106.18 [ms]
[OGL LOG][Proc: 0]p: update_non_local_matrix_data: 0.381 [ms]
[OGL LOG][Proc: 0]p: regenerate_distributed_matrix: 299.107 [ms]
[OGL LOG][Proc: 0]p_matrix: call_update: 301.662 [ms]
[OGL LOG][Proc: 0]p_rhs: call_update: 33.006 [ms]
[OGL LOG][Proc: 0]p: init_precond: 0.065 [ms]
[OGL LOG][StoppingCriterion.H:239] Creating stopping criterion with minIter 1915 frequency 14
[OGL LOG][Proc: 0]p: generate_solver: 0.004 [ms]
[OGL LOG][Proc: 0]p: solve: 8480.15 [ms]
[OGL LOG][Proc: 0]p: copy_x_back: 13.433 [ms]
[OGL LOG][lduLduBase.H:330] 
Statistics:
	Time per iteration: 2655 [mu s]
	Time per residual norm calculation: 441.000000 [mu s]
	Time per iteration and DOF: 0.041484 [ns]
	Retrieve results bandwidth 2.382000 [GByte/s]
[OGL LOG][Proc: 0]p: solve_multi_gpu: 8838.72 [ms]
nonehipGKOCG:  Solving for p, Initial residual = 0.857637, Final residual = 8.53556e-05, No Iterations 3193
[INFO] SolveP: 8969.13 [ms]
time step continuity errors : sum local = 6.1167e-09, global = 5.55557e-22, cumulative = 1.20599e-21
[INFO] ContinuityError: 68.405 [ms]
[INFO] CorrectBoundary: 1.102 [ms]
[INFO] PISOStep: 9987.64 [ms]
[INFO] TimeStep: 24672.4 [ms]
ExecutionTime = 67.36 s  ClockTime = 55 s

Time = 0.000375

Courant Number mean: 0.0169458 max: 0.511447
[INFO] MatrixAssemblyU: 499.874 [ms]
DILUPBiCGStab:  Solving for Ux, Initial residual = 0.0536856, Final residual = 0.00543537, No Iterations 5
DILUPBiCGStab:  Solving for Uy, Initial residual = 0.261641, Final residual = 0.0262828, No Iterations 5
DILUPBiCGStab:  Solving for Uz, Initial residual = 0.870807, Final residual = 0.0864669, No Iterations 5
[INFO] MomentumPredictor: 4191.13 [ms]
[INFO] MatrixAssemblyPI: 574.072 [ms]
[INFO] AdjustPhi: 31.695 [ms]
[INFO] ConstrainPressure: 0.005 [ms]
[INFO] MatrixAssemblyPII: 168.508 [ms]
[OGL LOG][Proc: 0]: global_index_init: 0.035 [ms]
[OGL LOG][Proc: 0]p_local_coeffs: call_update: 0 [ms]
[OGL LOG][Proc: 0]p_non_local_coeffs: call_update: 0 [ms]
[OGL LOG][Proc: 0]p: update_local_matrix_data: 96.897 [ms]
[OGL LOG][Proc: 0]p: update_non_local_matrix_data: 0.396 [ms]
[OGL LOG][Proc: 0]p: regenerate_distributed_matrix: 290.961 [ms]
[OGL LOG][Proc: 0]p_matrix: call_update: 293.473 [ms]
[OGL LOG][Proc: 0]p_rhs: call_update: 38.635 [ms]
[OGL LOG][Proc: 0]p: init_precond: 0.066 [ms]
[OGL LOG][StoppingCriterion.H:239] Creating stopping criterion with minIter 1915 frequency 14
[OGL LOG][Proc: 0]p: generate_solver: 0.005 [ms]
[OGL LOG][Proc: 0]p: solve: 5101.06 [ms]
[OGL LOG][Proc: 0]p: copy_x_back: 10.905 [ms]
[OGL LOG][lduLduBase.H:330] 
Statistics:
	Time per iteration: 2658 [mu s]
	Time per residual norm calculation: 439.000000 [mu s]
	Time per iteration and DOF: 0.041531 [ns]
	Retrieve results bandwidth 2.934000 [GByte/s]
[OGL LOG][Proc: 0]p: solve_multi_gpu: 5458.74 [ms]
nonehipGKOCG:  Solving for p, Initial residual = 0.940884, Final residual = 3.90275e-05, No Iterations 1919
[INFO] SolveP: 5576.46 [ms]
time step continuity errors : sum local = 3.68139e-09, global = -1.33305e-22, cumulative = 1.07269e-21
[INFO] ContinuityError: 68.962 [ms]
[INFO] CorrectBoundary: 1.013 [ms]
[INFO] PISOStep: 6610.66 [ms]
[INFO] MatrixAssemblyPI: 560.384 [ms]
[INFO] AdjustPhi: 28.655 [ms]
[INFO] ConstrainPressure: 0.004 [ms]
[INFO] MatrixAssemblyPII: 167.455 [ms]
[OGL LOG][Proc: 0]: global_index_init: 0.088 [ms]
[OGL LOG][Proc: 0]p_local_coeffs: call_update: 0 [ms]
[OGL LOG][Proc: 0]p_non_local_coeffs: call_update: 0 [ms]
[OGL LOG][Proc: 0]p: update_local_matrix_data: 107.086 [ms]
[OGL LOG][Proc: 0]p: update_non_local_matrix_data: 0.364 [ms]
[OGL LOG][Proc: 0]p: regenerate_distributed_matrix: 302.432 [ms]
[OGL LOG][Proc: 0]p_matrix: call_update: 304.914 [ms]
[OGL LOG][Proc: 0]p_rhs: call_update: 31.18 [ms]
[OGL LOG][Proc: 0]p: init_precond: 0.059 [ms]
[OGL LOG][StoppingCriterion.H:239] Creating stopping criterion with minIter 1151 frequency 11
[OGL LOG][Proc: 0]p: generate_solver: 0.004 [ms]
[OGL LOG][Proc: 0]p: solve: 4144.63 [ms]
[OGL LOG][Proc: 0]p: copy_x_back: 12.011 [ms]
[OGL LOG][lduLduBase.H:330] 
Statistics:
	Time per iteration: 2689 [mu s]
	Time per residual norm calculation: 422.000000 [mu s]
	Time per iteration and DOF: 0.042016 [ns]
	Retrieve results bandwidth 2.664000 [GByte/s]
[OGL LOG][Proc: 0]p: solve_multi_gpu: 4506.25 [ms]
nonehipGKOCG:  Solving for p, Initial residual = 0.908693, Final residual = 9.1188e-05, No Iterations 1541
[INFO] SolveP: 4634.3 [ms]
time step continuity errors : sum local = 8.07493e-09, global = 1.0243e-22, cumulative = 1.17512e-21
[INFO] ContinuityError: 67.922 [ms]
[INFO] CorrectBoundary: 0.922 [ms]
[INFO] PISOStep: 5650.84 [ms]
[INFO] TimeStep: 17019.9 [ms]
ExecutionTime = 88.11 s  ClockTime = 72 s

Time = 0.0005

Courant Number mean: 0.020555 max: 0.47757
[INFO] MatrixAssemblyU: 499.714 [ms]
DILUPBiCGStab:  Solving for Ux, Initial residual = 0.0416124, Final residual = 0.00503628, No Iterations 5
DILUPBiCGStab:  Solving for Uy, Initial residual = 0.213836, Final residual = 0.0241569, No Iterations 5
DILUPBiCGStab:  Solving for Uz, Initial residual = 0.783009, Final residual = 0.0636327, No Iterations 5
[INFO] MomentumPredictor: 4178.63 [ms]
[INFO] MatrixAssemblyPI: 575.077 [ms]
[INFO] AdjustPhi: 31.43 [ms]
[INFO] ConstrainPressure: 0.005 [ms]
[INFO] MatrixAssemblyPII: 168.274 [ms]
[OGL LOG][Proc: 0]: global_index_init: 0.035 [ms]
[OGL LOG][Proc: 0]p_local_coeffs: call_update: 0 [ms]
[OGL LOG][Proc: 0]p_non_local_coeffs: call_update: 0 [ms]
[OGL LOG][Proc: 0]p: update_local_matrix_data: 98.589 [ms]
[OGL LOG][Proc: 0]p: update_non_local_matrix_data: 0.413 [ms]
[OGL LOG][Proc: 0]p: regenerate_distributed_matrix: 302.309 [ms]
[OGL LOG][Proc: 0]p_matrix: call_update: 304.88 [ms]
[OGL LOG][Proc: 0]p_rhs: call_update: 31.445 [ms]
[OGL LOG][Proc: 0]p: init_precond: 0.08 [ms]
[OGL LOG][StoppingCriterion.H:239] Creating stopping criterion with minIter 924 frequency 10
[OGL LOG][Proc: 0]p: generate_solver: 0.004 [ms]
[OGL LOG][Proc: 0]p: solve: 4167.36 [ms]
[OGL LOG][Proc: 0]p: copy_x_back: 12.398 [ms]
[OGL LOG][lduLduBase.H:330] 
Statistics:
	Time per iteration: 2721 [mu s]
	Time per residual norm calculation: 427.000000 [mu s]
	Time per iteration and DOF: 0.042516 [ns]
	Retrieve results bandwidth 2.581000 [GByte/s]
[OGL LOG][Proc: 0]p: solve_multi_gpu: 4528.16 [ms]
nonehipGKOCG:  Solving for p, Initial residual = 0.937502, Final residual = 9.6928e-05, No Iterations 1531
[INFO] SolveP: 4645.95 [ms]
time step continuity errors : sum local = 1.09269e-08, global = 3.98598e-23, cumulative = 1.21498e-21
[INFO] ContinuityError: 70.278 [ms]
[INFO] CorrectBoundary: 1.103 [ms]
[INFO] PISOStep: 5679.64 [ms]
[INFO] MatrixAssemblyPI: 557.644 [ms]
[INFO] AdjustPhi: 33.926 [ms]
[INFO] ConstrainPressure: 0.004 [ms]
[INFO] MatrixAssemblyPII: 167.729 [ms]
[OGL LOG][Proc: 0]: global_index_init: 0.034 [ms]
[OGL LOG][Proc: 0]p_local_coeffs: call_update: 0 [ms]
[OGL LOG][Proc: 0]p_non_local_coeffs: call_update: 0 [ms]
[OGL LOG][Proc: 0]p: update_local_matrix_data: 93.824 [ms]
[OGL LOG][Proc: 0]p: update_non_local_matrix_data: 0.274 [ms]
[OGL LOG][Proc: 0]p: regenerate_distributed_matrix: 310.431 [ms]
[OGL LOG][Proc: 0]p_matrix: call_update: 313.069 [ms]
[OGL LOG][Proc: 0]p_rhs: call_update: 30.58 [ms]
[OGL LOG][Proc: 0]p: init_precond: 0.066 [ms]
[OGL LOG][StoppingCriterion.H:239] Creating stopping criterion with minIter 918 frequency 10
[OGL LOG][Proc: 0]p: generate_solver: 0.005 [ms]
[OGL LOG][Proc: 0]p: solve: 4053.04 [ms]
[OGL LOG][Proc: 0]p: copy_x_back: 11.882 [ms]
[OGL LOG][lduLduBase.H:330] 
Statistics:
	Time per iteration: 2682 [mu s]
	Time per residual norm calculation: 418.000000 [mu s]
	Time per iteration and DOF: 0.041906 [ns]
	Retrieve results bandwidth 2.693000 [GByte/s]
[OGL LOG][Proc: 0]p: solve_multi_gpu: 4421.55 [ms]
nonehipGKOCG:  Solving for p, Initial residual = 0.879883, Final residual = 9.60459e-05, No Iterations 1511
[INFO] SolveP: 4536.65 [ms]
time step continuity errors : sum local = 1.06953e-08, global = 4.74016e-22, cumulative = 1.68899e-21
[INFO] ContinuityError: 68.507 [ms]
[INFO] CorrectBoundary: 1.759 [ms]
[INFO] PISOStep: 5553.88 [ms]
[INFO] TimeStep: 15978.5 [ms]
ExecutionTime = 107.3 s  ClockTime = 88 s

Time = 0.000625

Courant Number mean: 0.0236274 max: 0.556008
[INFO] MatrixAssemblyU: 502.277 [ms]
DILUPBiCGStab:  Solving for Ux, Initial residual = 0.0376173, Final residual = 0.00457166, No Iterations 5
DILUPBiCGStab:  Solving for Uy, Initial residual = 0.184628, Final residual = 0.020086, No Iterations 5
DILUPBiCGStab:  Solving for Uz, Initial residual = 0.755463, Final residual = 0.0549155, No Iterations 5
[INFO] MomentumPredictor: 4185.34 [ms]
[INFO] MatrixAssemblyPI: 571.765 [ms]
[INFO] AdjustPhi: 33.91 [ms]
[INFO] ConstrainPressure: 0.005 [ms]
[INFO] MatrixAssemblyPII: 168.423 [ms]
[OGL LOG][Proc: 0]: global_index_init: 0.042 [ms]
[OGL LOG][Proc: 0]p_local_coeffs: call_update: 0 [ms]
[OGL LOG][Proc: 0]p_non_local_coeffs: call_update: 0 [ms]
[OGL LOG][Proc: 0]p: update_local_matrix_data: 107.637 [ms]
[OGL LOG][Proc: 0]p: update_non_local_matrix_data: 0.423 [ms]
[OGL LOG][Proc: 0]p: regenerate_distributed_matrix: 294.418 [ms]
[OGL LOG][Proc: 0]p_matrix: call_update: 296.907 [ms]
[OGL LOG][Proc: 0]p_rhs: call_update: 17.784 [ms]
[OGL LOG][Proc: 0]p: init_precond: 0.072 [ms]
[OGL LOG][StoppingCriterion.H:239] Creating stopping criterion with minIter 906 frequency 10
[OGL LOG][Proc: 0]p: generate_solver: 0.004 [ms]
[OGL LOG][Proc: 0]p: solve: 8050.51 [ms]
[OGL LOG][Proc: 0]p: copy_x_back: 11.594 [ms]
[OGL LOG][lduLduBase.H:330] 
Statistics:
	Time per iteration: 2621 [mu s]
	Time per residual norm calculation: 423.000000 [mu s]
	Time per iteration and DOF: 0.040953 [ns]
	Retrieve results bandwidth 2.760000 [GByte/s]
[OGL LOG][Proc: 0]p: solve_multi_gpu: 8393.64 [ms]
nonehipGKOCG:  Solving for p, Initial residual = 0.954068, Final residual = 9.07365e-05, No Iterations 3071
[INFO] SolveP: 8522.72 [ms]
time step continuity errors : sum local = 1.12826e-08, global = 2.95459e-22, cumulative = 1.98445e-21
[INFO] ContinuityError: 68.072 [ms]
[INFO] CorrectBoundary: 2.069 [ms]
[INFO] PISOStep: 9556.16 [ms]
[INFO] MatrixAssemblyPI: 556.555 [ms]
[INFO] AdjustPhi: 33.382 [ms]
[INFO] ConstrainPressure: 0.005 [ms]
[INFO] MatrixAssemblyPII: 168.595 [ms]
[OGL LOG][Proc: 0]: global_index_init: 0.153 [ms]
[OGL LOG][Proc: 0]p_local_coeffs: call_update: 0 [ms]
[OGL LOG][Proc: 0]p_non_local_coeffs: call_update: 0 [ms]
[OGL LOG][Proc: 0]p: update_local_matrix_data: 99.091 [ms]
[OGL LOG][Proc: 0]p: update_non_local_matrix_data: 0.29 [ms]
[OGL LOG][Proc: 0]p: regenerate_distributed_matrix: 314.766 [ms]
[OGL LOG][Proc: 0]p_matrix: call_update: 317.254 [ms]
[OGL LOG][Proc: 0]p_rhs: call_update: 21.984 [ms]
[OGL LOG][Proc: 0]p: init_precond: 0.062 [ms]
[OGL LOG][StoppingCriterion.H:239] Creating stopping criterion with minIter 1842 frequency 14
[OGL LOG][Proc: 0]p: generate_solver: 0.004 [ms]
[OGL LOG][Proc: 0]p: solve: 7886.32 [ms]
[OGL LOG][Proc: 0]p: copy_x_back: 12.261 [ms]
[OGL LOG][lduLduBase.H:330] 
Statistics:
	Time per iteration: 2707 [mu s]
	Time per residual norm calculation: 415.000000 [mu s]
	Time per iteration and DOF: 0.042297 [ns]
	Retrieve results bandwidth 2.609000 [GByte/s]
[OGL LOG][Proc: 0]p: solve_multi_gpu: 8254.09 [ms]
nonehipGKOCG:  Solving for p, Initial residual = 0.915122, Final residual = 9.28406e-05, No Iterations 2913
[INFO] SolveP: 8374.61 [ms]
time step continuity errors : sum local = 1.14762e-08, global = 6.3362e-22, cumulative = 2.61807e-21
[INFO] ContinuityError: 67.916 [ms]
[INFO] CorrectBoundary: 0.928 [ms]
[INFO] PISOStep: 9391 [ms]
[INFO] TimeStep: 23701.2 [ms]
ExecutionTime = 137.35 s  ClockTime = 111 s

Time = 0.00075

Courant Number mean: 0.0259662 max: 0.48336
[INFO] MatrixAssemblyU: 498.345 [ms]
DILUPBiCGStab:  Solving for Ux, Initial residual = 0.0354159, Final residual = 0.00433572, No Iterations 5
DILUPBiCGStab:  Solving for Uy, Initial residual = 0.171311, Final residual = 0.0173008, No Iterations 5
DILUPBiCGStab:  Solving for Uz, Initial residual = 0.700325, Final residual = 0.0474754, No Iterations 5
[INFO] MomentumPredictor: 4176.07 [ms]
[INFO] MatrixAssemblyPI: 571.786 [ms]
[INFO] AdjustPhi: 32.947 [ms]
[INFO] ConstrainPressure: 0.004 [ms]
[INFO] MatrixAssemblyPII: 167.188 [ms]
[OGL LOG][Proc: 0]: global_index_init: 0.049 [ms]
[OGL LOG][Proc: 0]p_local_coeffs: call_update: 0 [ms]
[OGL LOG][Proc: 0]p_non_local_coeffs: call_update: 0 [ms]
[OGL LOG][Proc: 0]p: update_local_matrix_data: 95.758 [ms]
[OGL LOG][Proc: 0]p: update_non_local_matrix_data: 0.678 [ms]
[OGL LOG][Proc: 0]p: regenerate_distributed_matrix: 292.175 [ms]
[OGL LOG][Proc: 0]p_matrix: call_update: 294.711 [ms]
[OGL LOG][Proc: 0]p_rhs: call_update: 45.686 [ms]
[OGL LOG][Proc: 0]p: init_precond: 0.07 [ms]
[OGL LOG][StoppingCriterion.H:239] Creating stopping criterion with minIter 1747 frequency 13
[OGL LOG][Proc: 0]p: generate_solver: 0.004 [ms]
[OGL LOG][Proc: 0]p: solve: 8232.08 [ms]
[OGL LOG][Proc: 0]p: copy_x_back: 12.138 [ms]
[OGL LOG][lduLduBase.H:330] 
Statistics:
	Time per iteration: 2659 [mu s]
	Time per residual norm calculation: 441.000000 [mu s]
	Time per iteration and DOF: 0.041547 [ns]
	Retrieve results bandwidth 2.636000 [GByte/s]
[OGL LOG][Proc: 0]p: solve_multi_gpu: 8601.14 [ms]
nonehipGKOCG:  Solving for p, Initial residual = 0.951059, Final residual = 9.51603e-05, No Iterations 3095
[INFO] SolveP: 8719.78 [ms]
time step continuity errors : sum local = 1.36667e-08, global = 8.48041e-22, cumulative = 3.46611e-21
[INFO] ContinuityError: 67.826 [ms]
[INFO] CorrectBoundary: 1.223 [ms]
[INFO] PISOStep: 9751.68 [ms]
[INFO] MatrixAssemblyPI: 556.983 [ms]
[INFO] AdjustPhi: 30.347 [ms]
[INFO] ConstrainPressure: 0.004 [ms]
[INFO] MatrixAssemblyPII: 166.281 [ms]
[OGL LOG][Proc: 0]: global_index_init: 0.039 [ms]
[OGL LOG][Proc: 0]p_local_coeffs: call_update: 0 [ms]
[OGL LOG][Proc: 0]p_non_local_coeffs: call_update: 0 [ms]
[OGL LOG][Proc: 0]p: update_local_matrix_data: 107.433 [ms]
[OGL LOG][Proc: 0]p: update_non_local_matrix_data: 0.292 [ms]
[OGL LOG][Proc: 0]p: regenerate_distributed_matrix: 306.554 [ms]
[OGL LOG][Proc: 0]p_matrix: call_update: 309.07 [ms]
[OGL LOG][Proc: 0]p_rhs: call_update: 27.584 [ms]
[OGL LOG][Proc: 0]p: init_precond: 0.057 [ms]
[OGL LOG][StoppingCriterion.H:239] Creating stopping criterion with minIter 1857 frequency 14
[OGL LOG][Proc: 0]p: generate_solver: 0.004 [ms]
[OGL LOG][Proc: 0]p: solve: 8606.12 [ms]
[OGL LOG][Proc: 0]p: copy_x_back: 13.471 [ms]
[OGL LOG][lduLduBase.H:330] 
Statistics:
	Time per iteration: 2780 [mu s]
	Time per residual norm calculation: 414.000000 [mu s]
	Time per iteration and DOF: 0.043437 [ns]
	Retrieve results bandwidth 2.375000 [GByte/s]
[OGL LOG][Proc: 0]p: solve_multi_gpu: 8974.07 [ms]
nonehipGKOCG:  Solving for p, Initial residual = 0.891063, Final residual = 9.01745e-05, No Iterations 3095
[INFO] SolveP: 9101.78 [ms]
time step continuity errors : sum local = 1.31553e-08, global = 8.40945e-22, cumulative = 4.30706e-21
[INFO] ContinuityError: 71.154 [ms]
[INFO] CorrectBoundary: 1.76 [ms]
[INFO] PISOStep: 10120.4 [ms]
[INFO] TimeStep: 24613.6 [ms]
ExecutionTime = 168.65 s  ClockTime = 136 s

Time = 0.000875

Courant Number mean: 0.0281641 max: 0.612295
[INFO] MatrixAssemblyU: 500.693 [ms]
DILUPBiCGStab:  Solving for Ux, Initial residual = 0.0350314, Final residual = 0.00413844, No Iterations 5
DILUPBiCGStab:  Solving for Uy, Initial residual = 0.176141, Final residual = 0.0164156, No Iterations 5
DILUPBiCGStab:  Solving for Uz, Initial residual = 0.69439, Final residual = 0.0420734, No Iterations 5
[INFO] MomentumPredictor: 4189.79 [ms]
[INFO] MatrixAssemblyPI: 574.115 [ms]
[INFO] AdjustPhi: 30.783 [ms]
[INFO] ConstrainPressure: 0.005 [ms]
[INFO] MatrixAssemblyPII: 167.591 [ms]
[OGL LOG][Proc: 0]: global_index_init: 0.063 [ms]
[OGL LOG][Proc: 0]p_local_coeffs: call_update: 0 [ms]
[OGL LOG][Proc: 0]p_non_local_coeffs: call_update: 0 [ms]
[OGL LOG][Proc: 0]p: update_local_matrix_data: 95.494 [ms]
[OGL LOG][Proc: 0]p: update_non_local_matrix_data: 0.277 [ms]
[OGL LOG][Proc: 0]p: regenerate_distributed_matrix: 295.53 [ms]
[OGL LOG][Proc: 0]p_matrix: call_update: 298.22 [ms]
[OGL LOG][Proc: 0]p_rhs: call_update: 21.637 [ms]
[OGL LOG][Proc: 0]p: init_precond: 0.075 [ms]
[OGL LOG][StoppingCriterion.H:239] Creating stopping criterion with minIter 1857 frequency 14
[OGL LOG][Proc: 0]p: generate_solver: 0.004 [ms]
[OGL LOG][Proc: 0]p: solve: 8395.87 [ms]
[OGL LOG][Proc: 0]p: copy_x_back: 11.265 [ms]
[OGL LOG][lduLduBase.H:330] 
Statistics:
	Time per iteration: 2712 [mu s]
	Time per residual norm calculation: 434.000000 [mu s]
	Time per iteration and DOF: 0.042375 [ns]
	Retrieve results bandwidth 2.840000 [GByte/s]
[OGL LOG][Proc: 0]p: solve_multi_gpu: 8748.75 [ms]
nonehipGKOCG:  Solving for p, Initial residual = 0.96209, Final residual = 8.2937e-05, No Iterations 3095
[INFO] SolveP: 8866.65 [ms]
time step continuity errors : sum local = 1.34999e-08, global = -2.77535e-22, cumulative = 4.02952e-21
[INFO] ContinuityError: 71.302 [ms]
[INFO] CorrectBoundary: 1.009 [ms]
[INFO] PISOStep: 9901.22 [ms]
[INFO] MatrixAssemblyPI: 560.966 [ms]
[INFO] AdjustPhi: 28.787 [ms]
[INFO] ConstrainPressure: 0.004 [ms]
[INFO] MatrixAssemblyPII: 167.87 [ms]
[OGL LOG][Proc: 0]: global_index_init: 0.04 [ms]
[OGL LOG][Proc: 0]p_local_coeffs: call_update: 0 [ms]
[OGL LOG][Proc: 0]p_non_local_coeffs: call_update: 0 [ms]
[OGL LOG][Proc: 0]p: update_local_matrix_data: 93.607 [ms]
[OGL LOG][Proc: 0]p: update_non_local_matrix_data: 0.484 [ms]
[OGL LOG][Proc: 0]p: regenerate_distributed_matrix: 315.412 [ms]
[OGL LOG][Proc: 0]p_matrix: call_update: 317.919 [ms]
[OGL LOG][Proc: 0]p_rhs: call_update: 30.014 [ms]
[OGL LOG][Proc: 0]p: init_precond: 0.061 [ms]
[OGL LOG][StoppingCriterion.H:239] Creating stopping criterion with minIter 1857 frequency 14
[OGL LOG][Proc: 0]p: generate_solver: 0.004 [ms]
[OGL LOG][Proc: 0]p: solve: 8714.93 [ms]
[OGL LOG][Proc: 0]p: copy_x_back: 12.16 [ms]
[OGL LOG][lduLduBase.H:330] 
Statistics:
	Time per iteration: 2828 [mu s]
	Time per residual norm calculation: 419.000000 [mu s]
	Time per iteration and DOF: 0.044187 [ns]
	Retrieve results bandwidth 2.631000 [GByte/s]
[OGL LOG][Proc: 0]p: solve_multi_gpu: 9089.05 [ms]
nonehipGKOCG:  Solving for p, Initial residual = 0.917589, Final residual = 9.87391e-05, No Iterations 3081
[INFO] SolveP: 9206.02 [ms]
time step continuity errors : sum local = 1.60141e-08, global = 3.28391e-22, cumulative = 4.35792e-21
[INFO] ContinuityError: 68.597 [ms]
[INFO] CorrectBoundary: 1.396 [ms]
[INFO] PISOStep: 10222.9 [ms]
[INFO] TimeStep: 24881.6 [ms]
ExecutionTime = 200.19 s  ClockTime = 161 s

Time = 0.001

Courant Number mean: 0.0299119 max: 0.491022
[INFO] MatrixAssemblyU: 500.316 [ms]
DILUPBiCGStab:  Solving for Ux, Initial residual = 0.0361368, Final residual = 0.00400329, No Iterations 5
DILUPBiCGStab:  Solving for Uy, Initial residual = 0.169706, Final residual = 0.0142266, No Iterations 5
DILUPBiCGStab:  Solving for Uz, Initial residual = 0.680858, Final residual = 0.0395312, No Iterations 5
[INFO] MomentumPredictor: 4183.45 [ms]
[INFO] MatrixAssemblyPI: 574.376 [ms]
[INFO] AdjustPhi: 30.353 [ms]
[INFO] ConstrainPressure: 0.005 [ms]
[INFO] MatrixAssemblyPII: 168.098 [ms]
[OGL LOG][Proc: 0]: global_index_init: 0.142 [ms]
[OGL LOG][Proc: 0]p_local_coeffs: call_update: 0 [ms]
[OGL LOG][Proc: 0]p_non_local_coeffs: call_update: 0 [ms]
[OGL LOG][Proc: 0]p: update_local_matrix_data: 97.126 [ms]
[OGL LOG][Proc: 0]p: update_non_local_matrix_data: 0.296 [ms]
[OGL LOG][Proc: 0]p: regenerate_distributed_matrix: 300.721 [ms]
[OGL LOG][Proc: 0]p_matrix: call_update: 303.272 [ms]
[OGL LOG][Proc: 0]p_rhs: call_update: 28.337 [ms]
[OGL LOG][Proc: 0]p: init_precond: 0.056 [ms]
[OGL LOG][StoppingCriterion.H:239] Creating stopping criterion with minIter 1848 frequency 14
[OGL LOG][Proc: 0]p: generate_solver: 0.003 [ms]
[OGL LOG][Proc: 0]p: solve: 8568.93 [ms]
[OGL LOG][Proc: 0]p: copy_x_back: 12.405 [ms]
[OGL LOG][lduLduBase.H:330] 
Statistics:
	Time per iteration: 2781 [mu s]
	Time per residual norm calculation: 435.000000 [mu s]
	Time per iteration and DOF: 0.043453 [ns]
	Retrieve results bandwidth 2.579000 [GByte/s]
[OGL LOG][Proc: 0]p: solve_multi_gpu: 8932.07 [ms]
nonehipGKOCG:  Solving for p, Initial residual = 0.959996, Final residual = 9.78729e-05, No Iterations 3081
[INFO] SolveP: 9053.79 [ms]
time step continuity errors : sum local = 1.83316e-08, global = 3.48266e-22, cumulative = 4.70618e-21
[INFO] ContinuityError: 67.449 [ms]
[INFO] CorrectBoundary: 1.365 [ms]
[INFO] PISOStep: 10084 [ms]
[INFO] MatrixAssemblyPI: 556.845 [ms]
[INFO] AdjustPhi: 32.154 [ms]
[INFO] ConstrainPressure: 0.004 [ms]
[INFO] MatrixAssemblyPII: 167.325 [ms]
[OGL LOG][Proc: 0]: global_index_init: 0.118 [ms]
[OGL LOG][Proc: 0]p_local_coeffs: call_update: 0 [ms]
[OGL LOG][Proc: 0]p_non_local_coeffs: call_update: 0 [ms]
[OGL LOG][Proc: 0]p: update_local_matrix_data: 105.927 [ms]
[OGL LOG][Proc: 0]p: update_non_local_matrix_data: 0.279 [ms]
[OGL LOG][Proc: 0]p: regenerate_distributed_matrix: 301.853 [ms]
[OGL LOG][Proc: 0]p_matrix: call_update: 304.568 [ms]
[OGL LOG][Proc: 0]p_rhs: call_update: 27.013 [ms]
[OGL LOG][Proc: 0]p: init_precond: 0.066 [ms]
[OGL LOG][StoppingCriterion.H:239] Creating stopping criterion with minIter 1848 frequency 14
[OGL LOG][Proc: 0]p: generate_solver: 0.004 [ms]
[OGL LOG][Proc: 0]p: solve: 9155.65 [ms]
[OGL LOG][Proc: 0]p: copy_x_back: 11.151 [ms]
[OGL LOG][lduLduBase.H:330] 
Statistics:
	Time per iteration: 2971 [mu s]
	Time per residual norm calculation: 429.000000 [mu s]
	Time per iteration and DOF: 0.046422 [ns]
	Retrieve results bandwidth 2.869000 [GByte/s]
[OGL LOG][Proc: 0]p: solve_multi_gpu: 9506.08 [ms]
nonehipGKOCG:  Solving for p, Initial residual = 0.898075, Final residual = 9.42415e-05, No Iterations 3081
[INFO] SolveP: 9633.84 [ms]
time step continuity errors : sum local = 1.79113e-08, global = 9.04729e-22, cumulative = 5.61091e-21
[INFO] ContinuityError: 70.575 [ms]
[INFO] CorrectBoundary: 1.373 [ms]
[INFO] PISOStep: 10651.8 [ms]
[INFO] TimeStep: 25486.3 [ms]
ExecutionTime = 232.35 s  ClockTime = 186 s

Time = 0.001125

Courant Number mean: 0.0317148 max: 0.695878
[INFO] MatrixAssemblyU: 496.844 [ms]
DILUPBiCGStab:  Solving for Ux, Initial residual = 0.0373593, Final residual = 0.00378659, No Iterations 5
DILUPBiCGStab:  Solving for Uy, Initial residual = 0.186534, Final residual = 0.0146584, No Iterations 5
DILUPBiCGStab:  Solving for Uz, Initial residual = 0.691474, Final residual = 0.0375779, No Iterations 5
[INFO] MomentumPredictor: 4168.14 [ms]
[INFO] MatrixAssemblyPI: 574.021 [ms]
[INFO] AdjustPhi: 32.273 [ms]
[INFO] ConstrainPressure: 0.004 [ms]
[INFO] MatrixAssemblyPII: 168.628 [ms]
[OGL LOG][Proc: 0]: global_index_init: 0.04 [ms]
[OGL LOG][Proc: 0]p_local_coeffs: call_update: 0 [ms]
[OGL LOG][Proc: 0]p_non_local_coeffs: call_update: 0 [ms]
[OGL LOG][Proc: 0]p: update_local_matrix_data: 91.551 [ms]
[OGL LOG][Proc: 0]p: update_non_local_matrix_data: 0.412 [ms]
[OGL LOG][Proc: 0]p: regenerate_distributed_matrix: 304.849 [ms]
[OGL LOG][Proc: 0]p_matrix: call_update: 307.365 [ms]
[OGL LOG][Proc: 0]p_rhs: call_update: 33.362 [ms]
[OGL LOG][Proc: 0]p: init_precond: 0.068 [ms]
[OGL LOG][StoppingCriterion.H:239] Creating stopping criterion with minIter 1848 frequency 14
[OGL LOG][Proc: 0]p: generate_solver: 0.004 [ms]
[OGL LOG][Proc: 0]p: solve: 8644.6 [ms]
[OGL LOG][Proc: 0]p: copy_x_back: 11.819 [ms]
[OGL LOG][lduLduBase.H:330] 
Statistics:
	Time per iteration: 2805 [mu s]
	Time per residual norm calculation: 441.000000 [mu s]
	Time per iteration and DOF: 0.043828 [ns]
	Retrieve results bandwidth 2.707000 [GByte/s]
[OGL LOG][Proc: 0]p: solve_multi_gpu: 9017.99 [ms]
nonehipGKOCG:  Solving for p, Initial residual = 0.967953, Final residual = 9.10404e-05, No Iterations 3081
[INFO] SolveP: 9132.13 [ms]
time step continuity errors : sum local = 1.95627e-08, global = 5.99706e-22, cumulative = 6.21062e-21
[INFO] ContinuityError: 70.241 [ms]
[INFO] CorrectBoundary: 1.354 [ms]
[INFO] PISOStep: 10166.3 [ms]
[INFO] MatrixAssemblyPI: 554.035 [ms]
[INFO] AdjustPhi: 34.152 [ms]
[INFO] ConstrainPressure: 0.004 [ms]
[INFO] MatrixAssemblyPII: 168.321 [ms]
[OGL LOG][Proc: 0]: global_index_init: 0.038 [ms]
[OGL LOG][Proc: 0]p_local_coeffs: call_update: 0 [ms]
[OGL LOG][Proc: 0]p_non_local_coeffs: call_update: 0 [ms]
[OGL LOG][Proc: 0]p: update_local_matrix_data: 101.245 [ms]
[OGL LOG][Proc: 0]p: update_non_local_matrix_data: 0.272 [ms]
[OGL LOG][Proc: 0]p: regenerate_distributed_matrix: 299.244 [ms]
[OGL LOG][Proc: 0]p_matrix: call_update: 301.769 [ms]
[OGL LOG][Proc: 0]p_rhs: call_update: 18.628 [ms]
[OGL LOG][Proc: 0]p: init_precond: 0.063 [ms]
[OGL LOG][StoppingCriterion.H:239] Creating stopping criterion with minIter 1848 frequency 14
[OGL LOG][Proc: 0]p: generate_solver: 0.004 [ms]
[OGL LOG][Proc: 0]p: solve: 8890.54 [ms]
[OGL LOG][Proc: 0]p: copy_x_back: 12.304 [ms]
[OGL LOG][lduLduBase.H:330] 
Statistics:
	Time per iteration: 2885 [mu s]
	Time per residual norm calculation: 435.000000 [mu s]
	Time per iteration and DOF: 0.045078 [ns]
	Retrieve results bandwidth 2.600000 [GByte/s]
[OGL LOG][Proc: 0]p: solve_multi_gpu: 9238.11 [ms]
nonehipGKOCG:  Solving for p, Initial residual = 0.918701, Final residual = 8.6717e-05, No Iterations 3081
[INFO] SolveP: 9359.27 [ms]
time step continuity errors : sum local = 1.86095e-08, global = 1.65139e-22, cumulative = 6.37575e-21
[INFO] ContinuityError: 70.461 [ms]
[INFO] CorrectBoundary: 1.959 [ms]
[INFO] PISOStep: 10377.9 [ms]
[INFO] TimeStep: 25275.8 [ms]
ExecutionTime = 264.28 s  ClockTime = 212 s

Time = 0.00125

Courant Number mean: 0.0331287 max: 0.507091
[INFO] MatrixAssemblyU: 498.929 [ms]
DILUPBiCGStab:  Solving for Ux, Initial residual = 0.040715, Final residual = 0.00385329, No Iterations 5
DILUPBiCGStab:  Solving for Uy, Initial residual = 0.185295, Final residual = 0.0129683, No Iterations 5
DILUPBiCGStab:  Solving for Uz, Initial residual = 0.692026, Final residual = 0.0365944, No Iterations 5
[INFO] MomentumPredictor: 4175.56 [ms]
[INFO] MatrixAssemblyPI: 573.375 [ms]
[INFO] AdjustPhi: 30.474 [ms]
[INFO] ConstrainPressure: 0.004 [ms]
[INFO] MatrixAssemblyPII: 168.623 [ms]
[OGL LOG][Proc: 0]: global_index_init: 0.202 [ms]
[OGL LOG][Proc: 0]p_local_coeffs: call_update: 0 [ms]
[OGL LOG][Proc: 0]p_non_local_coeffs: call_update: 0 [ms]
[OGL LOG][Proc: 0]p: update_local_matrix_data: 103.819 [ms]
[OGL LOG][Proc: 0]p: update_non_local_matrix_data: 0.324 [ms]
[OGL LOG][Proc: 0]p: regenerate_distributed_matrix: 291.994 [ms]
[OGL LOG][Proc: 0]p_matrix: call_update: 294.672 [ms]
[OGL LOG][Proc: 0]p_rhs: call_update: 22.403 [ms]
[OGL LOG][Proc: 0]p: init_precond: 0.065 [ms]
[OGL LOG][StoppingCriterion.H:239] Creating stopping criterion with minIter 1848 frequency 14
[OGL LOG][Proc: 0]p: generate_solver: 0.004 [ms]
[OGL LOG][Proc: 0]p: solve: 8466.71 [ms]
[OGL LOG][Proc: 0]p: copy_x_back: 11.235 [ms]
[OGL LOG][lduLduBase.H:330] 
Statistics:
	Time per iteration: 2748 [mu s]
	Time per residual norm calculation: 413.000000 [mu s]
	Time per iteration and DOF: 0.042938 [ns]
	Retrieve results bandwidth 2.848000 [GByte/s]
[OGL LOG][Proc: 0]p: solve_multi_gpu: 8808.76 [ms]
nonehipGKOCG:  Solving for p, Initial residual = 0.967305, Final residual = 9.13493e-05, No Iterations 3081
[INFO] SolveP: 8936.21 [ms]
time step continuity errors : sum local = 2.28532e-08, global = -4.19568e-22, cumulative = 5.95619e-21
[INFO] ContinuityError: 70.575 [ms]
[INFO] CorrectBoundary: 1.011 [ms]
[INFO] PISOStep: 9967.11 [ms]
[INFO] MatrixAssemblyPI: 555.944 [ms]
[INFO] AdjustPhi: 31.857 [ms]
[INFO] ConstrainPressure: 0.004 [ms]
[INFO] MatrixAssemblyPII: 167.481 [ms]
[OGL LOG][Proc: 0]: global_index_init: 0.035 [ms]
[OGL LOG][Proc: 0]p_local_coeffs: call_update: 0 [ms]
[OGL LOG][Proc: 0]p_non_local_coeffs: call_update: 0 [ms]
[OGL LOG][Proc: 0]p: update_local_matrix_data: 95.922 [ms]
[OGL LOG][Proc: 0]p: update_non_local_matrix_data: 0.277 [ms]
[OGL LOG][Proc: 0]p: regenerate_distributed_matrix: 288.184 [ms]
[OGL LOG][Proc: 0]p_matrix: call_update: 290.67 [ms]
[OGL LOG][Proc: 0]p_rhs: call_update: 41.478 [ms]
[OGL LOG][Proc: 0]p: init_precond: 0.268 [ms]
[OGL LOG][StoppingCriterion.H:239] Creating stopping criterion with minIter 1848 frequency 14
[OGL LOG][Proc: 0]p: generate_solver: 0.005 [ms]
[OGL LOG][Proc: 0]p: solve: 8746.39 [ms]
[OGL LOG][Proc: 0]p: copy_x_back: 12.161 [ms]
[OGL LOG][lduLduBase.H:330] 
Statistics:
	Time per iteration: 2838 [mu s]
	Time per residual norm calculation: 428.000000 [mu s]
	Time per iteration and DOF: 0.044344 [ns]
	Retrieve results bandwidth 2.631000 [GByte/s]
[OGL LOG][Proc: 0]p: solve_multi_gpu: 9102.67 [ms]
nonehipGKOCG:  Solving for p, Initial residual = 0.90376, Final residual = 8.57177e-05, No Iterations 3081
[INFO] SolveP: 9217.67 [ms]
time step continuity errors : sum local = 2.17312e-08, global = -1.47238e-22, cumulative = 5.80895e-21
[INFO] ContinuityError: 70.388 [ms]
[INFO] CorrectBoundary: 1.021 [ms]
[INFO] PISOStep: 10233.9 [ms]
[INFO] TimeStep: 24942.2 [ms]
ExecutionTime = 295.81 s  ClockTime = 237 s

Time = 0.001375

Courant Number mean: 0.0347272 max: 0.825421
[INFO] MatrixAssemblyU: 498.586 [ms]
DILUPBiCGStab:  Solving for Ux, Initial residual = 0.043446, Final residual = 0.00368553, No Iterations 5
DILUPBiCGStab:  Solving for Uy, Initial residual = 0.208927, Final residual = 0.0139929, No Iterations 5
DILUPBiCGStab:  Solving for Uz, Initial residual = 0.705386, Final residual = 0.0358886, No Iterations 5
[INFO] MomentumPredictor: 4170.2 [ms]
[INFO] MatrixAssemblyPI: 573.065 [ms]
[INFO] AdjustPhi: 31.464 [ms]
[INFO] ConstrainPressure: 0.004 [ms]
[INFO] MatrixAssemblyPII: 168.184 [ms]
[OGL LOG][Proc: 0]: global_index_init: 0.037 [ms]
[OGL LOG][Proc: 0]p_local_coeffs: call_update: 0 [ms]
[OGL LOG][Proc: 0]p_non_local_coeffs: call_update: 0 [ms]
[OGL LOG][Proc: 0]p: update_local_matrix_data: 91.112 [ms]
[OGL LOG][Proc: 0]p: update_non_local_matrix_data: 0.475 [ms]
[OGL LOG][Proc: 0]p: regenerate_distributed_matrix: 300.198 [ms]
[OGL LOG][Proc: 0]p_matrix: call_update: 302.713 [ms]
[OGL LOG][Proc: 0]p_rhs: call_update: 32.4 [ms]
[OGL LOG][Proc: 0]p: init_precond: 0.059 [ms]
[OGL LOG][StoppingCriterion.H:239] Creating stopping criterion with minIter 1848 frequency 14
[OGL LOG][Proc: 0]p: generate_solver: 0.004 [ms]
[OGL LOG][Proc: 0]p: solve: 8478.81 [ms]
[OGL LOG][Proc: 0]p: copy_x_back: 10.648 [ms]
[OGL LOG][lduLduBase.H:330] 
Statistics:
	Time per iteration: 2751 [mu s]
	Time per residual norm calculation: 419.000000 [mu s]
	Time per iteration and DOF: 0.042984 [ns]
	Retrieve results bandwidth 3.005000 [GByte/s]
[OGL LOG][Proc: 0]p: solve_multi_gpu: 8853.23 [ms]
nonehipGKOCG:  Solving for p, Initial residual = 0.972953, Final residual = 9.07209e-05, No Iterations 3081
[INFO] SolveP: 8966.58 [ms]
time step continuity errors : sum local = 2.63617e-08, global = 8.57101e-22, cumulative = 6.66605e-21
[INFO] ContinuityError: 72.995 [ms]
[INFO] CorrectBoundary: 1.359 [ms]
[INFO] PISOStep: 10000.3 [ms]
[INFO] MatrixAssemblyPI: 556.494 [ms]
[INFO] AdjustPhi: 31.987 [ms]
[INFO] ConstrainPressure: 0.005 [ms]
[INFO] MatrixAssemblyPII: 167.995 [ms]
[OGL LOG][Proc: 0]: global_index_init: 0.035 [ms]
[OGL LOG][Proc: 0]p_local_coeffs: call_update: 0 [ms]
[OGL LOG][Proc: 0]p_non_local_coeffs: call_update: 0 [ms]
[OGL LOG][Proc: 0]p: update_local_matrix_data: 108.366 [ms]
[OGL LOG][Proc: 0]p: update_non_local_matrix_data: 0.272 [ms]
[OGL LOG][Proc: 0]p: regenerate_distributed_matrix: 304.536 [ms]
[OGL LOG][Proc: 0]p_matrix: call_update: 307.087 [ms]
[OGL LOG][Proc: 0]p_rhs: call_update: 33.231 [ms]
[OGL LOG][Proc: 0]p: init_precond: 0.06 [ms]
[OGL LOG][StoppingCriterion.H:239] Creating stopping criterion with minIter 1848 frequency 14
[OGL LOG][Proc: 0]p: generate_solver: 0.005 [ms]
[OGL LOG][Proc: 0]p: solve: 8806.58 [ms]
[OGL LOG][Proc: 0]p: copy_x_back: 11.083 [ms]
[OGL LOG][lduLduBase.H:330] 
Statistics:
	Time per iteration: 2871 [mu s]
	Time per residual norm calculation: 421.000000 [mu s]
	Time per iteration and DOF: 0.044859 [ns]
	Retrieve results bandwidth 2.887000 [GByte/s]
[OGL LOG][Proc: 0]p: solve_multi_gpu: 9169.35 [ms]
nonehipGKOCG:  Solving for p, Initial residual = 0.919542, Final residual = 9.8998e-05, No Iterations 3067
[INFO] SolveP: 9299.26 [ms]
time step continuity errors : sum local = 2.87856e-08, global = 3.0448e-22, cumulative = 6.97053e-21
[INFO] ContinuityError: 67.955 [ms]
[INFO] CorrectBoundary: 1.368 [ms]
[INFO] PISOStep: 10313.2 [ms]
[INFO] TimeStep: 25049.8 [ms]
ExecutionTime = 327.45 s  ClockTime = 262 s

Time = 0.0015

Courant Number mean: 0.035927 max: 0.597127
[INFO] MatrixAssemblyU: 498.937 [ms]
DILUPBiCGStab:  Solving for Ux, Initial residual = 0.0488682, Final residual = 0.00388971, No Iterations 5
DILUPBiCGStab:  Solving for Uy, Initial residual = 0.21321, Final residual = 0.0128589, No Iterations 5
DILUPBiCGStab:  Solving for Uz, Initial residual = 0.709437, Final residual = 0.0355321, No Iterations 5
[INFO] MomentumPredictor: 4182.56 [ms]
[INFO] MatrixAssemblyPI: 573.816 [ms]
[INFO] AdjustPhi: 32.555 [ms]
[INFO] ConstrainPressure: 0.005 [ms]
[INFO] MatrixAssemblyPII: 168.248 [ms]
[OGL LOG][Proc: 0]: global_index_init: 0.172 [ms]
[OGL LOG][Proc: 0]p_local_coeffs: call_update: 0 [ms]
[OGL LOG][Proc: 0]p_non_local_coeffs: call_update: 0 [ms]
[OGL LOG][Proc: 0]p: update_local_matrix_data: 92.824 [ms]
[OGL LOG][Proc: 0]p: update_non_local_matrix_data: 0.275 [ms]
[OGL LOG][Proc: 0]p: regenerate_distributed_matrix: 285.311 [ms]
[OGL LOG][Proc: 0]p_matrix: call_update: 287.92 [ms]
[OGL LOG][Proc: 0]p_rhs: call_update: 38.266 [ms]
[OGL LOG][Proc: 0]p: init_precond: 0.062 [ms]
[OGL LOG][StoppingCriterion.H:239] Creating stopping criterion with minIter 1840 frequency 14
[OGL LOG][Proc: 0]p: generate_solver: 0.004 [ms]
[OGL LOG][Proc: 0]p: solve: 8539.24 [ms]
[OGL LOG][Proc: 0]p: copy_x_back: 12.357 [ms]
[OGL LOG][lduLduBase.H:330] 
Statistics:
	Time per iteration: 2771 [mu s]
	Time per residual norm calculation: 414.000000 [mu s]
	Time per iteration and DOF: 0.043297 [ns]
	Retrieve results bandwidth 2.589000 [GByte/s]
[OGL LOG][Proc: 0]p: solve_multi_gpu: 8891.77 [ms]
nonehipGKOCG:  Solving for p, Initial residual = 0.973182, Final residual = 8.73899e-05, No Iterations 3081
[INFO] SolveP: 9004.84 [ms]
time step continuity errors : sum local = 2.97739e-08, global = 3.68716e-22, cumulative = 7.33925e-21
[INFO] ContinuityError: 68.232 [ms]
[INFO] CorrectBoundary: 1.748 [ms]
[INFO] PISOStep: 10038.9 [ms]
[INFO] MatrixAssemblyPI: 558.084 [ms]
[INFO] AdjustPhi: 30.486 [ms]
[INFO] ConstrainPressure: 0.004 [ms]
[INFO] MatrixAssemblyPII: 168.192 [ms]
[OGL LOG][Proc: 0]: global_index_init: 0.044 [ms]
[OGL LOG][Proc: 0]p_local_coeffs: call_update: 0 [ms]
[OGL LOG][Proc: 0]p_non_local_coeffs: call_update: 0 [ms]
[OGL LOG][Proc: 0]p: update_local_matrix_data: 105.233 [ms]
[OGL LOG][Proc: 0]p: update_non_local_matrix_data: 0.45 [ms]
[OGL LOG][Proc: 0]p: regenerate_distributed_matrix: 303.867 [ms]
[OGL LOG][Proc: 0]p_matrix: call_update: 306.441 [ms]
[OGL LOG][Proc: 0]p_rhs: call_update: 31.075 [ms]
[OGL LOG][Proc: 0]p: init_precond: 0.063 [ms]
[OGL LOG][StoppingCriterion.H:239] Creating stopping criterion with minIter 1848 frequency 14
[OGL LOG][Proc: 0]p: generate_solver: 0.004 [ms]
[OGL LOG][Proc: 0]p: solve: 8791.76 [ms]
[OGL LOG][Proc: 0]p: copy_x_back: 10.622 [ms]
[OGL LOG][lduLduBase.H:330] 
Statistics:
	Time per iteration: 2866 [mu s]
	Time per residual norm calculation: 438.000000 [mu s]
	Time per iteration and DOF: 0.044781 [ns]
	Retrieve results bandwidth 3.012000 [GByte/s]
[OGL LOG][Proc: 0]p: solve_multi_gpu: 9148.11 [ms]
nonehipGKOCG:  Solving for p, Initial residual = 0.908652, Final residual = 9.73633e-05, No Iterations 3067
[INFO] SolveP: 9273.58 [ms]
time step continuity errors : sum local = 3.35737e-08, global = 5.7935e-22, cumulative = 7.91859e-21
[INFO] ContinuityError: 68.835 [ms]
[INFO] CorrectBoundary: 0.95 [ms]
[INFO] PISOStep: 10289.3 [ms]
[INFO] TimeStep: 25076.5 [ms]
ExecutionTime = 359.02 s  ClockTime = 287 s

Time = 0.001625

Courant Number mean: 0.0374213 max: 1.14733
[INFO] MatrixAssemblyU: 500.351 [ms]
DILUPBiCGStab:  Solving for Ux, Initial residual = 0.0534732, Final residual = 0.00382986, No Iterations 5
DILUPBiCGStab:  Solving for Uy, Initial residual = 0.241532, Final residual = 0.0141288, No Iterations 5
DILUPBiCGStab:  Solving for Uz, Initial residual = 0.721498, Final residual = 0.0353005, No Iterations 5
[INFO] MomentumPredictor: 4182.23 [ms]
[INFO] MatrixAssemblyPI: 570.027 [ms]
[INFO] AdjustPhi: 33.616 [ms]
[INFO] ConstrainPressure: 0.004 [ms]
[INFO] MatrixAssemblyPII: 167.53 [ms]
[OGL LOG][Proc: 0]: global_index_init: 0.086 [ms]
[OGL LOG][Proc: 0]p_local_coeffs: call_update: 0 [ms]
[OGL LOG][Proc: 0]p_non_local_coeffs: call_update: 0 [ms]
[OGL LOG][Proc: 0]p: update_local_matrix_data: 96.327 [ms]
[OGL LOG][Proc: 0]p: update_non_local_matrix_data: 0.333 [ms]
[OGL LOG][Proc: 0]p: regenerate_distributed_matrix: 302.782 [ms]
[OGL LOG][Proc: 0]p_matrix: call_update: 305.289 [ms]
[OGL LOG][Proc: 0]p_rhs: call_update: 20.842 [ms]
[OGL LOG][Proc: 0]p: init_precond: 0.06 [ms]
[OGL LOG][StoppingCriterion.H:239] Creating stopping criterion with minIter 1840 frequency 14
[OGL LOG][Proc: 0]p: generate_solver: 0.005 [ms]
[OGL LOG][Proc: 0]p: solve: 8344.38 [ms]
[OGL LOG][Proc: 0]p: copy_x_back: 11.35 [ms]
[OGL LOG][lduLduBase.H:330] 
Statistics:
	Time per iteration: 2708 [mu s]
	Time per residual norm calculation: 422.000000 [mu s]
	Time per iteration and DOF: 0.042313 [ns]
	Retrieve results bandwidth 2.819000 [GByte/s]
[OGL LOG][Proc: 0]p: solve_multi_gpu: 8704.2 [ms]
nonehipGKOCG:  Solving for p, Initial residual = 0.976788, Final residual = 8.86777e-05, No Iterations 3081
[INFO] SolveP: 8820.64 [ms]
time step continuity errors : sum local = 3.54155e-08, global = 2.47883e-22, cumulative = 8.16648e-21
[INFO] ContinuityError: 67.336 [ms]
[INFO] CorrectBoundary: 1.498 [ms]
[INFO] PISOStep: 9849.41 [ms]
[INFO] MatrixAssemblyPI: 557.357 [ms]
[INFO] AdjustPhi: 35.096 [ms]
[INFO] ConstrainPressure: 0.004 [ms]
[INFO] MatrixAssemblyPII: 165.997 [ms]
[OGL LOG][Proc: 0]: global_index_init: 0.194 [ms]
[OGL LOG][Proc: 0]p_local_coeffs: call_update: 0 [ms]
[OGL LOG][Proc: 0]p_non_local_coeffs: call_update: 0 [ms]
[OGL LOG][Proc: 0]p: update_local_matrix_data: 99.153 [ms]
[OGL LOG][Proc: 0]p: update_non_local_matrix_data: 0.287 [ms]
[OGL LOG][Proc: 0]p: regenerate_distributed_matrix: 294.15 [ms]
[OGL LOG][Proc: 0]p_matrix: call_update: 296.799 [ms]
[OGL LOG][Proc: 0]p_rhs: call_update: 37.322 [ms]
[OGL LOG][Proc: 0]p: init_precond: 0.063 [ms]
[OGL LOG][StoppingCriterion.H:239] Creating stopping criterion with minIter 1848 frequency 14
[OGL LOG][Proc: 0]p: generate_solver: 0.004 [ms]
[OGL LOG][Proc: 0]p: solve: 8565.11 [ms]
[OGL LOG][Proc: 0]p: copy_x_back: 12.53 [ms]
[OGL LOG][lduLduBase.H:330] 
Statistics:
	Time per iteration: 2792 [mu s]
	Time per residual norm calculation: 417.000000 [mu s]
	Time per iteration and DOF: 0.043625 [ns]
	Retrieve results bandwidth 2.553000 [GByte/s]
[OGL LOG][Proc: 0]p: solve_multi_gpu: 8920.1 [ms]
nonehipGKOCG:  Solving for p, Initial residual = 0.920329, Final residual = 9.85086e-05, No Iterations 3067
[INFO] SolveP: 9040.87 [ms]
time step continuity errors : sum local = 3.94372e-08, global = 1.6952e-22, cumulative = 8.336e-21
[INFO] ContinuityError: 68.708 [ms]
[INFO] CorrectBoundary: 1.259 [ms]
[INFO] PISOStep: 10060.8 [ms]
[INFO] TimeStep: 24659.7 [ms]
ExecutionTime = 390.25 s  ClockTime = 311 s

Time = 0.00175

Courant Number mean: 0.0384833 max: 1.02059
[INFO] MatrixAssemblyU: 498.02 [ms]
DILUPBiCGStab:  Solving for Ux, Initial residual = 0.061401, Final residual = 0.00412789, No Iterations 5
DILUPBiCGStab:  Solving for Uy, Initial residual = 0.251885, Final residual = 0.013528, No Iterations 5
DILUPBiCGStab:  Solving for Uz, Initial residual = 0.725988, Final residual = 0.0350955, No Iterations 5
[INFO] MomentumPredictor: 4169.4 [ms]
[INFO] MatrixAssemblyPI: 575.426 [ms]
[INFO] AdjustPhi: 29.899 [ms]
[INFO] ConstrainPressure: 0.004 [ms]
[INFO] MatrixAssemblyPII: 168.665 [ms]
[OGL LOG][Proc: 0]: global_index_init: 0.083 [ms]
[OGL LOG][Proc: 0]p_local_coeffs: call_update: 0 [ms]
[OGL LOG][Proc: 0]p_non_local_coeffs: call_update: 0 [ms]
[OGL LOG][Proc: 0]p: update_local_matrix_data: 95.482 [ms]
[OGL LOG][Proc: 0]p: update_non_local_matrix_data: 0.465 [ms]
[OGL LOG][Proc: 0]p: regenerate_distributed_matrix: 298.978 [ms]
[OGL LOG][Proc: 0]p_matrix: call_update: 302.349 [ms]
[OGL LOG][Proc: 0]p_rhs: call_update: 25.817 [ms]
[OGL LOG][Proc: 0]p: init_precond: 0.261 [ms]
[OGL LOG][StoppingCriterion.H:239] Creating stopping criterion with minIter 1840 frequency 14
[OGL LOG][Proc: 0]p: generate_solver: 0.004 [ms]
[OGL LOG][Proc: 0]p: solve: 8282.54 [ms]
[OGL LOG][Proc: 0]p: copy_x_back: 12.053 [ms]
[OGL LOG][lduLduBase.H:330] 
Statistics:
	Time per iteration: 2688 [mu s]
	Time per residual norm calculation: 427.000000 [mu s]
	Time per iteration and DOF: 0.042000 [ns]
	Retrieve results bandwidth 2.654000 [GByte/s]
[OGL LOG][Proc: 0]p: solve_multi_gpu: 8645.51 [ms]
nonehipGKOCG:  Solving for p, Initial residual = 0.977464, Final residual = 8.53868e-05, No Iterations 3081
[INFO] SolveP: 8760.33 [ms]
time step continuity errors : sum local = 4.01978e-08, global = 2.70695e-22, cumulative = 8.60669e-21
[INFO] ContinuityError: 68.969 [ms]
[INFO] CorrectBoundary: 1.123 [ms]
[INFO] PISOStep: 9792.6 [ms]
[INFO] MatrixAssemblyPI: 556.354 [ms]
[INFO] AdjustPhi: 32.208 [ms]
[INFO] ConstrainPressure: 0.004 [ms]
[INFO] MatrixAssemblyPII: 167.991 [ms]
[OGL LOG][Proc: 0]: global_index_init: 0.042 [ms]
[OGL LOG][Proc: 0]p_local_coeffs: call_update: 0 [ms]
[OGL LOG][Proc: 0]p_non_local_coeffs: call_update: 0 [ms]
[OGL LOG][Proc: 0]p: update_local_matrix_data: 100.747 [ms]
[OGL LOG][Proc: 0]p: update_non_local_matrix_data: 0.283 [ms]
[OGL LOG][Proc: 0]p: regenerate_distributed_matrix: 292.29 [ms]
[OGL LOG][Proc: 0]p_matrix: call_update: 294.776 [ms]
[OGL LOG][Proc: 0]p_rhs: call_update: 29.59 [ms]
[OGL LOG][Proc: 0]p: init_precond: 0.072 [ms]
[OGL LOG][StoppingCriterion.H:239] Creating stopping criterion with minIter 1848 frequency 14
[OGL LOG][Proc: 0]p: generate_solver: 0.003 [ms]
[OGL LOG][Proc: 0]p: solve: 8513.04 [ms]
[OGL LOG][Proc: 0]p: copy_x_back: 12.047 [ms]
[OGL LOG][lduLduBase.H:330] 
Statistics:
	Time per iteration: 2775 [mu s]
	Time per residual norm calculation: 447.000000 [mu s]
	Time per iteration and DOF: 0.043359 [ns]
	Retrieve results bandwidth 2.656000 [GByte/s]
[OGL LOG][Proc: 0]p: solve_multi_gpu: 8870.94 [ms]
nonehipGKOCG:  Solving for p, Initial residual = 0.91275, Final residual = 9.7826e-05, No Iterations 3067
[INFO] SolveP: 8991.09 [ms]
time step continuity errors : sum local = 4.65615e-08, global = -1.06629e-23, cumulative = 8.59603e-21
[INFO] ContinuityError: 70.109 [ms]
[INFO] CorrectBoundary: 0.932 [ms]
[INFO] PISOStep: 10007.8 [ms]
[INFO] TimeStep: 24534.8 [ms]
ExecutionTime = 421.29 s  ClockTime = 336 s

Time = 0.001875

Courant Number mean: 0.0399468 max: 1.68209
[INFO] MatrixAssemblyU: 500.023 [ms]
DILUPBiCGStab:  Solving for Ux, Initial residual = 0.0683225, Final residual = 0.00421541, No Iterations 5
DILUPBiCGStab:  Solving for Uy, Initial residual = 0.283859, Final residual = 0.014895, No Iterations 5
DILUPBiCGStab:  Solving for Uz, Initial residual = 0.734611, Final residual = 0.0348713, No Iterations 5
[INFO] MomentumPredictor: 4170.97 [ms]
[INFO] MatrixAssemblyPI: 573.785 [ms]
[INFO] AdjustPhi: 30.256 [ms]
[INFO] ConstrainPressure: 0.004 [ms]
[INFO] MatrixAssemblyPII: 166.59 [ms]
[OGL LOG][Proc: 0]: global_index_init: 0.187 [ms]
[OGL LOG][Proc: 0]p_local_coeffs: call_update: 0 [ms]
[OGL LOG][Proc: 0]p_non_local_coeffs: call_update: 0 [ms]
[OGL LOG][Proc: 0]p: update_local_matrix_data: 100.014 [ms]
[OGL LOG][Proc: 0]p: update_non_local_matrix_data: 0.329 [ms]
[OGL LOG][Proc: 0]p: regenerate_distributed_matrix: 294.496 [ms]
[OGL LOG][Proc: 0]p_matrix: call_update: 297.178 [ms]
[OGL LOG][Proc: 0]p_rhs: call_update: 28.329 [ms]
[OGL LOG][Proc: 0]p: init_precond: 0.058 [ms]
[OGL LOG][StoppingCriterion.H:239] Creating stopping criterion with minIter 1840 frequency 14
[OGL LOG][Proc: 0]p: generate_solver: 0.004 [ms]
[OGL LOG][Proc: 0]p: solve: 8262.86 [ms]
[OGL LOG][Proc: 0]p: copy_x_back: 11.855 [ms]
[OGL LOG][lduLduBase.H:330] 
Statistics:
	Time per iteration: 2681 [mu s]
	Time per residual norm calculation: 406.000000 [mu s]
	Time per iteration and DOF: 0.041891 [ns]
	Retrieve results bandwidth 2.699000 [GByte/s]
[OGL LOG][Proc: 0]p: solve_multi_gpu: 8607.56 [ms]
nonehipGKOCG:  Solving for p, Initial residual = 0.9796, Final residual = 9.16252e-05, No Iterations 3081
[INFO] SolveP: 8730.27 [ms]
time step continuity errors : sum local = 5.08693e-08, global = 1.74e-21, cumulative = 1.0336e-20
[INFO] ContinuityError: 69.455 [ms]
[INFO] CorrectBoundary: 1.436 [ms]
[INFO] PISOStep: 9761.07 [ms]
[INFO] MatrixAssemblyPI: 551.523 [ms]
[INFO] AdjustPhi: 37.019 [ms]
[INFO] ConstrainPressure: 0.004 [ms]
[INFO] MatrixAssemblyPII: 168.49 [ms]
[OGL LOG][Proc: 0]: global_index_init: 0.194 [ms]
[OGL LOG][Proc: 0]p_local_coeffs: call_update: 0 [ms]
[OGL LOG][Proc: 0]p_non_local_coeffs: call_update: 0 [ms]
[OGL LOG][Proc: 0]p: update_local_matrix_data: 97.798 [ms]
[OGL LOG][Proc: 0]p: update_non_local_matrix_data: 0.276 [ms]
[OGL LOG][Proc: 0]p: regenerate_distributed_matrix: 307.361 [ms]
[OGL LOG][Proc: 0]p_matrix: call_update: 310.348 [ms]
[OGL LOG][Proc: 0]p_rhs: call_update: 33.772 [ms]
[OGL LOG][Proc: 0]p: init_precond: 0.265 [ms]
[OGL LOG][StoppingCriterion.H:239] Creating stopping criterion with minIter 1848 frequency 14
[OGL LOG][Proc: 0]p: generate_solver: 0.004 [ms]
[OGL LOG][Proc: 0]p: solve: 8439.68 [ms]
[OGL LOG][Proc: 0]p: copy_x_back: 11.93 [ms]
[OGL LOG][lduLduBase.H:330] 
Statistics:
	Time per iteration: 2739 [mu s]
	Time per residual norm calculation: 441.000000 [mu s]
	Time per iteration and DOF: 0.042797 [ns]
	Retrieve results bandwidth 2.682000 [GByte/s]
[OGL LOG][Proc: 0]p: solve_multi_gpu: 8810.11 [ms]
nonehipGKOCG:  Solving for p, Initial residual = 0.920813, Final residual = 8.60947e-05, No Iterations 3081
[INFO] SolveP: 8930.04 [ms]
time step continuity errors : sum local = 4.79865e-08, global = 4.28182e-22, cumulative = 1.07642e-20
[INFO] ContinuityError: 67.812 [ms]
[INFO] CorrectBoundary: 0.979 [ms]
[INFO] PISOStep: 9945.3 [ms]
[INFO] TimeStep: 24444.5 [ms]
ExecutionTime = 452.34 s  ClockTime = 360 s

Time = 0.002

Courant Number mean: 0.0409411 max: 1.71613
[INFO] MatrixAssemblyU: 501.383 [ms]
DILUPBiCGStab:  Solving for Ux, Initial residual = 0.0796659, Final residual = 0.00463231, No Iterations 5
DILUPBiCGStab:  Solving for Uy, Initial residual = 0.300518, Final residual = 0.0147551, No Iterations 5
DILUPBiCGStab:  Solving for Uz, Initial residual = 0.738206, Final residual = 0.0346616, No Iterations 5
[INFO] MomentumPredictor: 4175.6 [ms]
[INFO] MatrixAssemblyPI: 572.022 [ms]
[INFO] AdjustPhi: 33.25 [ms]
[INFO] ConstrainPressure: 0.004 [ms]
[INFO] MatrixAssemblyPII: 168.602 [ms]
[OGL LOG][Proc: 0]: global_index_init: 0.141 [ms]
[OGL LOG][Proc: 0]p_local_coeffs: call_update: 0 [ms]
[OGL LOG][Proc: 0]p_non_local_coeffs: call_update: 0 [ms]
[OGL LOG][Proc: 0]p: update_local_matrix_data: 102.322 [ms]
[OGL LOG][Proc: 0]p: update_non_local_matrix_data: 0.415 [ms]
[OGL LOG][Proc: 0]p: regenerate_distributed_matrix: 284.5 [ms]
[OGL LOG][Proc: 0]p_matrix: call_update: 287.057 [ms]
[OGL LOG][Proc: 0]p_rhs: call_update: 32.869 [ms]
[OGL LOG][Proc: 0]p: init_precond: 0.06 [ms]
[OGL LOG][StoppingCriterion.H:239] Creating stopping criterion with minIter 1848 frequency 14
[OGL LOG][Proc: 0]p: generate_solver: 0.004 [ms]
[OGL LOG][Proc: 0]p: solve: 8227.05 [ms]
[OGL LOG][Proc: 0]p: copy_x_back: 11.572 [ms]
[OGL LOG][lduLduBase.H:330] 
Statistics:
	Time per iteration: 2670 [mu s]
	Time per residual norm calculation: 427.000000 [mu s]
	Time per iteration and DOF: 0.041719 [ns]
	Retrieve results bandwidth 2.765000 [GByte/s]
[OGL LOG][Proc: 0]p: solve_multi_gpu: 8576.5 [ms]
nonehipGKOCG:  Solving for p, Initial residual = 0.980728, Final residual = 9.49829e-05, No Iterations 3081
[INFO] SolveP: 8698.5 [ms]
time step continuity errors : sum local = 6.24326e-08, global = 1.03222e-21, cumulative = 1.17964e-20
[INFO] ContinuityError: 71.867 [ms]
[INFO] CorrectBoundary: 0.902 [ms]
[INFO] PISOStep: 9732.62 [ms]
[INFO] MatrixAssemblyPI: 556.901 [ms]
[INFO] AdjustPhi: 31.048 [ms]
[INFO] ConstrainPressure: 0.005 [ms]
[INFO] MatrixAssemblyPII: 168.999 [ms]
[OGL LOG][Proc: 0]: global_index_init: 0.099 [ms]
[OGL LOG][Proc: 0]p_local_coeffs: call_update: 0 [ms]
[OGL LOG][Proc: 0]p_non_local_coeffs: call_update: 0 [ms]
[OGL LOG][Proc: 0]p: update_local_matrix_data: 93.645 [ms]
[OGL LOG][Proc: 0]p: update_non_local_matrix_data: 0.28 [ms]
[OGL LOG][Proc: 0]p: regenerate_distributed_matrix: 293.303 [ms]
[OGL LOG][Proc: 0]p_matrix: call_update: 295.985 [ms]
[OGL LOG][Proc: 0]p_rhs: call_update: 33.049 [ms]
[OGL LOG][Proc: 0]p: init_precond: 0.06 [ms]
[OGL LOG][StoppingCriterion.H:239] Creating stopping criterion with minIter 1848 frequency 14
[OGL LOG][Proc: 0]p: generate_solver: 0.004 [ms]
[OGL LOG][Proc: 0]p: solve: 8369.64 [ms]
[OGL LOG][Proc: 0]p: copy_x_back: 12.282 [ms]
[OGL LOG][lduLduBase.H:330] 
Statistics:
	Time per iteration: 2716 [mu s]
	Time per residual norm calculation: 438.000000 [mu s]
	Time per iteration and DOF: 0.042438 [ns]
	Retrieve results bandwidth 2.605000 [GByte/s]
[OGL LOG][Proc: 0]p: solve_multi_gpu: 8725.31 [ms]
nonehipGKOCG:  Solving for p, Initial residual = 0.915786, Final residual = 8.86034e-05, No Iterations 3081
[INFO] SolveP: 8838.67 [ms]
time step continuity errors : sum local = 5.88322e-08, global = 9.82846e-22, cumulative = 1.27793e-20
[INFO] ContinuityError: 67.269 [ms]
[INFO] CorrectBoundary: 1.562 [ms]
[INFO] PISOStep: 9854.6 [ms]
[INFO] TimeStep: 24331.4 [ms]
ExecutionTime = 483.24 s  ClockTime = 385 s

Time = 0.002125

Courant Number mean: 0.0424415 max: 2.54804
[INFO] MatrixAssemblyU: 498.609 [ms]
DILUPBiCGStab:  Solving for Ux, Initial residual = 0.0895768, Final residual = 0.0048901, No Iterations 5
DILUPBiCGStab:  Solving for Uy, Initial residual = 0.335463, Final residual = 0.0161902, No Iterations 5
DILUPBiCGStab:  Solving for Uz, Initial residual = 0.743943, Final residual = 0.0345186, No Iterations 5
[INFO] MomentumPredictor: 4176.44 [ms]
[INFO] MatrixAssemblyPI: 572.44 [ms]
[INFO] AdjustPhi: 32.701 [ms]
[INFO] ConstrainPressure: 0.005 [ms]
[INFO] MatrixAssemblyPII: 167.499 [ms]
[OGL LOG][Proc: 0]: global_index_init: 0.244 [ms]
[OGL LOG][Proc: 0]p_local_coeffs: call_update: 0 [ms]
[OGL LOG][Proc: 0]p_non_local_coeffs: call_update: 0 [ms]
[OGL LOG][Proc: 0]p: update_local_matrix_data: 104.186 [ms]
[OGL LOG][Proc: 0]p: update_non_local_matrix_data: 0.277 [ms]
[OGL LOG][Proc: 0]p: regenerate_distributed_matrix: 293.654 [ms]
[OGL LOG][Proc: 0]p_matrix: call_update: 296.323 [ms]
[OGL LOG][Proc: 0]p_rhs: call_update: 30.378 [ms]
[OGL LOG][Proc: 0]p: init_precond: 0.064 [ms]
[OGL LOG][StoppingCriterion.H:239] Creating stopping criterion with minIter 1848 frequency 14
[OGL LOG][Proc: 0]p: generate_solver: 0.005 [ms]
[OGL LOG][Proc: 0]p: solve: 8219.76 [ms]
[OGL LOG][Proc: 0]p: copy_x_back: 12.194 [ms]
[OGL LOG][lduLduBase.H:330] 
Statistics:
	Time per iteration: 2667 [mu s]
	Time per residual norm calculation: 440.000000 [mu s]
	Time per iteration and DOF: 0.041672 [ns]
	Retrieve results bandwidth 2.624000 [GByte/s]
[OGL LOG][Proc: 0]p: solve_multi_gpu: 8568.93 [ms]
nonehipGKOCG:  Solving for p, Initial residual = 0.981812, Final residual = 9.80957e-05, No Iterations 3081
[INFO] SolveP: 8692.16 [ms]
time step continuity errors : sum local = 7.66287e-08, global = 1.51767e-21, cumulative = 1.42969e-20
[INFO] ContinuityError: 71.385 [ms]
[INFO] CorrectBoundary: 1.632 [ms]
[INFO] PISOStep: 9726.34 [ms]
[INFO] MatrixAssemblyPI: 556.446 [ms]
[INFO] AdjustPhi: 31.902 [ms]
[INFO] ConstrainPressure: 0.004 [ms]
[INFO] MatrixAssemblyPII: 167.177 [ms]
[OGL LOG][Proc: 0]: global_index_init: 1.078 [ms]
[OGL LOG][Proc: 0]p_local_coeffs: call_update: 0 [ms]
[OGL LOG][Proc: 0]p_non_local_coeffs: call_update: 0 [ms]
[OGL LOG][Proc: 0]p: update_local_matrix_data: 106.908 [ms]
[OGL LOG][Proc: 0]p: update_non_local_matrix_data: 0.283 [ms]
[OGL LOG][Proc: 0]p: regenerate_distributed_matrix: 299.251 [ms]
[OGL LOG][Proc: 0]p_matrix: call_update: 301.748 [ms]
[OGL LOG][Proc: 0]p_rhs: call_update: 23.508 [ms]
[OGL LOG][Proc: 0]p: init_precond: 0.081 [ms]
[OGL LOG][StoppingCriterion.H:239] Creating stopping criterion with minIter 1848 frequency 14
[OGL LOG][Proc: 0]p: generate_solver: 0.004 [ms]
[OGL LOG][Proc: 0]p: solve: 8453.37 [ms]
[OGL LOG][Proc: 0]p: copy_x_back: 13.019 [ms]
[OGL LOG][lduLduBase.H:330] 
Statistics:
	Time per iteration: 2743 [mu s]
	Time per residual norm calculation: 442.000000 [mu s]
	Time per iteration and DOF: 0.042859 [ns]
	Retrieve results bandwidth 2.457000 [GByte/s]
[OGL LOG][Proc: 0]p: solve_multi_gpu: 8803.58 [ms]
nonehipGKOCG:  Solving for p, Initial residual = 0.920838, Final residual = 9.19724e-05, No Iterations 3081
[INFO] SolveP: 8929.81 [ms]
time step continuity errors : sum local = 7.22273e-08, global = 8.60294e-22, cumulative = 1.51572e-20
[INFO] ContinuityError: 70.112 [ms]
[INFO] CorrectBoundary: 1.584 [ms]
[INFO] PISOStep: 9946.07 [ms]
[INFO] TimeStep: 24414.1 [ms]
ExecutionTime = 514.25 s  ClockTime = 409 s

Time = 0.00225

Courant Number mean: 0.0434476 max: 2.85616
[INFO] MatrixAssemblyU: 499.749 [ms]
DILUPBiCGStab:  Solving for Ux, Initial residual = 0.105835, Final residual = 0.0054964, No Iterations 5
DILUPBiCGStab:  Solving for Uy, Initial residual = 0.358364, Final residual = 0.0164497, No Iterations 5
DILUPBiCGStab:  Solving for Uz, Initial residual = 0.746462, Final residual = 0.0343008, No Iterations 5
[INFO] MomentumPredictor: 4182.51 [ms]
[INFO] MatrixAssemblyPI: 573.905 [ms]
[INFO] AdjustPhi: 31.343 [ms]
[INFO] ConstrainPressure: 0.005 [ms]
[INFO] MatrixAssemblyPII: 167.963 [ms]
[OGL LOG][Proc: 0]: global_index_init: 0.205 [ms]
[OGL LOG][Proc: 0]p_local_coeffs: call_update: 0 [ms]
[OGL LOG][Proc: 0]p_non_local_coeffs: call_update: 0 [ms]
[OGL LOG][Proc: 0]p: update_local_matrix_data: 92.536 [ms]
[OGL LOG][Proc: 0]p: update_non_local_matrix_data: 0.446 [ms]
[OGL LOG][Proc: 0]p: regenerate_distributed_matrix: 285.02 [ms]
[OGL LOG][Proc: 0]p_matrix: call_update: 287.555 [ms]
[OGL LOG][Proc: 0]p_rhs: call_update: 28.7 [ms]
[OGL LOG][Proc: 0]p: init_precond: 0.07 [ms]
[OGL LOG][StoppingCriterion.H:239] Creating stopping criterion with minIter 1848 frequency 14
[OGL LOG][Proc: 0]p: generate_solver: 0.004 [ms]
[OGL LOG][Proc: 0]p: solve: 8257.48 [ms]
[OGL LOG][Proc: 0]p: copy_x_back: 12.305 [ms]
[OGL LOG][lduLduBase.H:330] 
Statistics:
	Time per iteration: 2668 [mu s]
	Time per residual norm calculation: 453.000000 [mu s]
	Time per iteration and DOF: 0.041688 [ns]
	Retrieve results bandwidth 2.600000 [GByte/s]
[OGL LOG][Proc: 0]p: solve_multi_gpu: 8600.36 [ms]
nonehipGKOCG:  Solving for p, Initial residual = 0.983022, Final residual = 7.69765e-05, No Iterations 3095
[INFO] SolveP: 8711.92 [ms]
time step continuity errors : sum local = 7.17217e-08, global = 1.63684e-21, cumulative = 1.67941e-20
[INFO] ContinuityError: 70.466 [ms]
[INFO] CorrectBoundary: 1.126 [ms]
[INFO] PISOStep: 9744.99 [ms]
[INFO] MatrixAssemblyPI: 557.792 [ms]
[INFO] AdjustPhi: 30.544 [ms]
[INFO] ConstrainPressure: 0.004 [ms]
[INFO] MatrixAssemblyPII: 166.344 [ms]
[OGL LOG][Proc: 0]: global_index_init: 0.255 [ms]
[OGL LOG][Proc: 0]p_local_coeffs: call_update: 0 [ms]
[OGL LOG][Proc: 0]p_non_local_coeffs: call_update: 0 [ms]
[OGL LOG][Proc: 0]p: update_local_matrix_data: 88.809 [ms]
[OGL LOG][Proc: 0]p: update_non_local_matrix_data: 0.277 [ms]
[OGL LOG][Proc: 0]p: regenerate_distributed_matrix: 303.043 [ms]
[OGL LOG][Proc: 0]p_matrix: call_update: 305.649 [ms]
[OGL LOG][Proc: 0]p_rhs: call_update: 24.496 [ms]
[OGL LOG][Proc: 0]p: init_precond: 0.062 [ms]
[OGL LOG][StoppingCriterion.H:239] Creating stopping criterion with minIter 1857 frequency 15
[OGL LOG][Proc: 0]p: generate_solver: 0.004 [ms]
[OGL LOG][Proc: 0]p: solve: 8391.3 [ms]
[OGL LOG][Proc: 0]p: copy_x_back: 11.788 [ms]
[OGL LOG][lduLduBase.H:330] 
Statistics:
	Time per iteration: 2727 [mu s]
	Time per residual norm calculation: 418.000000 [mu s]
	Time per iteration and DOF: 0.042609 [ns]
	Retrieve results bandwidth 2.714000 [GByte/s]
[OGL LOG][Proc: 0]p: solve_multi_gpu: 8753.66 [ms]
nonehipGKOCG:  Solving for p, Initial residual = 0.917868, Final residual = 9.9792e-05, No Iterations 3076
[INFO] SolveP: 8865.66 [ms]
time step continuity errors : sum local = 9.38735e-08, global = 1.4136e-21, cumulative = 1.82077e-20
[INFO] ContinuityError: 68.538 [ms]
[INFO] CorrectBoundary: 1.641 [ms]
[INFO] PISOStep: 9883.69 [ms]
[INFO] TimeStep: 24377.3 [ms]
ExecutionTime = 545.34 s  ClockTime = 434 s

Time = 0.002375

Courant Number mean: 0.0450676 max: 3.95932
[INFO] MatrixAssemblyU: 500.209 [ms]
DILUPBiCGStab:  Solving for Ux, Initial residual = 0.11959, Final residual = 0.00594233, No Iterations 5
DILUPBiCGStab:  Solving for Uy, Initial residual = 0.394658, Final residual = 0.0179347, No Iterations 5
DILUPBiCGStab:  Solving for Uz, Initial residual = 0.75016, Final residual = 0.0342293, No Iterations 5
[INFO] MomentumPredictor: 4165.77 [ms]
[INFO] MatrixAssemblyPI: 574.723 [ms]
[INFO] AdjustPhi: 30.496 [ms]
[INFO] ConstrainPressure: 0.004 [ms]
[INFO] MatrixAssemblyPII: 166.735 [ms]
[OGL LOG][Proc: 0]: global_index_init: 0.156 [ms]
[OGL LOG][Proc: 0]p_local_coeffs: call_update: 0 [ms]
[OGL LOG][Proc: 0]p_non_local_coeffs: call_update: 0 [ms]
[OGL LOG][Proc: 0]p: update_local_matrix_data: 107.88 [ms]
[OGL LOG][Proc: 0]p: update_non_local_matrix_data: 0.28 [ms]
[OGL LOG][Proc: 0]p: regenerate_distributed_matrix: 291.031 [ms]
[OGL LOG][Proc: 0]p_matrix: call_update: 293.542 [ms]
[OGL LOG][Proc: 0]p_rhs: call_update: 46.221 [ms]
[OGL LOG][Proc: 0]p: init_precond: 0.059 [ms]
[OGL LOG][StoppingCriterion.H:239] Creating stopping criterion with minIter 1845 frequency 14
[OGL LOG][Proc: 0]p: generate_solver: 0.004 [ms]
[OGL LOG][Proc: 0]p: solve: 8238.87 [ms]
[OGL LOG][Proc: 0]p: copy_x_back: 12.006 [ms]
[OGL LOG][lduLduBase.H:330] 
Statistics:
	Time per iteration: 2661 [mu s]
	Time per residual norm calculation: 445.000000 [mu s]
	Time per iteration and DOF: 0.041578 [ns]
	Retrieve results bandwidth 2.665000 [GByte/s]
[OGL LOG][Proc: 0]p: solve_multi_gpu: 8597.14 [ms]
nonehipGKOCG:  Solving for p, Initial residual = 0.983457, Final residual = 8.20116e-05, No Iterations 3095
[INFO] SolveP: 8723.91 [ms]
time step continuity errors : sum local = 9.14575e-08, global = 7.91095e-22, cumulative = 1.89988e-20
[INFO] ContinuityError: 68.987 [ms]
[INFO] CorrectBoundary: 1.085 [ms]
[INFO] PISOStep: 9757.83 [ms]
[INFO] MatrixAssemblyPI: 556.161 [ms]
[INFO] AdjustPhi: 31.479 [ms]
[INFO] ConstrainPressure: 0.004 [ms]
[INFO] MatrixAssemblyPII: 167.383 [ms]
[OGL LOG][Proc: 0]: global_index_init: 0.273 [ms]
[OGL LOG][Proc: 0]p_local_coeffs: call_update: 0 [ms]
[OGL LOG][Proc: 0]p_non_local_coeffs: call_update: 0 [ms]
[OGL LOG][Proc: 0]p: update_local_matrix_data: 107.038 [ms]
[OGL LOG][Proc: 0]p: update_non_local_matrix_data: 0.416 [ms]
[OGL LOG][Proc: 0]p: regenerate_distributed_matrix: 290.325 [ms]
[OGL LOG][Proc: 0]p_matrix: call_update: 292.83 [ms]
[OGL LOG][Proc: 0]p_rhs: call_update: 24.34 [ms]
[OGL LOG][Proc: 0]p: init_precond: 0.055 [ms]
[OGL LOG][StoppingCriterion.H:239] Creating stopping criterion with minIter 1857 frequency 15
[OGL LOG][Proc: 0]p: generate_solver: 0.005 [ms]
[OGL LOG][Proc: 0]p: solve: 8424.75 [ms]
[OGL LOG][Proc: 0]p: copy_x_back: 12.379 [ms]
[OGL LOG][lduLduBase.H:330] 
Statistics:
	Time per iteration: 2725 [mu s]
	Time per residual norm calculation: 452.000000 [mu s]
	Time per iteration and DOF: 0.042578 [ns]
	Retrieve results bandwidth 2.585000 [GByte/s]
[OGL LOG][Proc: 0]p: solve_multi_gpu: 8758.44 [ms]
nonehipGKOCG:  Solving for p, Initial residual = 0.921067, Final residual = 8.24451e-05, No Iterations 3091
[INFO] SolveP: 8888.76 [ms]
time step continuity errors : sum local = 9.25299e-08, global = -5.92985e-23, cumulative = 1.89395e-20
[INFO] ContinuityError: 67.87 [ms]
[INFO] CorrectBoundary: 1.095 [ms]
[INFO] PISOStep: 9903.03 [ms]
[INFO] TimeStep: 24393.8 [ms]
ExecutionTime = 576.3 s  ClockTime = 458 s

Time = 0.0025

Courant Number mean: 0.0461928 max: 4.70389
[INFO] MatrixAssemblyU: 492.904 [ms]
DILUPBiCGStab:  Solving for Ux, Initial residual = 0.142474, Final residual = 0.00681396, No Iterations 5
DILUPBiCGStab:  Solving for Uy, Initial residual = 0.422197, Final residual = 0.0185126, No Iterations 5
DILUPBiCGStab:  Solving for Uz, Initial residual = 0.751472, Final residual = 0.0339487, No Iterations 5
[INFO] MomentumPredictor: 4182.16 [ms]
[INFO] MatrixAssemblyPI: 572 [ms]
[INFO] AdjustPhi: 31.915 [ms]
[INFO] ConstrainPressure: 0.004 [ms]
[INFO] MatrixAssemblyPII: 166.826 [ms]
[OGL LOG][Proc: 0]: global_index_init: 0.184 [ms]
[OGL LOG][Proc: 0]p_local_coeffs: call_update: 0 [ms]
[OGL LOG][Proc: 0]p_non_local_coeffs: call_update: 0 [ms]
[OGL LOG][Proc: 0]p: update_local_matrix_data: 98.898 [ms]
[OGL LOG][Proc: 0]p: update_non_local_matrix_data: 0.286 [ms]
[OGL LOG][Proc: 0]p: regenerate_distributed_matrix: 299.39 [ms]
[OGL LOG][Proc: 0]p_matrix: call_update: 301.936 [ms]
[OGL LOG][Proc: 0]p_rhs: call_update: 35.569 [ms]
[OGL LOG][Proc: 0]p: init_precond: 0.061 [ms]
[OGL LOG][StoppingCriterion.H:239] Creating stopping criterion with minIter 1854 frequency 14
[OGL LOG][Proc: 0]p: generate_solver: 0.004 [ms]
[OGL LOG][Proc: 0]p: solve: 8280.37 [ms]
[OGL LOG][Proc: 0]p: copy_x_back: 11.878 [ms]
[OGL LOG][lduLduBase.H:330] 
Statistics:
	Time per iteration: 2675 [mu s]
	Time per residual norm calculation: 420.000000 [mu s]
	Time per iteration and DOF: 0.041797 [ns]
	Retrieve results bandwidth 2.694000 [GByte/s]
[OGL LOG][Proc: 0]p: solve_multi_gpu: 8640.73 [ms]
nonehipGKOCG:  Solving for p, Initial residual = 0.98434, Final residual = 8.47797e-05, No Iterations 3095
[INFO] SolveP: 8758.8 [ms]
time step continuity errors : sum local = 1.13504e-07, global = 1.29113e-21, cumulative = 2.02306e-20
[INFO] ContinuityError: 70.448 [ms]
[INFO] CorrectBoundary: 3.07 [ms]
[INFO] PISOStep: 9791.28 [ms]
[INFO] MatrixAssemblyPI: 558.205 [ms]
[INFO] AdjustPhi: 31.645 [ms]
[INFO] ConstrainPressure: 0.004 [ms]
[INFO] MatrixAssemblyPII: 166.646 [ms]
[OGL LOG][Proc: 0]: global_index_init: 0.3 [ms]
[OGL LOG][Proc: 0]p_local_coeffs: call_update: 0 [ms]
[OGL LOG][Proc: 0]p_non_local_coeffs: call_update: 0 [ms]
[OGL LOG][Proc: 0]p: update_local_matrix_data: 97.483 [ms]
[OGL LOG][Proc: 0]p: update_non_local_matrix_data: 0.282 [ms]
[OGL LOG][Proc: 0]p: regenerate_distributed_matrix: 289.853 [ms]
[OGL LOG][Proc: 0]p_matrix: call_update: 292.535 [ms]
[OGL LOG][Proc: 0]p_rhs: call_update: 36.439 [ms]
[OGL LOG][Proc: 0]p: init_precond: 0.06 [ms]
[OGL LOG][StoppingCriterion.H:239] Creating stopping criterion with minIter 1857 frequency 14
[OGL LOG][Proc: 0]p: generate_solver: 0.004 [ms]
[OGL LOG][Proc: 0]p: solve: 8423.8 [ms]
[OGL LOG][Proc: 0]p: copy_x_back: 12.215 [ms]
[OGL LOG][lduLduBase.H:330] 
Statistics:
	Time per iteration: 2721 [mu s]
	Time per residual norm calculation: 441.000000 [mu s]
	Time per iteration and DOF: 0.042516 [ns]
	Retrieve results bandwidth 2.619000 [GByte/s]
[OGL LOG][Proc: 0]p: solve_multi_gpu: 8781.29 [ms]
nonehipGKOCG:  Solving for p, Initial residual = 0.919198, Final residual = 7.87518e-05, No Iterations 3095
[INFO] SolveP: 8902.73 [ms]
time step continuity errors : sum local = 1.06423e-07, global = -8.445e-23, cumulative = 2.01461e-20
[INFO] ContinuityError: 69.273 [ms]
[INFO] CorrectBoundary: 1.22 [ms]
[INFO] PISOStep: 9919.18 [ms]
[INFO] TimeStep: 24452.9 [ms]
ExecutionTime = 607.38 s  ClockTime = 482 s

End

Finalising parallel run
