/*---------------------------------------------------------------------------*\
| =========                 |                                                 |
| \\      /  F ield         | OpenFOAM: The Open Source CFD Toolbox           |
|  \\    /   O peration     | Version:  2306                                  |
|   \\  /    A nd           | Website:  www.openfoam.com                      |
|    \\/     M anipulation  |                                                 |
\*---------------------------------------------------------------------------*/
Build  : c423ebec-20231012 OPENFOAM=2306 version=v2306
Arch   : "LSB;label=32;scalar=64"
Exec   : decomposePar -force
Date   : Feb 16 2024
Time   : 09:03:01
Host   : hkn0051.localdomain
PID    : 2323856
--> FOAM Warning : 
    From Foam::fileName Foam::cwd_L()
    in file POSIX.C at line 552
    PWD is not the cwd() - reverting to physical description
I/O    : uncollated
--> FOAM Warning : 
    From Foam::fileName Foam::cwd_L()
    in file POSIX.C at line 552
    PWD is not the cwd() - reverting to physical description
Case   : /hkfs/work/workspace/scratch/eq4036-windsorbody_setup/workspace/f53b4a7040c802da0321bce08c86c2d7/case
nProcs : 1
trapFpe: Floating point exception trapping enabled (FOAM_SIGFPE).
fileModificationChecking : Monitoring run-time modified files using timeStampMaster (fileModificationSkew 5, maxFileModificationPolls 20)
allowSystemOperations : Allowing user-supplied system call operations

// * * * * * * * * * * * * * * * * * * * * * * * * * * * * * * * * * * * * * //
Create time

--> FOAM Warning : 
    From void* Foam::dlLibraryTable::openLibrary(const Foam::fileName&, bool)
    in file db/dynamicLibrary/dlLibraryTable/dlLibraryTable.C at line 188
    Could not load "libpetscFoam.so"
libpetscFoam.so: cannot open shared object file: No such file or directory


Decomposing mesh

Create mesh

Calculating distribution of cells
Decomposition method simple [40] (region region0)

Finished decomposition in 35.73 s

Calculating original mesh data

Distributing cells to processors

Distributing faces to processors

Distributing points to processors

Constructing processor meshes

Processor 0
    Number of cells = 1290034
    Number of points = 1463505
    Number of faces shared with processor 1 = 5528
    Number of faces shared with processor 4 = 479
    Number of faces shared with processor 8 = 189163
    Number of faces shared with processor 9 = 12
    Number of processor patches = 4
    Number of processor faces = 195182
    Number of boundary faces = 179768

Processor 1
    Number of cells = 691631
    Number of points = 792728
    Number of faces shared with processor 0 = 5528
    Number of faces shared with processor 2 = 5507
    Number of faces shared with processor 5 = 54
    Number of faces shared with processor 8 = 2
    Number of faces shared with processor 9 = 101524
    Number of faces shared with processor 10 = 6
    Number of processor patches = 6
    Number of processor faces = 112621
    Number of boundary faces = 97391

Processor 2
    Number of cells = 648065
    Number of points = 746846
    Number of faces shared with processor 1 = 5507
    Number of faces shared with processor 3 = 5178
    Number of faces shared with processor 6 = 48
    Number of faces shared with processor 9 = 4
    Number of faces shared with processor 10 = 99782
    Number of faces shared with processor 11 = 7
    Number of processor patches = 6
    Number of processor faces = 110526
    Number of boundary faces = 95531

Processor 3
    Number of cells = 1193008
    Number of points = 1385064
    Number of faces shared with processor 2 = 5178
    Number of faces shared with processor 7 = 315
    Number of faces shared with processor 10 = 3
    Number of faces shared with processor 11 = 208485
    Number of processor patches = 4
    Number of processor faces = 213981
    Number of boundary faces = 199061

Processor 4
    Number of cells = 1991677
    Number of points = 2158465
    Number of faces shared with processor 0 = 479
    Number of faces shared with processor 5 = 8624
    Number of faces shared with processor 8 = 1
    Number of faces shared with processor 12 = 181592
    Number of faces shared with processor 13 = 4
    Number of processor patches = 5
    Number of processor faces = 190700
    Number of boundary faces = 182221

Processor 5
    Number of cells = 1095030
    Number of points = 1195680
    Number of faces shared with processor 1 = 54
    Number of faces shared with processor 4 = 8624
    Number of faces shared with processor 6 = 8800
    Number of faces shared with processor 13 = 99537
    Number of faces shared with processor 14 = 3
    Number of processor patches = 5
    Number of processor faces = 117018
    Number of boundary faces = 97516

Processor 6
    Number of cells = 1056462
    Number of points = 1154869
    Number of faces shared with processor 2 = 48
    Number of faces shared with processor 5 = 8800
    Number of faces shared with processor 7 = 8830
    Number of faces shared with processor 13 = 1
    Number of faces shared with processor 14 = 97552
    Number of faces shared with processor 15 = 7
    Number of processor patches = 6
    Number of processor faces = 115238
    Number of boundary faces = 95568

Processor 7
    Number of cells = 2125511
    Number of points = 2308928
    Number of faces shared with processor 3 = 315
    Number of faces shared with processor 6 = 8830
    Number of faces shared with processor 11 = 1
    Number of faces shared with processor 14 = 4
    Number of faces shared with processor 15 = 205692
    Number of processor patches = 5
    Number of processor faces = 214842
    Number of boundary faces = 201309

Processor 8
    Number of cells = 2022319
    Number of points = 2216138
    Number of faces shared with processor 0 = 189163
    Number of faces shared with processor 1 = 2
    Number of faces shared with processor 4 = 1
    Number of faces shared with processor 9 = 9499
    Number of faces shared with processor 12 = 159
    Number of faces shared with processor 16 = 71606
    Number of faces shared with processor 17 = 2
    Number of processor patches = 7
    Number of processor faces = 270432
    Number of boundary faces = 85904

Processor 9
    Number of cells = 1027220
    Number of points = 1138013
    Number of faces shared with processor 0 = 12
    Number of faces shared with processor 1 = 101524
    Number of faces shared with processor 2 = 4
    Number of faces shared with processor 8 = 9499
    Number of faces shared with processor 10 = 8070
    Number of faces shared with processor 13 = 27
    Number of faces shared with processor 16 = 9
    Number of faces shared with processor 17 = 77343
    Number of faces shared with processor 18 = 2
    Number of processor patches = 9
    Number of processor faces = 196490
    Number of boundary faces = 8572

Processor 10
    Number of cells = 981582
    Number of points = 1087519
    Number of faces shared with processor 1 = 6
    Number of faces shared with processor 2 = 99782
    Number of faces shared with processor 3 = 3
    Number of faces shared with processor 9 = 8070
    Number of faces shared with processor 11 = 8328
    Number of faces shared with processor 14 = 24
    Number of faces shared with processor 17 = 10
    Number of faces shared with processor 18 = 78560
    Number of faces shared with processor 19 = 6
    Number of processor patches = 9
    Number of processor faces = 194789
    Number of boundary faces = 59

Processor 11
    Number of cells = 1873873
    Number of points = 2074124
    Number of faces shared with processor 2 = 7
    Number of faces shared with processor 3 = 208485
    Number of faces shared with processor 7 = 1
    Number of faces shared with processor 10 = 8328
    Number of faces shared with processor 15 = 188
    Number of faces shared with processor 18 = 1
    Number of faces shared with processor 19 = 90081
    Number of processor patches = 7
    Number of processor faces = 307091
    Number of boundary faces = 1525

Processor 12
    Number of cells = 1435335
    Number of points = 1632648
    Number of faces shared with processor 4 = 181592
    Number of faces shared with processor 8 = 159
    Number of faces shared with processor 13 = 6902
    Number of faces shared with processor 20 = 70079
    Number of faces shared with processor 21 = 6
    Number of processor patches = 5
    Number of processor faces = 258738
    Number of boundary faces = 89770

Processor 13
    Number of cells = 844107
    Number of points = 957563
    Number of faces shared with processor 4 = 4
    Number of faces shared with processor 5 = 99537
    Number of faces shared with processor 6 = 1
    Number of faces shared with processor 9 = 27
    Number of faces shared with processor 12 = 6902
    Number of faces shared with processor 14 = 6428
    Number of faces shared with processor 20 = 4
    Number of faces shared with processor 21 = 76802
    Number of faces shared with processor 22 = 8
    Number of processor patches = 9
    Number of processor faces = 189713
    Number of boundary faces = 10992

Processor 14
    Number of cells = 795255
    Number of points = 903713
    Number of faces shared with processor 5 = 3
    Number of faces shared with processor 6 = 97552
    Number of faces shared with processor 7 = 4
    Number of faces shared with processor 10 = 24
    Number of faces shared with processor 13 = 6428
    Number of faces shared with processor 15 = 6553
    Number of faces shared with processor 21 = 5
    Number of faces shared with processor 22 = 78912
    Number of faces shared with processor 23 = 19
    Number of processor patches = 9
    Number of processor faces = 189500
    Number of boundary faces = 15

Processor 15
    Number of cells = 1111727
    Number of points = 1323836
    Number of faces shared with processor 6 = 7
    Number of faces shared with processor 7 = 205692
    Number of faces shared with processor 11 = 188
    Number of faces shared with processor 14 = 6553
    Number of faces shared with processor 22 = 2
    Number of faces shared with processor 23 = 89339
    Number of processor patches = 6
    Number of processor faces = 301781
    Number of boundary faces = 309

Processor 16
    Number of cells = 825699
    Number of points = 941791
    Number of faces shared with processor 8 = 71606
    Number of faces shared with processor 9 = 9
    Number of faces shared with processor 17 = 4766
    Number of faces shared with processor 20 = 142
    Number of faces shared with processor 24 = 55212
    Number of faces shared with processor 25 = 20
    Number of processor patches = 6
    Number of processor faces = 131755
    Number of boundary faces = 49170

Processor 17
    Number of cells = 1564678
    Number of points = 1672283
    Number of faces shared with processor 8 = 2
    Number of faces shared with processor 9 = 77343
    Number of faces shared with processor 10 = 10
    Number of faces shared with processor 16 = 4766
    Number of faces shared with processor 18 = 12859
    Number of faces shared with processor 21 = 18
    Number of faces shared with processor 24 = 2
    Number of faces shared with processor 25 = 73017
    Number of faces shared with processor 26 = 11
    Number of processor patches = 9
    Number of processor faces = 168028
    Number of boundary faces = 11927

Processor 18
    Number of cells = 1608445
    Number of points = 1714707
    Number of faces shared with processor 9 = 2
    Number of faces shared with processor 10 = 78560
    Number of faces shared with processor 11 = 1
    Number of faces shared with processor 17 = 12859
    Number of faces shared with processor 19 = 12815
    Number of faces shared with processor 22 = 16
    Number of faces shared with processor 25 = 6
    Number of faces shared with processor 26 = 74662
    Number of faces shared with processor 27 = 5
    Number of processor patches = 9
    Number of processor faces = 178926
    Number of boundary faces = 16

Processor 19
    Number of cells = 1081739
    Number of points = 1196932
    Number of faces shared with processor 10 = 6
    Number of faces shared with processor 11 = 90081
    Number of faces shared with processor 18 = 12815
    Number of faces shared with processor 23 = 112
    Number of faces shared with processor 26 = 9
    Number of faces shared with processor 27 = 76770
    Number of processor patches = 6
    Number of processor faces = 179793
    Number of boundary faces = 278

Processor 20
    Number of cells = 784535
    Number of points = 900166
    Number of faces shared with processor 12 = 70079
    Number of faces shared with processor 13 = 4
    Number of faces shared with processor 16 = 142
    Number of faces shared with processor 21 = 4555
    Number of faces shared with processor 28 = 55847
    Number of faces shared with processor 29 = 21
    Number of processor patches = 6
    Number of processor faces = 130648
    Number of boundary faces = 47916

Processor 21
    Number of cells = 1538972
    Number of points = 1645717
    Number of faces shared with processor 12 = 6
    Number of faces shared with processor 13 = 76802
    Number of faces shared with processor 14 = 5
    Number of faces shared with processor 17 = 18
    Number of faces shared with processor 20 = 4555
    Number of faces shared with processor 22 = 12633
    Number of faces shared with processor 28 = 8
    Number of faces shared with processor 29 = 72003
    Number of faces shared with processor 30 = 2
    Number of processor patches = 9
    Number of processor faces = 166032
    Number of boundary faces = 11963

Processor 22
    Number of cells = 1603443
    Number of points = 1709519
    Number of faces shared with processor 13 = 8
    Number of faces shared with processor 14 = 78912
    Number of faces shared with processor 15 = 2
    Number of faces shared with processor 18 = 16
    Number of faces shared with processor 21 = 12633
    Number of faces shared with processor 23 = 12860
    Number of faces shared with processor 29 = 1
    Number of faces shared with processor 30 = 74271
    Number of faces shared with processor 31 = 11
    Number of processor patches = 9
    Number of processor faces = 178714
    Number of boundary faces = 12

Processor 23
    Number of cells = 1083907
    Number of points = 1197737
    Number of faces shared with processor 14 = 19
    Number of faces shared with processor 15 = 89339
    Number of faces shared with processor 19 = 112
    Number of faces shared with processor 22 = 12860
    Number of faces shared with processor 30 = 2
    Number of faces shared with processor 31 = 76967
    Number of processor patches = 6
    Number of processor faces = 179299
    Number of boundary faces = 320

Processor 24
    Number of cells = 815555
    Number of points = 908314
    Number of faces shared with processor 16 = 55212
    Number of faces shared with processor 17 = 2
    Number of faces shared with processor 25 = 4462
    Number of faces shared with processor 28 = 71
    Number of faces shared with processor 32 = 55160
    Number of faces shared with processor 33 = 2
    Number of processor patches = 6
    Number of processor faces = 114909
    Number of boundary faces = 54862

Processor 25
    Number of cells = 1575571
    Number of points = 1679306
    Number of faces shared with processor 16 = 20
    Number of faces shared with processor 17 = 73017
    Number of faces shared with processor 18 = 6
    Number of faces shared with processor 24 = 4462
    Number of faces shared with processor 26 = 12768
    Number of faces shared with processor 29 = 9
    Number of faces shared with processor 32 = 5
    Number of faces shared with processor 33 = 72446
    Number of faces shared with processor 34 = 9
    Number of processor patches = 9
    Number of processor faces = 162742
    Number of boundary faces = 12068

Processor 26
    Number of cells = 1627114
    Number of points = 1729633
    Number of faces shared with processor 17 = 11
    Number of faces shared with processor 18 = 74662
    Number of faces shared with processor 19 = 9
    Number of faces shared with processor 25 = 12768
    Number of faces shared with processor 27 = 12834
    Number of faces shared with processor 30 = 8
    Number of faces shared with processor 33 = 7
    Number of faces shared with processor 34 = 74155
    Number of faces shared with processor 35 = 6
    Number of processor patches = 9
    Number of processor faces = 174460
    Number of boundary faces = 8

Processor 27
    Number of cells = 1028981
    Number of points = 1130260
    Number of faces shared with processor 18 = 5
    Number of faces shared with processor 19 = 76770
    Number of faces shared with processor 26 = 12834
    Number of faces shared with processor 31 = 56
    Number of faces shared with processor 34 = 1
    Number of faces shared with processor 35 = 75250
    Number of processor patches = 6
    Number of processor faces = 164916
    Number of boundary faces = 202

Processor 28
    Number of cells = 815232
    Number of points = 907532
    Number of faces shared with processor 20 = 55847
    Number of faces shared with processor 21 = 8
    Number of faces shared with processor 24 = 71
    Number of faces shared with processor 29 = 4340
    Number of faces shared with processor 36 = 51930
    Number of faces shared with processor 37 = 15
    Number of processor patches = 6
    Number of processor faces = 112211
    Number of boundary faces = 53937

Processor 29
    Number of cells = 1564893
    Number of points = 1668074
    Number of faces shared with processor 20 = 21
    Number of faces shared with processor 21 = 72003
    Number of faces shared with processor 22 = 1
    Number of faces shared with processor 25 = 9
    Number of faces shared with processor 28 = 4340
    Number of faces shared with processor 30 = 12691
    Number of faces shared with processor 36 = 11
    Number of faces shared with processor 37 = 71095
    Number of faces shared with processor 38 = 9
    Number of processor patches = 9
    Number of processor faces = 160180
    Number of boundary faces = 12450

Processor 30
    Number of cells = 1624525
    Number of points = 1727007
    Number of faces shared with processor 21 = 2
    Number of faces shared with processor 22 = 74271
    Number of faces shared with processor 23 = 2
    Number of faces shared with processor 26 = 8
    Number of faces shared with processor 29 = 12691
    Number of faces shared with processor 31 = 12894
    Number of faces shared with processor 37 = 4
    Number of faces shared with processor 38 = 73378
    Number of faces shared with processor 39 = 20
    Number of processor patches = 9
    Number of processor faces = 173270
    Number of boundary faces = 9

Processor 31
    Number of cells = 1039546
    Number of points = 1141956
    Number of faces shared with processor 22 = 11
    Number of faces shared with processor 23 = 76967
    Number of faces shared with processor 27 = 56
    Number of faces shared with processor 30 = 12894
    Number of faces shared with processor 38 = 2
    Number of faces shared with processor 39 = 73188
    Number of processor patches = 6
    Number of processor faces = 163118
    Number of boundary faces = 160

Processor 32
    Number of cells = 1373591
    Number of points = 1503121
    Number of faces shared with processor 24 = 55160
    Number of faces shared with processor 25 = 5
    Number of faces shared with processor 33 = 14455
    Number of faces shared with processor 36 = 994
    Number of processor patches = 4
    Number of processor faces = 70614
    Number of boundary faces = 74241

Processor 33
    Number of cells = 1462401
    Number of points = 1571806
    Number of faces shared with processor 24 = 2
    Number of faces shared with processor 25 = 72446
    Number of faces shared with processor 26 = 7
    Number of faces shared with processor 32 = 14455
    Number of faces shared with processor 34 = 17064
    Number of faces shared with processor 37 = 126
    Number of processor patches = 6
    Number of processor faces = 104100
    Number of boundary faces = 13993

Processor 34
    Number of cells = 1441857
    Number of points = 1547687
    Number of faces shared with processor 25 = 9
    Number of faces shared with processor 26 = 74155
    Number of faces shared with processor 27 = 1
    Number of faces shared with processor 33 = 17064
    Number of faces shared with processor 35 = 17132
    Number of faces shared with processor 38 = 112
    Number of processor patches = 6
    Number of processor faces = 108473
    Number of boundary faces = 944

Processor 35
    Number of cells = 1095181
    Number of points = 1203625
    Number of faces shared with processor 26 = 6
    Number of faces shared with processor 27 = 75250
    Number of faces shared with processor 34 = 17132
    Number of faces shared with processor 39 = 784
    Number of processor patches = 4
    Number of processor faces = 93172
    Number of boundary faces = 8064

Processor 36
    Number of cells = 1260295
    Number of points = 1381349
    Number of faces shared with processor 28 = 51930
    Number of faces shared with processor 29 = 11
    Number of faces shared with processor 32 = 994
    Number of faces shared with processor 37 = 13714
    Number of processor patches = 4
    Number of processor faces = 66649
    Number of boundary faces = 66981

Processor 37
    Number of cells = 1249769
    Number of points = 1353983
    Number of faces shared with processor 28 = 15
    Number of faces shared with processor 29 = 71095
    Number of faces shared with processor 30 = 4
    Number of faces shared with processor 33 = 126
    Number of faces shared with processor 36 = 13714
    Number of faces shared with processor 38 = 14925
    Number of processor patches = 6
    Number of processor faces = 99879
    Number of boundary faces = 13042

Processor 38
    Number of cells = 1227524
    Number of points = 1328802
    Number of faces shared with processor 29 = 9
    Number of faces shared with processor 30 = 73378
    Number of faces shared with processor 31 = 2
    Number of faces shared with processor 34 = 112
    Number of faces shared with processor 37 = 14925
    Number of faces shared with processor 39 = 15838
    Number of processor patches = 6
    Number of processor faces = 104264
    Number of boundary faces = 1030

Processor 39
    Number of cells = 980799
    Number of points = 1084046
    Number of faces shared with processor 30 = 20
    Number of faces shared with processor 31 = 73188
    Number of faces shared with processor 35 = 784
    Number of faces shared with processor 38 = 15838
    Number of processor patches = 4
    Number of processor faces = 89830
    Number of boundary faces = 8064

Number of processor faces = 3227312
Max number of cells = 2125511 (68.50048896995403% above average 1261427.2)
Max number of processor patches = 9 (37.40458015267176% above average 6.55)
Max number of faces between processors = 307091 (90.30759963709737% above average 161365.6)

Time = 0

Processor 0: field transfer
--> FOAM Warning : 
    From void* Foam::dlLibraryTable::openLibrary(const Foam::fileName&, bool)
    in file db/dynamicLibrary/dlLibraryTable/dlLibraryTable.C at line 188
    Could not load "libpetscFoam.so"
libpetscFoam.so: cannot open shared object file: No such file or directory
Processor 1: field transfer
--> FOAM Warning : 
    From void* Foam::dlLibraryTable::openLibrary(const Foam::fileName&, bool)
    in file db/dynamicLibrary/dlLibraryTable/dlLibraryTable.C at line 188
    Could not load "libpetscFoam.so"
libpetscFoam.so: cannot open shared object file: No such file or directory
Processor 2: field transfer
--> FOAM Warning : 
    From void* Foam::dlLibraryTable::openLibrary(const Foam::fileName&, bool)
    in file db/dynamicLibrary/dlLibraryTable/dlLibraryTable.C at line 188
    Could not load "libpetscFoam.so"
libpetscFoam.so: cannot open shared object file: No such file or directory
Processor 3: field transfer
--> FOAM Warning : 
    From void* Foam::dlLibraryTable::openLibrary(const Foam::fileName&, bool)
    in file db/dynamicLibrary/dlLibraryTable/dlLibraryTable.C at line 188
    Could not load "libpetscFoam.so"
libpetscFoam.so: cannot open shared object file: No such file or directory
Processor 4: field transfer
--> FOAM Warning : 
    From void* Foam::dlLibraryTable::openLibrary(const Foam::fileName&, bool)
    in file db/dynamicLibrary/dlLibraryTable/dlLibraryTable.C at line 188
    Could not load "libpetscFoam.so"
libpetscFoam.so: cannot open shared object file: No such file or directory
Processor 5: field transfer
--> FOAM Warning : 
    From void* Foam::dlLibraryTable::openLibrary(const Foam::fileName&, bool)
    in file db/dynamicLibrary/dlLibraryTable/dlLibraryTable.C at line 188
    Could not load "libpetscFoam.so"
libpetscFoam.so: cannot open shared object file: No such file or directory
Processor 6: field transfer
--> FOAM Warning : 
    From void* Foam::dlLibraryTable::openLibrary(const Foam::fileName&, bool)
    in file db/dynamicLibrary/dlLibraryTable/dlLibraryTable.C at line 188
    Could not load "libpetscFoam.so"
libpetscFoam.so: cannot open shared object file: No such file or directory
Processor 7: field transfer
--> FOAM Warning : 
    From void* Foam::dlLibraryTable::openLibrary(const Foam::fileName&, bool)
    in file db/dynamicLibrary/dlLibraryTable/dlLibraryTable.C at line 188
    Could not load "libpetscFoam.so"
libpetscFoam.so: cannot open shared object file: No such file or directory
Processor 8: field transfer
--> FOAM Warning : 
    From void* Foam::dlLibraryTable::openLibrary(const Foam::fileName&, bool)
    in file db/dynamicLibrary/dlLibraryTable/dlLibraryTable.C at line 188
    Could not load "libpetscFoam.so"
libpetscFoam.so: cannot open shared object file: No such file or directory
Processor 9: field transfer
--> FOAM Warning : 
    From void* Foam::dlLibraryTable::openLibrary(const Foam::fileName&, bool)
    in file db/dynamicLibrary/dlLibraryTable/dlLibraryTable.C at line 188
    Could not load "libpetscFoam.so"
libpetscFoam.so: cannot open shared object file: No such file or directory
Processor 10: field transfer
--> FOAM Warning : 
    From void* Foam::dlLibraryTable::openLibrary(const Foam::fileName&, bool)
    in file db/dynamicLibrary/dlLibraryTable/dlLibraryTable.C at line 188
    Could not load "libpetscFoam.so"
libpetscFoam.so: cannot open shared object file: No such file or directory
Processor 11: field transfer
--> FOAM Warning : 
    From void* Foam::dlLibraryTable::openLibrary(const Foam::fileName&, bool)
    in file db/dynamicLibrary/dlLibraryTable/dlLibraryTable.C at line 188
    Could not load "libpetscFoam.so"
libpetscFoam.so: cannot open shared object file: No such file or directory
Processor 12: field transfer
--> FOAM Warning : 
    From void* Foam::dlLibraryTable::openLibrary(const Foam::fileName&, bool)
    in file db/dynamicLibrary/dlLibraryTable/dlLibraryTable.C at line 188
    Could not load "libpetscFoam.so"
libpetscFoam.so: cannot open shared object file: No such file or directory
Processor 13: field transfer
--> FOAM Warning : 
    From void* Foam::dlLibraryTable::openLibrary(const Foam::fileName&, bool)
    in file db/dynamicLibrary/dlLibraryTable/dlLibraryTable.C at line 188
    Could not load "libpetscFoam.so"
libpetscFoam.so: cannot open shared object file: No such file or directory
Processor 14: field transfer
--> FOAM Warning : 
    From void* Foam::dlLibraryTable::openLibrary(const Foam::fileName&, bool)
    in file db/dynamicLibrary/dlLibraryTable/dlLibraryTable.C at line 188
    Could not load "libpetscFoam.so"
libpetscFoam.so: cannot open shared object file: No such file or directory
Processor 15: field transfer
--> FOAM Warning : 
    From void* Foam::dlLibraryTable::openLibrary(const Foam::fileName&, bool)
    in file db/dynamicLibrary/dlLibraryTable/dlLibraryTable.C at line 188
    Could not load "libpetscFoam.so"
libpetscFoam.so: cannot open shared object file: No such file or directory
Processor 16: field transfer
--> FOAM Warning : 
    From void* Foam::dlLibraryTable::openLibrary(const Foam::fileName&, bool)
    in file db/dynamicLibrary/dlLibraryTable/dlLibraryTable.C at line 188
    Could not load "libpetscFoam.so"
libpetscFoam.so: cannot open shared object file: No such file or directory
Processor 17: field transfer
--> FOAM Warning : 
    From void* Foam::dlLibraryTable::openLibrary(const Foam::fileName&, bool)
    in file db/dynamicLibrary/dlLibraryTable/dlLibraryTable.C at line 188
    Could not load "libpetscFoam.so"
libpetscFoam.so: cannot open shared object file: No such file or directory
Processor 18: field transfer
--> FOAM Warning : 
    From void* Foam::dlLibraryTable::openLibrary(const Foam::fileName&, bool)
    in file db/dynamicLibrary/dlLibraryTable/dlLibraryTable.C at line 188
    Could not load "libpetscFoam.so"
libpetscFoam.so: cannot open shared object file: No such file or directory
Processor 19: field transfer
--> FOAM Warning : 
    From void* Foam::dlLibraryTable::openLibrary(const Foam::fileName&, bool)
    in file db/dynamicLibrary/dlLibraryTable/dlLibraryTable.C at line 188
    Could not load "libpetscFoam.so"
libpetscFoam.so: cannot open shared object file: No such file or directory
Processor 20: field transfer
--> FOAM Warning : 
    From void* Foam::dlLibraryTable::openLibrary(const Foam::fileName&, bool)
    in file db/dynamicLibrary/dlLibraryTable/dlLibraryTable.C at line 188
    Could not load "libpetscFoam.so"
libpetscFoam.so: cannot open shared object file: No such file or directory
Processor 21: field transfer
--> FOAM Warning : 
    From void* Foam::dlLibraryTable::openLibrary(const Foam::fileName&, bool)
    in file db/dynamicLibrary/dlLibraryTable/dlLibraryTable.C at line 188
    Could not load "libpetscFoam.so"
libpetscFoam.so: cannot open shared object file: No such file or directory
Processor 22: field transfer
--> FOAM Warning : 
    From void* Foam::dlLibraryTable::openLibrary(const Foam::fileName&, bool)
    in file db/dynamicLibrary/dlLibraryTable/dlLibraryTable.C at line 188
    Could not load "libpetscFoam.so"
libpetscFoam.so: cannot open shared object file: No such file or directory
Processor 23: field transfer
--> FOAM Warning : 
    From void* Foam::dlLibraryTable::openLibrary(const Foam::fileName&, bool)
    in file db/dynamicLibrary/dlLibraryTable/dlLibraryTable.C at line 188
    Could not load "libpetscFoam.so"
libpetscFoam.so: cannot open shared object file: No such file or directory
Processor 24: field transfer
--> FOAM Warning : 
    From void* Foam::dlLibraryTable::openLibrary(const Foam::fileName&, bool)
    in file db/dynamicLibrary/dlLibraryTable/dlLibraryTable.C at line 188
    Could not load "libpetscFoam.so"
libpetscFoam.so: cannot open shared object file: No such file or directory
Processor 25: field transfer
--> FOAM Warning : 
    From void* Foam::dlLibraryTable::openLibrary(const Foam::fileName&, bool)
    in file db/dynamicLibrary/dlLibraryTable/dlLibraryTable.C at line 188
    Could not load "libpetscFoam.so"
libpetscFoam.so: cannot open shared object file: No such file or directory
Processor 26: field transfer
--> FOAM Warning : 
    From void* Foam::dlLibraryTable::openLibrary(const Foam::fileName&, bool)
    in file db/dynamicLibrary/dlLibraryTable/dlLibraryTable.C at line 188
    Could not load "libpetscFoam.so"
libpetscFoam.so: cannot open shared object file: No such file or directory
Processor 27: field transfer
--> FOAM Warning : 
    From void* Foam::dlLibraryTable::openLibrary(const Foam::fileName&, bool)
    in file db/dynamicLibrary/dlLibraryTable/dlLibraryTable.C at line 188
    Could not load "libpetscFoam.so"
libpetscFoam.so: cannot open shared object file: No such file or directory
Processor 28: field transfer
--> FOAM Warning : 
    From void* Foam::dlLibraryTable::openLibrary(const Foam::fileName&, bool)
    in file db/dynamicLibrary/dlLibraryTable/dlLibraryTable.C at line 188
    Could not load "libpetscFoam.so"
libpetscFoam.so: cannot open shared object file: No such file or directory
Processor 29: field transfer
--> FOAM Warning : 
    From void* Foam::dlLibraryTable::openLibrary(const Foam::fileName&, bool)
    in file db/dynamicLibrary/dlLibraryTable/dlLibraryTable.C at line 188
    Could not load "libpetscFoam.so"
libpetscFoam.so: cannot open shared object file: No such file or directory
Processor 30: field transfer
--> FOAM Warning : 
    From void* Foam::dlLibraryTable::openLibrary(const Foam::fileName&, bool)
    in file db/dynamicLibrary/dlLibraryTable/dlLibraryTable.C at line 188
    Could not load "libpetscFoam.so"
libpetscFoam.so: cannot open shared object file: No such file or directory
Processor 31: field transfer
--> FOAM Warning : 
    From void* Foam::dlLibraryTable::openLibrary(const Foam::fileName&, bool)
    in file db/dynamicLibrary/dlLibraryTable/dlLibraryTable.C at line 188
    Could not load "libpetscFoam.so"
libpetscFoam.so: cannot open shared object file: No such file or directory
Processor 32: field transfer
--> FOAM Warning : 
    From void* Foam::dlLibraryTable::openLibrary(const Foam::fileName&, bool)
    in file db/dynamicLibrary/dlLibraryTable/dlLibraryTable.C at line 188
    Could not load "libpetscFoam.so"
libpetscFoam.so: cannot open shared object file: No such file or directory
Processor 33: field transfer
--> FOAM Warning : 
    From void* Foam::dlLibraryTable::openLibrary(const Foam::fileName&, bool)
    in file db/dynamicLibrary/dlLibraryTable/dlLibraryTable.C at line 188
    Could not load "libpetscFoam.so"
libpetscFoam.so: cannot open shared object file: No such file or directory
Processor 34: field transfer
--> FOAM Warning : 
    From void* Foam::dlLibraryTable::openLibrary(const Foam::fileName&, bool)
    in file db/dynamicLibrary/dlLibraryTable/dlLibraryTable.C at line 188
    Could not load "libpetscFoam.so"
libpetscFoam.so: cannot open shared object file: No such file or directory
Processor 35: field transfer
--> FOAM Warning : 
    From void* Foam::dlLibraryTable::openLibrary(const Foam::fileName&, bool)
    in file db/dynamicLibrary/dlLibraryTable/dlLibraryTable.C at line 188
    Could not load "libpetscFoam.so"
libpetscFoam.so: cannot open shared object file: No such file or directory
Processor 36: field transfer
--> FOAM Warning : 
    From void* Foam::dlLibraryTable::openLibrary(const Foam::fileName&, bool)
    in file db/dynamicLibrary/dlLibraryTable/dlLibraryTable.C at line 188
    Could not load "libpetscFoam.so"
libpetscFoam.so: cannot open shared object file: No such file or directory
Processor 37: field transfer
--> FOAM Warning : 
    From void* Foam::dlLibraryTable::openLibrary(const Foam::fileName&, bool)
    in file db/dynamicLibrary/dlLibraryTable/dlLibraryTable.C at line 188
    Could not load "libpetscFoam.so"
libpetscFoam.so: cannot open shared object file: No such file or directory
Processor 38: field transfer
--> FOAM Warning : 
    From void* Foam::dlLibraryTable::openLibrary(const Foam::fileName&, bool)
    in file db/dynamicLibrary/dlLibraryTable/dlLibraryTable.C at line 188
    Could not load "libpetscFoam.so"
libpetscFoam.so: cannot open shared object file: No such file or directory
Processor 39: field transfer
--> FOAM Warning : 
    From void* Foam::dlLibraryTable::openLibrary(const Foam::fileName&, bool)
    in file db/dynamicLibrary/dlLibraryTable/dlLibraryTable.C at line 188
    Could not load "libpetscFoam.so"
libpetscFoam.so: cannot open shared object file: No such file or directory

End

