/*---------------------------------------------------------------------------*\
| =========                 |                                                 |
| \\      /  F ield         | OpenFOAM: The Open Source CFD Toolbox           |
|  \\    /   O peration     | Version:  2306                                  |
|   \\  /    A nd           | Website:  www.openfoam.com                      |
|    \\/     M anipulation  |                                                 |
\*---------------------------------------------------------------------------*/
Build  : c423ebec-20231012 OPENFOAM=2306 version=v2306
Arch   : "LSB;label=32;scalar=64"
Exec   : decomposePar -force
Date   : Feb 16 2024
Time   : 09:03:06
Host   : hkn0052.localdomain
PID    : 13490
--> FOAM Warning : 
    From Foam::fileName Foam::cwd_L()
    in file POSIX.C at line 552
    PWD is not the cwd() - reverting to physical description
I/O    : uncollated
--> FOAM Warning : 
    From Foam::fileName Foam::cwd_L()
    in file POSIX.C at line 552
    PWD is not the cwd() - reverting to physical description
Case   : /hkfs/work/workspace/scratch/eq4036-windsorbody_setup/workspace/cdb10a60f7c3d5409462e430b3dcbcd3/case
nProcs : 1
trapFpe: Floating point exception trapping enabled (FOAM_SIGFPE).
fileModificationChecking : Monitoring run-time modified files using timeStampMaster (fileModificationSkew 5, maxFileModificationPolls 20)
allowSystemOperations : Allowing user-supplied system call operations

// * * * * * * * * * * * * * * * * * * * * * * * * * * * * * * * * * * * * * //
Create time

--> FOAM Warning : 
    From void* Foam::dlLibraryTable::openLibrary(const Foam::fileName&, bool)
    in file db/dynamicLibrary/dlLibraryTable/dlLibraryTable.C at line 188
    Could not load "libpetscFoam.so"
libpetscFoam.so: cannot open shared object file: No such file or directory


Decomposing mesh

Create mesh

Calculating distribution of cells
Decomposition method simple [76] (region region0)

Finished decomposition in 16.77 s

Calculating original mesh data

Distributing cells to processors

Distributing faces to processors

Distributing points to processors

Constructing processor meshes

Processor 0
    Number of cells = 335310
    Number of points = 365260
    Number of faces shared with processor 1 = 13683
    Number of faces shared with processor 38 = 1482
    Number of processor patches = 2
    Number of processor faces = 15165
    Number of boundary faces = 21546

Processor 1
    Number of cells = 332573
    Number of points = 358830
    Number of faces shared with processor 0 = 13683
    Number of faces shared with processor 2 = 18218
    Number of faces shared with processor 39 = 52
    Number of processor patches = 3
    Number of processor faces = 31953
    Number of boundary faces = 22158

Processor 2
    Number of cells = 333988
    Number of points = 365335
    Number of faces shared with processor 1 = 18218
    Number of faces shared with processor 3 = 19487
    Number of faces shared with processor 40 = 52
    Number of processor patches = 3
    Number of processor faces = 37757
    Number of boundary faces = 23405

Processor 3
    Number of cells = 332511
    Number of points = 365093
    Number of faces shared with processor 2 = 19487
    Number of faces shared with processor 4 = 20009
    Number of faces shared with processor 41 = 26
    Number of processor patches = 3
    Number of processor faces = 39522
    Number of boundary faces = 23488

Processor 4
    Number of cells = 330593
    Number of points = 367131
    Number of faces shared with processor 3 = 20009
    Number of faces shared with processor 5 = 20333
    Number of faces shared with processor 42 = 52
    Number of processor patches = 3
    Number of processor faces = 40394
    Number of boundary faces = 25048

Processor 5
    Number of cells = 331803
    Number of points = 371764
    Number of faces shared with processor 4 = 20333
    Number of faces shared with processor 6 = 20001
    Number of faces shared with processor 43 = 26
    Number of processor patches = 3
    Number of processor faces = 40360
    Number of boundary faces = 22218

Processor 6
    Number of cells = 331780
    Number of points = 371006
    Number of faces shared with processor 5 = 20001
    Number of faces shared with processor 7 = 19054
    Number of faces shared with processor 44 = 52
    Number of processor patches = 3
    Number of processor faces = 39107
    Number of boundary faces = 23455

Processor 7
    Number of cells = 332348
    Number of points = 370369
    Number of faces shared with processor 6 = 19054
    Number of faces shared with processor 8 = 19884
    Number of faces shared with processor 45 = 26
    Number of processor patches = 3
    Number of processor faces = 38964
    Number of boundary faces = 25331

Processor 8
    Number of cells = 332405
    Number of points = 371193
    Number of faces shared with processor 7 = 19884
    Number of faces shared with processor 9 = 18705
    Number of faces shared with processor 46 = 52
    Number of processor patches = 3
    Number of processor faces = 38641
    Number of boundary faces = 23888

Processor 9
    Number of cells = 332234
    Number of points = 370240
    Number of faces shared with processor 8 = 18705
    Number of faces shared with processor 10 = 20155
    Number of faces shared with processor 47 = 26
    Number of processor patches = 3
    Number of processor faces = 38886
    Number of boundary faces = 23623

Processor 10
    Number of cells = 334445
    Number of points = 372167
    Number of faces shared with processor 9 = 20155
    Number of faces shared with processor 11 = 27743
    Number of faces shared with processor 48 = 26
    Number of processor patches = 3
    Number of processor faces = 47924
    Number of boundary faces = 19981

Processor 11
    Number of cells = 334234
    Number of points = 369787
    Number of faces shared with processor 10 = 27743
    Number of faces shared with processor 12 = 27979
    Number of faces shared with processor 49 = 26
    Number of processor patches = 3
    Number of processor faces = 55748
    Number of boundary faces = 5106

Processor 12
    Number of cells = 328936
    Number of points = 363408
    Number of faces shared with processor 11 = 27979
    Number of faces shared with processor 13 = 27396
    Number of faces shared with processor 50 = 26
    Number of processor patches = 3
    Number of processor faces = 55401
    Number of boundary faces = 5185

Processor 13
    Number of cells = 331028
    Number of points = 365784
    Number of faces shared with processor 12 = 27396
    Number of faces shared with processor 14 = 28002
    Number of faces shared with processor 51 = 26
    Number of processor patches = 3
    Number of processor faces = 55424
    Number of boundary faces = 5139

Processor 14
    Number of cells = 332326
    Number of points = 368017
    Number of faces shared with processor 13 = 28002
    Number of faces shared with processor 15 = 28149
    Number of faces shared with processor 52 = 26
    Number of processor patches = 3
    Number of processor faces = 56177
    Number of boundary faces = 5054

Processor 15
    Number of cells = 333742
    Number of points = 369554
    Number of faces shared with processor 14 = 28149
    Number of faces shared with processor 16 = 27804
    Number of faces shared with processor 53 = 26
    Number of processor patches = 3
    Number of processor faces = 55979
    Number of boundary faces = 5095

Processor 16
    Number of cells = 333706
    Number of points = 369867
    Number of faces shared with processor 15 = 27804
    Number of faces shared with processor 17 = 28266
    Number of faces shared with processor 54 = 26
    Number of processor patches = 3
    Number of processor faces = 56096
    Number of boundary faces = 5092

Processor 17
    Number of cells = 329095
    Number of points = 365256
    Number of faces shared with processor 16 = 28266
    Number of faces shared with processor 18 = 28349
    Number of faces shared with processor 55 = 26
    Number of processor patches = 3
    Number of processor faces = 56641
    Number of boundary faces = 5036

Processor 18
    Number of cells = 330323
    Number of points = 366676
    Number of faces shared with processor 17 = 28349
    Number of faces shared with processor 19 = 28138
    Number of faces shared with processor 20 = 230
    Number of faces shared with processor 56 = 26
    Number of processor patches = 4
    Number of processor faces = 56743
    Number of boundary faces = 4974

Processor 19
    Number of cells = 335225
    Number of points = 370904
    Number of faces shared with processor 18 = 28138
    Number of faces shared with processor 20 = 27099
    Number of faces shared with processor 21 = 134
    Number of processor patches = 3
    Number of processor faces = 55371
    Number of boundary faces = 5062

Processor 20
    Number of cells = 331902
    Number of points = 366877
    Number of faces shared with processor 18 = 230
    Number of faces shared with processor 19 = 27099
    Number of faces shared with processor 21 = 28267
    Number of faces shared with processor 58 = 26
    Number of processor patches = 4
    Number of processor faces = 55622
    Number of boundary faces = 5115

Processor 21
    Number of cells = 330082
    Number of points = 366235
    Number of faces shared with processor 19 = 134
    Number of faces shared with processor 20 = 28267
    Number of faces shared with processor 22 = 28447
    Number of faces shared with processor 59 = 26
    Number of processor patches = 4
    Number of processor faces = 56874
    Number of boundary faces = 5067

Processor 22
    Number of cells = 331127
    Number of points = 366460
    Number of faces shared with processor 21 = 28447
    Number of faces shared with processor 23 = 28041
    Number of faces shared with processor 60 = 26
    Number of processor patches = 3
    Number of processor faces = 56514
    Number of boundary faces = 5071

Processor 23
    Number of cells = 335027
    Number of points = 370390
    Number of faces shared with processor 22 = 28041
    Number of faces shared with processor 24 = 27729
    Number of faces shared with processor 61 = 26
    Number of processor patches = 3
    Number of processor faces = 55796
    Number of boundary faces = 5154

Processor 24
    Number of cells = 332796
    Number of points = 367812
    Number of faces shared with processor 23 = 27729
    Number of faces shared with processor 25 = 28030
    Number of faces shared with processor 62 = 26
    Number of processor patches = 3
    Number of processor faces = 55785
    Number of boundary faces = 5165

Processor 25
    Number of cells = 332098
    Number of points = 367746
    Number of faces shared with processor 24 = 28030
    Number of faces shared with processor 26 = 28013
    Number of faces shared with processor 63 = 26
    Number of processor patches = 3
    Number of processor faces = 56069
    Number of boundary faces = 5122

Processor 26
    Number of cells = 327656
    Number of points = 362753
    Number of faces shared with processor 25 = 28013
    Number of faces shared with processor 27 = 27368
    Number of faces shared with processor 64 = 26
    Number of processor patches = 3
    Number of processor faces = 55407
    Number of boundary faces = 5068

Processor 27
    Number of cells = 332777
    Number of points = 368228
    Number of faces shared with processor 26 = 27368
    Number of faces shared with processor 28 = 28044
    Number of faces shared with processor 65 = 26
    Number of processor patches = 3
    Number of processor faces = 55438
    Number of boundary faces = 5064

Processor 28
    Number of cells = 334653
    Number of points = 370197
    Number of faces shared with processor 27 = 28044
    Number of faces shared with processor 29 = 27811
    Number of faces shared with processor 66 = 26
    Number of processor patches = 3
    Number of processor faces = 55881
    Number of boundary faces = 5129

Processor 29
    Number of cells = 332070
    Number of points = 367285
    Number of faces shared with processor 28 = 27811
    Number of faces shared with processor 30 = 28182
    Number of faces shared with processor 67 = 26
    Number of processor patches = 3
    Number of processor faces = 56019
    Number of boundary faces = 5132

Processor 30
    Number of cells = 329549
    Number of points = 365274
    Number of faces shared with processor 29 = 28182
    Number of faces shared with processor 31 = 28070
    Number of faces shared with processor 68 = 26
    Number of processor patches = 3
    Number of processor faces = 56278
    Number of boundary faces = 5081

Processor 31
    Number of cells = 328602
    Number of points = 364143
    Number of faces shared with processor 30 = 28070
    Number of faces shared with processor 32 = 16511
    Number of faces shared with processor 69 = 26
    Number of processor patches = 3
    Number of processor faces = 44607
    Number of boundary faces = 6311

Processor 32
    Number of cells = 331334
    Number of points = 361779
    Number of faces shared with processor 31 = 16511
    Number of faces shared with processor 33 = 15486
    Number of faces shared with processor 70 = 52
    Number of processor patches = 3
    Number of processor faces = 32049
    Number of boundary faces = 12971

Processor 33
    Number of cells = 331879
    Number of points = 362029
    Number of faces shared with processor 32 = 15486
    Number of faces shared with processor 34 = 15869
    Number of faces shared with processor 71 = 78
    Number of processor patches = 3
    Number of processor faces = 31433
    Number of boundary faces = 13415

Processor 34
    Number of cells = 332235
    Number of points = 362435
    Number of faces shared with processor 33 = 15869
    Number of faces shared with processor 35 = 15296
    Number of faces shared with processor 72 = 52
    Number of processor patches = 3
    Number of processor faces = 31217
    Number of boundary faces = 13277

Processor 35
    Number of cells = 331496
    Number of points = 359604
    Number of faces shared with processor 34 = 15296
    Number of faces shared with processor 36 = 15652
    Number of faces shared with processor 73 = 78
    Number of processor patches = 3
    Number of processor faces = 31026
    Number of boundary faces = 13602

Processor 36
    Number of cells = 330192
    Number of points = 358527
    Number of faces shared with processor 35 = 15652
    Number of faces shared with processor 37 = 14702
    Number of faces shared with processor 74 = 52
    Number of processor patches = 3
    Number of processor faces = 30406
    Number of boundary faces = 13483

Processor 37
    Number of cells = 330192
    Number of points = 359741
    Number of faces shared with processor 36 = 14702
    Number of faces shared with processor 75 = 1040
    Number of processor patches = 2
    Number of processor faces = 15742
    Number of boundary faces = 19553

Processor 38
    Number of cells = 328600
    Number of points = 358524
    Number of faces shared with processor 0 = 1482
    Number of faces shared with processor 39 = 14187
    Number of processor patches = 2
    Number of processor faces = 15669
    Number of boundary faces = 21198

Processor 39
    Number of cells = 331337
    Number of points = 357645
    Number of faces shared with processor 1 = 52
    Number of faces shared with processor 38 = 14187
    Number of faces shared with processor 40 = 17820
    Number of processor patches = 3
    Number of processor faces = 32059
    Number of boundary faces = 21938

Processor 40
    Number of cells = 329921
    Number of points = 360296
    Number of faces shared with processor 2 = 52
    Number of faces shared with processor 39 = 17820
    Number of faces shared with processor 41 = 18585
    Number of processor patches = 3
    Number of processor faces = 36457
    Number of boundary faces = 23233

Processor 41
    Number of cells = 331398
    Number of points = 363281
    Number of faces shared with processor 3 = 26
    Number of faces shared with processor 40 = 18585
    Number of faces shared with processor 42 = 19563
    Number of processor patches = 3
    Number of processor faces = 38174
    Number of boundary faces = 23316

Processor 42
    Number of cells = 333316
    Number of points = 370063
    Number of faces shared with processor 4 = 52
    Number of faces shared with processor 41 = 19563
    Number of faces shared with processor 43 = 21010
    Number of processor patches = 3
    Number of processor faces = 40625
    Number of boundary faces = 25246

Processor 43
    Number of cells = 332106
    Number of points = 372518
    Number of faces shared with processor 5 = 26
    Number of faces shared with processor 42 = 21010
    Number of faces shared with processor 44 = 20577
    Number of processor patches = 3
    Number of processor faces = 41613
    Number of boundary faces = 22252

Processor 44
    Number of cells = 332129
    Number of points = 372057
    Number of faces shared with processor 6 = 52
    Number of faces shared with processor 43 = 20577
    Number of faces shared with processor 45 = 19289
    Number of processor patches = 3
    Number of processor faces = 39918
    Number of boundary faces = 23422

Processor 45
    Number of cells = 331561
    Number of points = 369208
    Number of faces shared with processor 7 = 26
    Number of faces shared with processor 44 = 19289
    Number of faces shared with processor 46 = 19008
    Number of processor patches = 3
    Number of processor faces = 38323
    Number of boundary faces = 25291

Processor 46
    Number of cells = 331504
    Number of points = 370245
    Number of faces shared with processor 8 = 52
    Number of faces shared with processor 45 = 19008
    Number of faces shared with processor 47 = 19626
    Number of processor patches = 3
    Number of processor faces = 38686
    Number of boundary faces = 23803

Processor 47
    Number of cells = 331675
    Number of points = 369841
    Number of faces shared with processor 9 = 26
    Number of faces shared with processor 46 = 19626
    Number of faces shared with processor 48 = 19621
    Number of processor patches = 3
    Number of processor faces = 39273
    Number of boundary faces = 23656

Processor 48
    Number of cells = 329464
    Number of points = 367578
    Number of faces shared with processor 10 = 26
    Number of faces shared with processor 47 = 19621
    Number of faces shared with processor 49 = 28293
    Number of processor patches = 3
    Number of processor faces = 47940
    Number of boundary faces = 20555

Processor 49
    Number of cells = 329675
    Number of points = 365019
    Number of faces shared with processor 11 = 26
    Number of faces shared with processor 48 = 28293
    Number of faces shared with processor 50 = 27212
    Number of processor patches = 3
    Number of processor faces = 55531
    Number of boundary faces = 5012

Processor 50
    Number of cells = 334973
    Number of points = 369300
    Number of faces shared with processor 12 = 26
    Number of faces shared with processor 49 = 27212
    Number of faces shared with processor 51 = 27906
    Number of processor patches = 3
    Number of processor faces = 55144
    Number of boundary faces = 5238

Processor 51
    Number of cells = 332881
    Number of points = 367787
    Number of faces shared with processor 13 = 26
    Number of faces shared with processor 50 = 27906
    Number of faces shared with processor 52 = 27730
    Number of processor patches = 3
    Number of processor faces = 55662
    Number of boundary faces = 5158

Processor 52
    Number of cells = 331583
    Number of points = 366971
    Number of faces shared with processor 14 = 26
    Number of faces shared with processor 51 = 27730
    Number of faces shared with processor 53 = 28162
    Number of processor patches = 3
    Number of processor faces = 55918
    Number of boundary faces = 5126

Processor 53
    Number of cells = 330167
    Number of points = 366284
    Number of faces shared with processor 15 = 26
    Number of faces shared with processor 52 = 28162
    Number of faces shared with processor 54 = 28055
    Number of processor patches = 3
    Number of processor faces = 56243
    Number of boundary faces = 5043

Processor 54
    Number of cells = 330203
    Number of points = 366254
    Number of faces shared with processor 16 = 26
    Number of faces shared with processor 53 = 28055
    Number of faces shared with processor 55 = 28407
    Number of processor patches = 3
    Number of processor faces = 56488
    Number of boundary faces = 4988

Processor 55
    Number of cells = 334814
    Number of points = 371168
    Number of faces shared with processor 17 = 26
    Number of faces shared with processor 54 = 28407
    Number of faces shared with processor 56 = 28052
    Number of faces shared with processor 57 = 93
    Number of processor patches = 4
    Number of processor faces = 56578
    Number of boundary faces = 5087

Processor 56
    Number of cells = 333586
    Number of points = 369436
    Number of faces shared with processor 18 = 26
    Number of faces shared with processor 55 = 28052
    Number of faces shared with processor 57 = 27419
    Number of faces shared with processor 58 = 271
    Number of processor patches = 4
    Number of processor faces = 55768
    Number of boundary faces = 5046

Processor 57
    Number of cells = 328684
    Number of points = 364599
    Number of faces shared with processor 55 = 93
    Number of faces shared with processor 56 = 27419
    Number of faces shared with processor 58 = 28010
    Number of processor patches = 3
    Number of processor faces = 55522
    Number of boundary faces = 4995

Processor 58
    Number of cells = 332007
    Number of points = 367254
    Number of faces shared with processor 20 = 26
    Number of faces shared with processor 56 = 271
    Number of faces shared with processor 57 = 28010
    Number of faces shared with processor 59 = 27968
    Number of processor patches = 4
    Number of processor faces = 56275
    Number of boundary faces = 5073

Processor 59
    Number of cells = 333827
    Number of points = 369732
    Number of faces shared with processor 21 = 26
    Number of faces shared with processor 58 = 27968
    Number of faces shared with processor 60 = 28513
    Number of processor patches = 3
    Number of processor faces = 56507
    Number of boundary faces = 5116

Processor 60
    Number of cells = 332782
    Number of points = 368211
    Number of faces shared with processor 22 = 26
    Number of faces shared with processor 59 = 28513
    Number of faces shared with processor 61 = 27835
    Number of processor patches = 3
    Number of processor faces = 56374
    Number of boundary faces = 5153

Processor 61
    Number of cells = 328882
    Number of points = 364107
    Number of faces shared with processor 23 = 26
    Number of faces shared with processor 60 = 27835
    Number of faces shared with processor 62 = 28368
    Number of processor patches = 3
    Number of processor faces = 56229
    Number of boundary faces = 5104

Processor 62
    Number of cells = 331113
    Number of points = 366465
    Number of faces shared with processor 24 = 26
    Number of faces shared with processor 61 = 28368
    Number of faces shared with processor 63 = 27769
    Number of processor patches = 3
    Number of processor faces = 56163
    Number of boundary faces = 5113

Processor 63
    Number of cells = 331811
    Number of points = 366810
    Number of faces shared with processor 25 = 26
    Number of faces shared with processor 62 = 27769
    Number of faces shared with processor 64 = 27392
    Number of processor patches = 3
    Number of processor faces = 55187
    Number of boundary faces = 5080

Processor 64
    Number of cells = 336253
    Number of points = 371617
    Number of faces shared with processor 26 = 26
    Number of faces shared with processor 63 = 27392
    Number of faces shared with processor 65 = 27488
    Number of processor patches = 3
    Number of processor faces = 54906
    Number of boundary faces = 5164

Processor 65
    Number of cells = 331132
    Number of points = 366385
    Number of faces shared with processor 27 = 26
    Number of faces shared with processor 64 = 27488
    Number of faces shared with processor 66 = 27981
    Number of processor patches = 3
    Number of processor faces = 55495
    Number of boundary faces = 5112

Processor 66
    Number of cells = 329256
    Number of points = 365165
    Number of faces shared with processor 28 = 26
    Number of faces shared with processor 65 = 27981
    Number of faces shared with processor 67 = 28575
    Number of processor patches = 3
    Number of processor faces = 56582
    Number of boundary faces = 5056

Processor 67
    Number of cells = 331839
    Number of points = 367191
    Number of faces shared with processor 29 = 26
    Number of faces shared with processor 66 = 28575
    Number of faces shared with processor 68 = 27699
    Number of processor patches = 3
    Number of processor faces = 56300
    Number of boundary faces = 5067

Processor 68
    Number of cells = 334360
    Number of points = 370081
    Number of faces shared with processor 30 = 26
    Number of faces shared with processor 67 = 27699
    Number of faces shared with processor 69 = 28585
    Number of processor patches = 3
    Number of processor faces = 56310
    Number of boundary faces = 5131

Processor 69
    Number of cells = 335307
    Number of points = 371272
    Number of faces shared with processor 31 = 26
    Number of faces shared with processor 68 = 28585
    Number of faces shared with processor 70 = 16766
    Number of processor patches = 3
    Number of processor faces = 45377
    Number of boundary faces = 6253

Processor 70
    Number of cells = 332575
    Number of points = 363393
    Number of faces shared with processor 32 = 52
    Number of faces shared with processor 69 = 16766
    Number of faces shared with processor 71 = 15936
    Number of processor patches = 3
    Number of processor faces = 32754
    Number of boundary faces = 12977

Processor 71
    Number of cells = 332030
    Number of points = 362339
    Number of faces shared with processor 33 = 78
    Number of faces shared with processor 70 = 15936
    Number of faces shared with processor 72 = 15725
    Number of processor patches = 3
    Number of processor faces = 31739
    Number of boundary faces = 13473

Processor 72
    Number of cells = 331674
    Number of points = 361904
    Number of faces shared with processor 34 = 52
    Number of faces shared with processor 71 = 15725
    Number of faces shared with processor 73 = 15521
    Number of processor patches = 3
    Number of processor faces = 31298
    Number of boundary faces = 13214

Processor 73
    Number of cells = 332413
    Number of points = 360341
    Number of faces shared with processor 35 = 78
    Number of faces shared with processor 72 = 15521
    Number of faces shared with processor 74 = 15100
    Number of processor patches = 3
    Number of processor faces = 30699
    Number of boundary faces = 13712

Processor 74
    Number of cells = 333717
    Number of points = 362077
    Number of faces shared with processor 36 = 52
    Number of faces shared with processor 73 = 15100
    Number of faces shared with processor 75 = 14823
    Number of processor patches = 3
    Number of processor faces = 29975
    Number of boundary faces = 13479

Processor 75
    Number of cells = 333717
    Number of points = 363379
    Number of faces shared with processor 37 = 1040
    Number of faces shared with processor 74 = 14823
    Number of processor patches = 2
    Number of processor faces = 15863
    Number of boundary faces = 19784

Number of processor faces = 1745020
Max number of cells = 336253 (1.294898350059355% above average 331954.5263157895)
Max number of processor patches = 4 (32.17391304347827% above average 3.026315789473684)
Max number of faces between processors = 56874 (23.85027105706525% above average 45921.57894736842)

Time = 0

Processor 0: field transfer
--> FOAM Warning : 
    From void* Foam::dlLibraryTable::openLibrary(const Foam::fileName&, bool)
    in file db/dynamicLibrary/dlLibraryTable/dlLibraryTable.C at line 188
    Could not load "libpetscFoam.so"
libpetscFoam.so: cannot open shared object file: No such file or directory
Processor 1: field transfer
--> FOAM Warning : 
    From void* Foam::dlLibraryTable::openLibrary(const Foam::fileName&, bool)
    in file db/dynamicLibrary/dlLibraryTable/dlLibraryTable.C at line 188
    Could not load "libpetscFoam.so"
libpetscFoam.so: cannot open shared object file: No such file or directory
Processor 2: field transfer
--> FOAM Warning : 
    From void* Foam::dlLibraryTable::openLibrary(const Foam::fileName&, bool)
    in file db/dynamicLibrary/dlLibraryTable/dlLibraryTable.C at line 188
    Could not load "libpetscFoam.so"
libpetscFoam.so: cannot open shared object file: No such file or directory
Processor 3: field transfer
--> FOAM Warning : 
    From void* Foam::dlLibraryTable::openLibrary(const Foam::fileName&, bool)
    in file db/dynamicLibrary/dlLibraryTable/dlLibraryTable.C at line 188
    Could not load "libpetscFoam.so"
libpetscFoam.so: cannot open shared object file: No such file or directory
Processor 4: field transfer
--> FOAM Warning : 
    From void* Foam::dlLibraryTable::openLibrary(const Foam::fileName&, bool)
    in file db/dynamicLibrary/dlLibraryTable/dlLibraryTable.C at line 188
    Could not load "libpetscFoam.so"
libpetscFoam.so: cannot open shared object file: No such file or directory
Processor 5: field transfer
--> FOAM Warning : 
    From void* Foam::dlLibraryTable::openLibrary(const Foam::fileName&, bool)
    in file db/dynamicLibrary/dlLibraryTable/dlLibraryTable.C at line 188
    Could not load "libpetscFoam.so"
libpetscFoam.so: cannot open shared object file: No such file or directory
Processor 6: field transfer
--> FOAM Warning : 
    From void* Foam::dlLibraryTable::openLibrary(const Foam::fileName&, bool)
    in file db/dynamicLibrary/dlLibraryTable/dlLibraryTable.C at line 188
    Could not load "libpetscFoam.so"
libpetscFoam.so: cannot open shared object file: No such file or directory
Processor 7: field transfer
--> FOAM Warning : 
    From void* Foam::dlLibraryTable::openLibrary(const Foam::fileName&, bool)
    in file db/dynamicLibrary/dlLibraryTable/dlLibraryTable.C at line 188
    Could not load "libpetscFoam.so"
libpetscFoam.so: cannot open shared object file: No such file or directory
Processor 8: field transfer
--> FOAM Warning : 
    From void* Foam::dlLibraryTable::openLibrary(const Foam::fileName&, bool)
    in file db/dynamicLibrary/dlLibraryTable/dlLibraryTable.C at line 188
    Could not load "libpetscFoam.so"
libpetscFoam.so: cannot open shared object file: No such file or directory
Processor 9: field transfer
--> FOAM Warning : 
    From void* Foam::dlLibraryTable::openLibrary(const Foam::fileName&, bool)
    in file db/dynamicLibrary/dlLibraryTable/dlLibraryTable.C at line 188
    Could not load "libpetscFoam.so"
libpetscFoam.so: cannot open shared object file: No such file or directory
Processor 10: field transfer
--> FOAM Warning : 
    From void* Foam::dlLibraryTable::openLibrary(const Foam::fileName&, bool)
    in file db/dynamicLibrary/dlLibraryTable/dlLibraryTable.C at line 188
    Could not load "libpetscFoam.so"
libpetscFoam.so: cannot open shared object file: No such file or directory
Processor 11: field transfer
--> FOAM Warning : 
    From void* Foam::dlLibraryTable::openLibrary(const Foam::fileName&, bool)
    in file db/dynamicLibrary/dlLibraryTable/dlLibraryTable.C at line 188
    Could not load "libpetscFoam.so"
libpetscFoam.so: cannot open shared object file: No such file or directory
Processor 12: field transfer
--> FOAM Warning : 
    From void* Foam::dlLibraryTable::openLibrary(const Foam::fileName&, bool)
    in file db/dynamicLibrary/dlLibraryTable/dlLibraryTable.C at line 188
    Could not load "libpetscFoam.so"
libpetscFoam.so: cannot open shared object file: No such file or directory
Processor 13: field transfer
--> FOAM Warning : 
    From void* Foam::dlLibraryTable::openLibrary(const Foam::fileName&, bool)
    in file db/dynamicLibrary/dlLibraryTable/dlLibraryTable.C at line 188
    Could not load "libpetscFoam.so"
libpetscFoam.so: cannot open shared object file: No such file or directory
Processor 14: field transfer
--> FOAM Warning : 
    From void* Foam::dlLibraryTable::openLibrary(const Foam::fileName&, bool)
    in file db/dynamicLibrary/dlLibraryTable/dlLibraryTable.C at line 188
    Could not load "libpetscFoam.so"
libpetscFoam.so: cannot open shared object file: No such file or directory
Processor 15: field transfer
--> FOAM Warning : 
    From void* Foam::dlLibraryTable::openLibrary(const Foam::fileName&, bool)
    in file db/dynamicLibrary/dlLibraryTable/dlLibraryTable.C at line 188
    Could not load "libpetscFoam.so"
libpetscFoam.so: cannot open shared object file: No such file or directory
Processor 16: field transfer
--> FOAM Warning : 
    From void* Foam::dlLibraryTable::openLibrary(const Foam::fileName&, bool)
    in file db/dynamicLibrary/dlLibraryTable/dlLibraryTable.C at line 188
    Could not load "libpetscFoam.so"
libpetscFoam.so: cannot open shared object file: No such file or directory
Processor 17: field transfer
--> FOAM Warning : 
    From void* Foam::dlLibraryTable::openLibrary(const Foam::fileName&, bool)
    in file db/dynamicLibrary/dlLibraryTable/dlLibraryTable.C at line 188
    Could not load "libpetscFoam.so"
libpetscFoam.so: cannot open shared object file: No such file or directory
Processor 18: field transfer
--> FOAM Warning : 
    From void* Foam::dlLibraryTable::openLibrary(const Foam::fileName&, bool)
    in file db/dynamicLibrary/dlLibraryTable/dlLibraryTable.C at line 188
    Could not load "libpetscFoam.so"
libpetscFoam.so: cannot open shared object file: No such file or directory
Processor 19: field transfer
--> FOAM Warning : 
    From void* Foam::dlLibraryTable::openLibrary(const Foam::fileName&, bool)
    in file db/dynamicLibrary/dlLibraryTable/dlLibraryTable.C at line 188
    Could not load "libpetscFoam.so"
libpetscFoam.so: cannot open shared object file: No such file or directory
Processor 20: field transfer
--> FOAM Warning : 
    From void* Foam::dlLibraryTable::openLibrary(const Foam::fileName&, bool)
    in file db/dynamicLibrary/dlLibraryTable/dlLibraryTable.C at line 188
    Could not load "libpetscFoam.so"
libpetscFoam.so: cannot open shared object file: No such file or directory
Processor 21: field transfer
--> FOAM Warning : 
    From void* Foam::dlLibraryTable::openLibrary(const Foam::fileName&, bool)
    in file db/dynamicLibrary/dlLibraryTable/dlLibraryTable.C at line 188
    Could not load "libpetscFoam.so"
libpetscFoam.so: cannot open shared object file: No such file or directory
Processor 22: field transfer
--> FOAM Warning : 
    From void* Foam::dlLibraryTable::openLibrary(const Foam::fileName&, bool)
    in file db/dynamicLibrary/dlLibraryTable/dlLibraryTable.C at line 188
    Could not load "libpetscFoam.so"
libpetscFoam.so: cannot open shared object file: No such file or directory
Processor 23: field transfer
--> FOAM Warning : 
    From void* Foam::dlLibraryTable::openLibrary(const Foam::fileName&, bool)
    in file db/dynamicLibrary/dlLibraryTable/dlLibraryTable.C at line 188
    Could not load "libpetscFoam.so"
libpetscFoam.so: cannot open shared object file: No such file or directory
Processor 24: field transfer
--> FOAM Warning : 
    From void* Foam::dlLibraryTable::openLibrary(const Foam::fileName&, bool)
    in file db/dynamicLibrary/dlLibraryTable/dlLibraryTable.C at line 188
    Could not load "libpetscFoam.so"
libpetscFoam.so: cannot open shared object file: No such file or directory
Processor 25: field transfer
--> FOAM Warning : 
    From void* Foam::dlLibraryTable::openLibrary(const Foam::fileName&, bool)
    in file db/dynamicLibrary/dlLibraryTable/dlLibraryTable.C at line 188
    Could not load "libpetscFoam.so"
libpetscFoam.so: cannot open shared object file: No such file or directory
Processor 26: field transfer
--> FOAM Warning : 
    From void* Foam::dlLibraryTable::openLibrary(const Foam::fileName&, bool)
    in file db/dynamicLibrary/dlLibraryTable/dlLibraryTable.C at line 188
    Could not load "libpetscFoam.so"
libpetscFoam.so: cannot open shared object file: No such file or directory
Processor 27: field transfer
--> FOAM Warning : 
    From void* Foam::dlLibraryTable::openLibrary(const Foam::fileName&, bool)
    in file db/dynamicLibrary/dlLibraryTable/dlLibraryTable.C at line 188
    Could not load "libpetscFoam.so"
libpetscFoam.so: cannot open shared object file: No such file or directory
Processor 28: field transfer
--> FOAM Warning : 
    From void* Foam::dlLibraryTable::openLibrary(const Foam::fileName&, bool)
    in file db/dynamicLibrary/dlLibraryTable/dlLibraryTable.C at line 188
    Could not load "libpetscFoam.so"
libpetscFoam.so: cannot open shared object file: No such file or directory
Processor 29: field transfer
--> FOAM Warning : 
    From void* Foam::dlLibraryTable::openLibrary(const Foam::fileName&, bool)
    in file db/dynamicLibrary/dlLibraryTable/dlLibraryTable.C at line 188
    Could not load "libpetscFoam.so"
libpetscFoam.so: cannot open shared object file: No such file or directory
Processor 30: field transfer
--> FOAM Warning : 
    From void* Foam::dlLibraryTable::openLibrary(const Foam::fileName&, bool)
    in file db/dynamicLibrary/dlLibraryTable/dlLibraryTable.C at line 188
    Could not load "libpetscFoam.so"
libpetscFoam.so: cannot open shared object file: No such file or directory
Processor 31: field transfer
--> FOAM Warning : 
    From void* Foam::dlLibraryTable::openLibrary(const Foam::fileName&, bool)
    in file db/dynamicLibrary/dlLibraryTable/dlLibraryTable.C at line 188
    Could not load "libpetscFoam.so"
libpetscFoam.so: cannot open shared object file: No such file or directory
Processor 32: field transfer
--> FOAM Warning : 
    From void* Foam::dlLibraryTable::openLibrary(const Foam::fileName&, bool)
    in file db/dynamicLibrary/dlLibraryTable/dlLibraryTable.C at line 188
    Could not load "libpetscFoam.so"
libpetscFoam.so: cannot open shared object file: No such file or directory
Processor 33: field transfer
--> FOAM Warning : 
    From void* Foam::dlLibraryTable::openLibrary(const Foam::fileName&, bool)
    in file db/dynamicLibrary/dlLibraryTable/dlLibraryTable.C at line 188
    Could not load "libpetscFoam.so"
libpetscFoam.so: cannot open shared object file: No such file or directory
Processor 34: field transfer
--> FOAM Warning : 
    From void* Foam::dlLibraryTable::openLibrary(const Foam::fileName&, bool)
    in file db/dynamicLibrary/dlLibraryTable/dlLibraryTable.C at line 188
    Could not load "libpetscFoam.so"
libpetscFoam.so: cannot open shared object file: No such file or directory
Processor 35: field transfer
--> FOAM Warning : 
    From void* Foam::dlLibraryTable::openLibrary(const Foam::fileName&, bool)
    in file db/dynamicLibrary/dlLibraryTable/dlLibraryTable.C at line 188
    Could not load "libpetscFoam.so"
libpetscFoam.so: cannot open shared object file: No such file or directory
Processor 36: field transfer
--> FOAM Warning : 
    From void* Foam::dlLibraryTable::openLibrary(const Foam::fileName&, bool)
    in file db/dynamicLibrary/dlLibraryTable/dlLibraryTable.C at line 188
    Could not load "libpetscFoam.so"
libpetscFoam.so: cannot open shared object file: No such file or directory
Processor 37: field transfer
--> FOAM Warning : 
    From void* Foam::dlLibraryTable::openLibrary(const Foam::fileName&, bool)
    in file db/dynamicLibrary/dlLibraryTable/dlLibraryTable.C at line 188
    Could not load "libpetscFoam.so"
libpetscFoam.so: cannot open shared object file: No such file or directory
Processor 38: field transfer
--> FOAM Warning : 
    From void* Foam::dlLibraryTable::openLibrary(const Foam::fileName&, bool)
    in file db/dynamicLibrary/dlLibraryTable/dlLibraryTable.C at line 188
    Could not load "libpetscFoam.so"
libpetscFoam.so: cannot open shared object file: No such file or directory
Processor 39: field transfer
--> FOAM Warning : 
    From void* Foam::dlLibraryTable::openLibrary(const Foam::fileName&, bool)
    in file db/dynamicLibrary/dlLibraryTable/dlLibraryTable.C at line 188
    Could not load "libpetscFoam.so"
libpetscFoam.so: cannot open shared object file: No such file or directory
Processor 40: field transfer
--> FOAM Warning : 
    From void* Foam::dlLibraryTable::openLibrary(const Foam::fileName&, bool)
    in file db/dynamicLibrary/dlLibraryTable/dlLibraryTable.C at line 188
    Could not load "libpetscFoam.so"
libpetscFoam.so: cannot open shared object file: No such file or directory
Processor 41: field transfer
--> FOAM Warning : 
    From void* Foam::dlLibraryTable::openLibrary(const Foam::fileName&, bool)
    in file db/dynamicLibrary/dlLibraryTable/dlLibraryTable.C at line 188
    Could not load "libpetscFoam.so"
libpetscFoam.so: cannot open shared object file: No such file or directory
Processor 42: field transfer
--> FOAM Warning : 
    From void* Foam::dlLibraryTable::openLibrary(const Foam::fileName&, bool)
    in file db/dynamicLibrary/dlLibraryTable/dlLibraryTable.C at line 188
    Could not load "libpetscFoam.so"
libpetscFoam.so: cannot open shared object file: No such file or directory
Processor 43: field transfer
--> FOAM Warning : 
    From void* Foam::dlLibraryTable::openLibrary(const Foam::fileName&, bool)
    in file db/dynamicLibrary/dlLibraryTable/dlLibraryTable.C at line 188
    Could not load "libpetscFoam.so"
libpetscFoam.so: cannot open shared object file: No such file or directory
Processor 44: field transfer
--> FOAM Warning : 
    From void* Foam::dlLibraryTable::openLibrary(const Foam::fileName&, bool)
    in file db/dynamicLibrary/dlLibraryTable/dlLibraryTable.C at line 188
    Could not load "libpetscFoam.so"
libpetscFoam.so: cannot open shared object file: No such file or directory
Processor 45: field transfer
--> FOAM Warning : 
    From void* Foam::dlLibraryTable::openLibrary(const Foam::fileName&, bool)
    in file db/dynamicLibrary/dlLibraryTable/dlLibraryTable.C at line 188
    Could not load "libpetscFoam.so"
libpetscFoam.so: cannot open shared object file: No such file or directory
Processor 46: field transfer
--> FOAM Warning : 
    From void* Foam::dlLibraryTable::openLibrary(const Foam::fileName&, bool)
    in file db/dynamicLibrary/dlLibraryTable/dlLibraryTable.C at line 188
    Could not load "libpetscFoam.so"
libpetscFoam.so: cannot open shared object file: No such file or directory
Processor 47: field transfer
--> FOAM Warning : 
    From void* Foam::dlLibraryTable::openLibrary(const Foam::fileName&, bool)
    in file db/dynamicLibrary/dlLibraryTable/dlLibraryTable.C at line 188
    Could not load "libpetscFoam.so"
libpetscFoam.so: cannot open shared object file: No such file or directory
Processor 48: field transfer
--> FOAM Warning : 
    From void* Foam::dlLibraryTable::openLibrary(const Foam::fileName&, bool)
    in file db/dynamicLibrary/dlLibraryTable/dlLibraryTable.C at line 188
    Could not load "libpetscFoam.so"
libpetscFoam.so: cannot open shared object file: No such file or directory
Processor 49: field transfer
--> FOAM Warning : 
    From void* Foam::dlLibraryTable::openLibrary(const Foam::fileName&, bool)
    in file db/dynamicLibrary/dlLibraryTable/dlLibraryTable.C at line 188
    Could not load "libpetscFoam.so"
libpetscFoam.so: cannot open shared object file: No such file or directory
Processor 50: field transfer
--> FOAM Warning : 
    From void* Foam::dlLibraryTable::openLibrary(const Foam::fileName&, bool)
    in file db/dynamicLibrary/dlLibraryTable/dlLibraryTable.C at line 188
    Could not load "libpetscFoam.so"
libpetscFoam.so: cannot open shared object file: No such file or directory
Processor 51: field transfer
--> FOAM Warning : 
    From void* Foam::dlLibraryTable::openLibrary(const Foam::fileName&, bool)
    in file db/dynamicLibrary/dlLibraryTable/dlLibraryTable.C at line 188
    Could not load "libpetscFoam.so"
libpetscFoam.so: cannot open shared object file: No such file or directory
Processor 52: field transfer
--> FOAM Warning : 
    From void* Foam::dlLibraryTable::openLibrary(const Foam::fileName&, bool)
    in file db/dynamicLibrary/dlLibraryTable/dlLibraryTable.C at line 188
    Could not load "libpetscFoam.so"
libpetscFoam.so: cannot open shared object file: No such file or directory
Processor 53: field transfer
--> FOAM Warning : 
    From void* Foam::dlLibraryTable::openLibrary(const Foam::fileName&, bool)
    in file db/dynamicLibrary/dlLibraryTable/dlLibraryTable.C at line 188
    Could not load "libpetscFoam.so"
libpetscFoam.so: cannot open shared object file: No such file or directory
Processor 54: field transfer
--> FOAM Warning : 
    From void* Foam::dlLibraryTable::openLibrary(const Foam::fileName&, bool)
    in file db/dynamicLibrary/dlLibraryTable/dlLibraryTable.C at line 188
    Could not load "libpetscFoam.so"
libpetscFoam.so: cannot open shared object file: No such file or directory
Processor 55: field transfer
--> FOAM Warning : 
    From void* Foam::dlLibraryTable::openLibrary(const Foam::fileName&, bool)
    in file db/dynamicLibrary/dlLibraryTable/dlLibraryTable.C at line 188
    Could not load "libpetscFoam.so"
libpetscFoam.so: cannot open shared object file: No such file or directory
Processor 56: field transfer
--> FOAM Warning : 
    From void* Foam::dlLibraryTable::openLibrary(const Foam::fileName&, bool)
    in file db/dynamicLibrary/dlLibraryTable/dlLibraryTable.C at line 188
    Could not load "libpetscFoam.so"
libpetscFoam.so: cannot open shared object file: No such file or directory
Processor 57: field transfer
--> FOAM Warning : 
    From void* Foam::dlLibraryTable::openLibrary(const Foam::fileName&, bool)
    in file db/dynamicLibrary/dlLibraryTable/dlLibraryTable.C at line 188
    Could not load "libpetscFoam.so"
libpetscFoam.so: cannot open shared object file: No such file or directory
Processor 58: field transfer
--> FOAM Warning : 
    From void* Foam::dlLibraryTable::openLibrary(const Foam::fileName&, bool)
    in file db/dynamicLibrary/dlLibraryTable/dlLibraryTable.C at line 188
    Could not load "libpetscFoam.so"
libpetscFoam.so: cannot open shared object file: No such file or directory
Processor 59: field transfer
--> FOAM Warning : 
    From void* Foam::dlLibraryTable::openLibrary(const Foam::fileName&, bool)
    in file db/dynamicLibrary/dlLibraryTable/dlLibraryTable.C at line 188
    Could not load "libpetscFoam.so"
libpetscFoam.so: cannot open shared object file: No such file or directory
Processor 60: field transfer
--> FOAM Warning : 
    From void* Foam::dlLibraryTable::openLibrary(const Foam::fileName&, bool)
    in file db/dynamicLibrary/dlLibraryTable/dlLibraryTable.C at line 188
    Could not load "libpetscFoam.so"
libpetscFoam.so: cannot open shared object file: No such file or directory
Processor 61: field transfer
--> FOAM Warning : 
    From void* Foam::dlLibraryTable::openLibrary(const Foam::fileName&, bool)
    in file db/dynamicLibrary/dlLibraryTable/dlLibraryTable.C at line 188
    Could not load "libpetscFoam.so"
libpetscFoam.so: cannot open shared object file: No such file or directory
Processor 62: field transfer
--> FOAM Warning : 
    From void* Foam::dlLibraryTable::openLibrary(const Foam::fileName&, bool)
    in file db/dynamicLibrary/dlLibraryTable/dlLibraryTable.C at line 188
    Could not load "libpetscFoam.so"
libpetscFoam.so: cannot open shared object file: No such file or directory
Processor 63: field transfer
--> FOAM Warning : 
    From void* Foam::dlLibraryTable::openLibrary(const Foam::fileName&, bool)
    in file db/dynamicLibrary/dlLibraryTable/dlLibraryTable.C at line 188
    Could not load "libpetscFoam.so"
libpetscFoam.so: cannot open shared object file: No such file or directory
Processor 64: field transfer
--> FOAM Warning : 
    From void* Foam::dlLibraryTable::openLibrary(const Foam::fileName&, bool)
    in file db/dynamicLibrary/dlLibraryTable/dlLibraryTable.C at line 188
    Could not load "libpetscFoam.so"
libpetscFoam.so: cannot open shared object file: No such file or directory
Processor 65: field transfer
--> FOAM Warning : 
    From void* Foam::dlLibraryTable::openLibrary(const Foam::fileName&, bool)
    in file db/dynamicLibrary/dlLibraryTable/dlLibraryTable.C at line 188
    Could not load "libpetscFoam.so"
libpetscFoam.so: cannot open shared object file: No such file or directory
Processor 66: field transfer
--> FOAM Warning : 
    From void* Foam::dlLibraryTable::openLibrary(const Foam::fileName&, bool)
    in file db/dynamicLibrary/dlLibraryTable/dlLibraryTable.C at line 188
    Could not load "libpetscFoam.so"
libpetscFoam.so: cannot open shared object file: No such file or directory
Processor 67: field transfer
--> FOAM Warning : 
    From void* Foam::dlLibraryTable::openLibrary(const Foam::fileName&, bool)
    in file db/dynamicLibrary/dlLibraryTable/dlLibraryTable.C at line 188
    Could not load "libpetscFoam.so"
libpetscFoam.so: cannot open shared object file: No such file or directory
Processor 68: field transfer
--> FOAM Warning : 
    From void* Foam::dlLibraryTable::openLibrary(const Foam::fileName&, bool)
    in file db/dynamicLibrary/dlLibraryTable/dlLibraryTable.C at line 188
    Could not load "libpetscFoam.so"
libpetscFoam.so: cannot open shared object file: No such file or directory
Processor 69: field transfer
--> FOAM Warning : 
    From void* Foam::dlLibraryTable::openLibrary(const Foam::fileName&, bool)
    in file db/dynamicLibrary/dlLibraryTable/dlLibraryTable.C at line 188
    Could not load "libpetscFoam.so"
libpetscFoam.so: cannot open shared object file: No such file or directory
Processor 70: field transfer
--> FOAM Warning : 
    From void* Foam::dlLibraryTable::openLibrary(const Foam::fileName&, bool)
    in file db/dynamicLibrary/dlLibraryTable/dlLibraryTable.C at line 188
    Could not load "libpetscFoam.so"
libpetscFoam.so: cannot open shared object file: No such file or directory
Processor 71: field transfer
--> FOAM Warning : 
    From void* Foam::dlLibraryTable::openLibrary(const Foam::fileName&, bool)
    in file db/dynamicLibrary/dlLibraryTable/dlLibraryTable.C at line 188
    Could not load "libpetscFoam.so"
libpetscFoam.so: cannot open shared object file: No such file or directory
Processor 72: field transfer
--> FOAM Warning : 
    From void* Foam::dlLibraryTable::openLibrary(const Foam::fileName&, bool)
    in file db/dynamicLibrary/dlLibraryTable/dlLibraryTable.C at line 188
    Could not load "libpetscFoam.so"
libpetscFoam.so: cannot open shared object file: No such file or directory
Processor 73: field transfer
--> FOAM Warning : 
    From void* Foam::dlLibraryTable::openLibrary(const Foam::fileName&, bool)
    in file db/dynamicLibrary/dlLibraryTable/dlLibraryTable.C at line 188
    Could not load "libpetscFoam.so"
libpetscFoam.so: cannot open shared object file: No such file or directory
Processor 74: field transfer
--> FOAM Warning : 
    From void* Foam::dlLibraryTable::openLibrary(const Foam::fileName&, bool)
    in file db/dynamicLibrary/dlLibraryTable/dlLibraryTable.C at line 188
    Could not load "libpetscFoam.so"
libpetscFoam.so: cannot open shared object file: No such file or directory
Processor 75: field transfer
--> FOAM Warning : 
    From void* Foam::dlLibraryTable::openLibrary(const Foam::fileName&, bool)
    in file db/dynamicLibrary/dlLibraryTable/dlLibraryTable.C at line 188
    Could not load "libpetscFoam.so"
libpetscFoam.so: cannot open shared object file: No such file or directory

End

