/*---------------------------------------------------------------------------*\
| =========                 |                                                 |
| \\      /  F ield         | OpenFOAM: The Open Source CFD Toolbox           |
|  \\    /   O peration     | Version:  2306                                  |
|   \\  /    A nd           | Website:  www.openfoam.com                      |
|    \\/     M anipulation  |                                                 |
\*---------------------------------------------------------------------------*/
Build  : c423ebec-20231012 OPENFOAM=2306 version=v2306
Arch   : "LSB;label=32;scalar=64"
Exec   : icoFoam -parallel -case /hkfs/work/workspace/scratch/eq4036-l3d/workspace/cc836a611a26066840d5703592c5cb90/case
Date   : Jan 10 2024
Time   : 21:59:51
Host   : hkn0407.localdomain
PID    : 103607
I/O    : uncollated
Case   : /hkfs/work/workspace/scratch/eq4036-l3d/workspace/cc836a611a26066840d5703592c5cb90/case
nProcs : 76
Hosts  :
(
    (hkn0407.localdomain 76)
)
Pstream initialized with:
    floatTransfer      : false
    nProcsSimpleSum    : 0
    nonBlockingExchange: 0 (tuning: 0)
    exchange algorithm : -1
    commsType          : nonBlocking
    polling iterations : 0
trapFpe: Floating point exception trapping enabled (FOAM_SIGFPE).
fileModificationChecking : Monitoring run-time modified files using timeStampMaster (fileModificationSkew 5, maxFileModificationPolls 20)
allowSystemOperations : Allowing user-supplied system call operations

// * * * * * * * * * * * * * * * * * * * * * * * * * * * * * * * * * * * * * //
Create time

--> FOAM Warning : 
    From void* Foam::dlLibraryTable::openLibrary(const Foam::fileName&, bool)
    in file db/dynamicLibrary/dlLibraryTable/dlLibraryTable.C at line 188
    Could not load "libpetscFoam.so"
libpetscFoam.so: cannot open shared object file: No such file or directory
Create mesh for time = 0


PISO: Operating solver in PISO mode

Reading transportProperties

Reading field p

Reading field U

Reading/calculating face flux field phi


Starting time loop

Time = 0.0005

Courant Number mean: 8.62851e-18 max: 8.67362e-15
[INFO] MatrixAssemblyU: 7.723 [ms]
DILUPBiCGStab:  Solving for Ux, Initial residual = 1, Final residual = 0.00725578, No Iterations 5
DILUPBiCGStab:  Solving for Uy:  solution singularity
DILUPBiCGStab:  Solving for Uz:  solution singularity
[INFO] MomentumPredictor: 15.658 [ms]
[INFO] MatrixAssemblyPI: 4.971 [ms]
[INFO] AdjustPhi: 0.923 [ms]
[INFO] ConstrainPressure: 0.004 [ms]
[INFO] MatrixAssemblyPII: 1.488 [ms]
[OGL LOG][lduLduBase.H:119] Initialising OGL
	OGL commit:  e75313f+
	Branch: dev 
	Build type: Debug
	Ginkgo version: 1.8.0 ( develop)
	Ginkgo commit: sparse-communicator
	MPI is GPU aware: 1
	Forces host buffer based communication: 0
	CPU ranks per GPU: 1
	Matrix format: Ell
	End OGL_INFO
[OGL LOG][Proc: 0]: global_index_init: 31.531 [ms]
[OGL LOG][Proc: 0]p_local_cols: call_init: 1.306 [ms]
[OGL LOG][Proc: 0]p_local_rows: call_init: 0.902 [ms]
[OGL LOG][Proc: 0]p_local_ldu_map: call_init: 0.554 [ms]
[OGL LOG][Proc: 0]p_local_coeffs: call_init: 7.296 [ms]
[OGL LOG][Proc: 0]p_non_local_cols: call_init: 0.022 [ms]
[OGL LOG][Proc: 0]p_non_local_rows: call_init: 0.158 [ms]
[OGL LOG][Proc: 0]p_non_local_ldu_map: call_init: 0.515 [ms]
[OGL LOG][Proc: 0]p_non_local_coeffs: call_init: 0.44 [ms]
[OGL LOG][Proc: 0]p: init_local_sparsity_pattern: 251.247 [ms]
[OGL LOG][Proc: 0]p: init_non_local_sparsity_pattern: 21.915 [ms]
[OGL LOG][Proc: 0]p: update_local_matrix_data: 84.847 [ms]
[OGL LOG][Proc: 0]p: update_non_local_matrix_data: 0.239 [ms]
[OGL LOG][Proc: 0]device_partition: call_init: 0.16 [ms]
[OGL LOG][Proc: 0]p_matrix: call_init: 13.907 [ms]
[OGL LOG][Proc: 0]p_rhs: call_init: 4.673 [ms]
[OGL LOG][Proc: 0]p_solution: call_init: 0.605 [ms]
[OGL LOG][Proc: 0]p: init_precond: 0.462 [ms]
[OGL LOG][StoppingCriterion.H:239] Creating stopping criterion with minIter 0 frequency 1
[OGL LOG][Proc: 0]p: generate_solver: 1.151 [ms]
[OGL LOG][Proc: 0]p: solve: 28251.5 [ms]
[OGL LOG][Proc: 0]p: copy_x_back: 0.188 [ms]
[OGL LOG][lduLduBase.H:330] 
Statistics:
	Time per iteration: 35581 [mu s]
	Time per residual norm calculation: 31940.000000 [mu s]
	Time per iteration and DOF: 35.581000 [ns]
	Retrieve results bandwidth 0.610000 [GByte/s]
[OGL LOG][Proc: 0]p: solve_multi_gpu: 28281.9 [ms]
nonecudaGKOCG:  Solving for p, Initial residual = 1, Final residual = 9.94943e-05, No Iterations 794
[INFO] SolveP: 49700 [ms]
time step continuity errors : sum local = 2.07965e-08, global = 2.8558e-20, cumulative = 2.8558e-20
[INFO] ContinuityError: 1.452 [ms]
[INFO] CorrectBoundary: 0.111 [ms]
[INFO] PISOStep: 49712.4 [ms]
[INFO] MatrixAssemblyPI: 5.171 [ms]
[INFO] AdjustPhi: 0.3 [ms]
[INFO] ConstrainPressure: 0.002 [ms]
[INFO] MatrixAssemblyPII: 1.694 [ms]
[OGL LOG][Proc: 0]: global_index_init: 0.627 [ms]
[OGL LOG][Proc: 0]p_local_coeffs: call_update: 0.001 [ms]
[OGL LOG][Proc: 0]p_non_local_coeffs: call_update: 0 [ms]
[OGL LOG][Proc: 0]p: update_local_matrix_data: 4.409 [ms]
[OGL LOG][Proc: 0]p: update_non_local_matrix_data: 0.186 [ms]
[OGL LOG][Proc: 0]p: regenerate_distributed_matrix: 10.752 [ms]
[OGL LOG][Proc: 0]p_matrix: call_update: 56.555 [ms]
[OGL LOG][Proc: 0]p_rhs: call_update: 0.394 [ms]
[OGL LOG][Proc: 0]p: init_precond: 0.051 [ms]
[OGL LOG][StoppingCriterion.H:239] Creating stopping criterion with minIter 476 frequency 17
[OGL LOG][Proc: 0]p: generate_solver: 0.037 [ms]
[OGL LOG][Proc: 0]p: solve: 18724.1 [ms]
[OGL LOG][Proc: 0]p: copy_x_back: 0.165 [ms]
[OGL LOG][lduLduBase.H:330] 
Statistics:
	Time per iteration: 23913 [mu s]
	Time per residual norm calculation: 11597.000000 [mu s]
	Time per iteration and DOF: 23.913000 [ns]
	Retrieve results bandwidth 0.695000 [GByte/s]
[OGL LOG][Proc: 0]p: solve_multi_gpu: 18784.3 [ms]
nonecudaGKOCG:  Solving for p, Initial residual = 0.724048, Final residual = 9.72711e-05, No Iterations 783
[INFO] SolveP: 18791 [ms]
time step continuity errors : sum local = 2.70535e-08, global = 2.26324e-20, cumulative = 5.11904e-20
[INFO] ContinuityError: 1.383 [ms]
[INFO] CorrectBoundary: 0.108 [ms]
[INFO] PISOStep: 18803.2 [ms]
[INFO] TimeStep: 68540.1 [ms]
ExecutionTime = 51.1 s  ClockTime = 69 s

Time = 0.001

Courant Number mean: 0.0213254 max: 0.377012
[INFO] MatrixAssemblyU: 5.973 [ms]
DILUPBiCGStab:  Solving for Ux, Initial residual = 0.149759, Final residual = 0.00333969, No Iterations 5
DILUPBiCGStab:  Solving for Uy, Initial residual = 0.369527, Final residual = 0.00685619, No Iterations 5
DILUPBiCGStab:  Solving for Uz, Initial residual = 0.986334, Final residual = 0.0191031, No Iterations 5
[INFO] MomentumPredictor: 21.366 [ms]
[INFO] MatrixAssemblyPI: 4.822 [ms]
[INFO] AdjustPhi: 0.748 [ms]
[INFO] ConstrainPressure: 0.002 [ms]
[INFO] MatrixAssemblyPII: 1.371 [ms]
[OGL LOG][Proc: 0]: global_index_init: 0.082 [ms]
[OGL LOG][Proc: 0]p_local_coeffs: call_update: 0 [ms]
[OGL LOG][Proc: 0]p_non_local_coeffs: call_update: 0 [ms]
[OGL LOG][Proc: 0]p: update_local_matrix_data: 5.468 [ms]
[OGL LOG][Proc: 0]p: update_non_local_matrix_data: 0.222 [ms]
[OGL LOG][Proc: 0]p: regenerate_distributed_matrix: 10.099 [ms]
[OGL LOG][Proc: 0]p_matrix: call_update: 14.075 [ms]
[OGL LOG][Proc: 0]p_rhs: call_update: 5.116 [ms]
[OGL LOG][Proc: 0]p: init_precond: 0.04 [ms]
[OGL LOG][StoppingCriterion.H:239] Creating stopping criterion with minIter 469 frequency 12
[OGL LOG][Proc: 0]p: generate_solver: 0.033 [ms]
[OGL LOG][Proc: 0]p: solve: 18761.6 [ms]
[OGL LOG][Proc: 0]p: copy_x_back: 0.157 [ms]
[OGL LOG][lduLduBase.H:330] 
Statistics:
	Time per iteration: 24022 [mu s]
	Time per residual norm calculation: 11265.000000 [mu s]
	Time per iteration and DOF: 24.022000 [ns]
	Retrieve results bandwidth 0.730000 [GByte/s]
[OGL LOG][Proc: 0]p: solve_multi_gpu: 18783 [ms]
nonecudaGKOCG:  Solving for p, Initial residual = 0.689851, Final residual = 7.76618e-05, No Iterations 781
[INFO] SolveP: 18789.9 [ms]
time step continuity errors : sum local = 2.45967e-08, global = 3.0326e-20, cumulative = 8.15165e-20
[INFO] ContinuityError: 1.496 [ms]
[INFO] CorrectBoundary: 0.844 [ms]
[INFO] PISOStep: 18802.8 [ms]
[INFO] MatrixAssemblyPI: 4.76 [ms]
[INFO] AdjustPhi: 0.227 [ms]
[INFO] ConstrainPressure: 0.001 [ms]
[INFO] MatrixAssemblyPII: 1.441 [ms]
[OGL LOG][Proc: 0]: global_index_init: 0.114 [ms]
[OGL LOG][Proc: 0]p_local_coeffs: call_update: 0 [ms]
[OGL LOG][Proc: 0]p_non_local_coeffs: call_update: 0 [ms]
[OGL LOG][Proc: 0]p: update_local_matrix_data: 5.918 [ms]
[OGL LOG][Proc: 0]p: update_non_local_matrix_data: 0.187 [ms]
[OGL LOG][Proc: 0]p: regenerate_distributed_matrix: 14.402 [ms]
[OGL LOG][Proc: 0]p_matrix: call_update: 18.181 [ms]
[OGL LOG][Proc: 0]p_rhs: call_update: 4.204 [ms]
[OGL LOG][Proc: 0]p: init_precond: 0.045 [ms]
[OGL LOG][StoppingCriterion.H:239] Creating stopping criterion with minIter 468 frequency 12
[OGL LOG][Proc: 0]p: generate_solver: 0.034 [ms]
[OGL LOG][Proc: 0]p: solve: 18769.2 [ms]
[OGL LOG][Proc: 0]p: copy_x_back: 0.161 [ms]
[OGL LOG][lduLduBase.H:330] 
Statistics:
	Time per iteration: 24032 [mu s]
	Time per residual norm calculation: 13527.000000 [mu s]
	Time per iteration and DOF: 24.032000 [ns]
	Retrieve results bandwidth 0.712000 [GByte/s]
[OGL LOG][Proc: 0]p: solve_multi_gpu: 18793.4 [ms]
nonecudaGKOCG:  Solving for p, Initial residual = 0.617398, Final residual = 6.95315e-05, No Iterations 781
[INFO] SolveP: 18800.6 [ms]
time step continuity errors : sum local = 2.24614e-08, global = 2.81274e-20, cumulative = 1.09644e-19
[INFO] ContinuityError: 1.094 [ms]
[INFO] CorrectBoundary: 0.441 [ms]
[INFO] PISOStep: 18812.3 [ms]
[INFO] TimeStep: 37644.5 [ms]
ExecutionTime = 88.55 s  ClockTime = 107 s

Time = 0.0015

Courant Number mean: 0.0322504 max: 0.440831
[INFO] MatrixAssemblyU: 5.92 [ms]
DILUPBiCGStab:  Solving for Ux, Initial residual = 0.0534011, Final residual = 0.000960931, No Iterations 5
DILUPBiCGStab:  Solving for Uy, Initial residual = 0.125939, Final residual = 0.00235728, No Iterations 5
DILUPBiCGStab:  Solving for Uz, Initial residual = 0.565576, Final residual = 0.00984287, No Iterations 5
[INFO] MomentumPredictor: 21.283 [ms]
[INFO] MatrixAssemblyPI: 4.842 [ms]
[INFO] AdjustPhi: 0.31 [ms]
[INFO] ConstrainPressure: 0.002 [ms]
[INFO] MatrixAssemblyPII: 1.315 [ms]
[OGL LOG][Proc: 0]: global_index_init: 0.098 [ms]
[OGL LOG][Proc: 0]p_local_coeffs: call_update: 0 [ms]
[OGL LOG][Proc: 0]p_non_local_coeffs: call_update: 0 [ms]
[OGL LOG][Proc: 0]p: update_local_matrix_data: 5.434 [ms]
[OGL LOG][Proc: 0]p: update_non_local_matrix_data: 0.175 [ms]
[OGL LOG][Proc: 0]p: regenerate_distributed_matrix: 10.079 [ms]
[OGL LOG][Proc: 0]p_matrix: call_update: 14.186 [ms]
[OGL LOG][Proc: 0]p_rhs: call_update: 4.853 [ms]
[OGL LOG][Proc: 0]p: init_precond: 0.035 [ms]
[OGL LOG][StoppingCriterion.H:239] Creating stopping criterion with minIter 468 frequency 17
[OGL LOG][Proc: 0]p: generate_solver: 0.032 [ms]
[OGL LOG][Proc: 0]p: solve: 18726.9 [ms]
[OGL LOG][Proc: 0]p: copy_x_back: 0.1 [ms]
[OGL LOG][lduLduBase.H:330] 
Statistics:
	Time per iteration: 23916 [mu s]
	Time per residual norm calculation: 12904.000000 [mu s]
	Time per iteration and DOF: 23.916000 [ns]
	Retrieve results bandwidth 1.147000 [GByte/s]
[OGL LOG][Proc: 0]p: solve_multi_gpu: 18748.3 [ms]
nonecudaGKOCG:  Solving for p, Initial residual = 0.63369, Final residual = 3.97697e-05, No Iterations 783
[INFO] SolveP: 18755.3 [ms]
time step continuity errors : sum local = 9.18339e-09, global = 3.26641e-20, cumulative = 1.42308e-19
[INFO] ContinuityError: 1.546 [ms]
[INFO] CorrectBoundary: 0.308 [ms]
[INFO] PISOStep: 18767.2 [ms]
[INFO] MatrixAssemblyPI: 4.579 [ms]
[INFO] AdjustPhi: 0.6 [ms]
[INFO] ConstrainPressure: 0.002 [ms]
[INFO] MatrixAssemblyPII: 1.275 [ms]
[OGL LOG][Proc: 0]: global_index_init: 0.098 [ms]
[OGL LOG][Proc: 0]p_local_coeffs: call_update: 0 [ms]
[OGL LOG][Proc: 0]p_non_local_coeffs: call_update: 0 [ms]
[OGL LOG][Proc: 0]p: update_local_matrix_data: 6.055 [ms]
[OGL LOG][Proc: 0]p: update_non_local_matrix_data: 0.174 [ms]
[OGL LOG][Proc: 0]p: regenerate_distributed_matrix: 9.035 [ms]
[OGL LOG][Proc: 0]p_matrix: call_update: 12.539 [ms]
[OGL LOG][Proc: 0]p_rhs: call_update: 6.082 [ms]
[OGL LOG][Proc: 0]p: init_precond: 0.033 [ms]
[OGL LOG][StoppingCriterion.H:239] Creating stopping criterion with minIter 469 frequency 17
[OGL LOG][Proc: 0]p: generate_solver: 0.03 [ms]
[OGL LOG][Proc: 0]p: solve: 18727 [ms]
[OGL LOG][Proc: 0]p: copy_x_back: 0.176 [ms]
[OGL LOG][lduLduBase.H:330] 
Statistics:
	Time per iteration: 23917 [mu s]
	Time per residual norm calculation: 13084.000000 [mu s]
	Time per iteration and DOF: 23.917000 [ns]
	Retrieve results bandwidth 0.651000 [GByte/s]
[OGL LOG][Proc: 0]p: solve_multi_gpu: 18747.4 [ms]
nonecudaGKOCG:  Solving for p, Initial residual = 0.581782, Final residual = 3.7024e-05, No Iterations 783
[INFO] SolveP: 18755 [ms]
time step continuity errors : sum local = 8.31733e-09, global = 3.47702e-20, cumulative = 1.77078e-19
[INFO] ContinuityError: 1.139 [ms]
[INFO] CorrectBoundary: 0.392 [ms]
[INFO] PISOStep: 18766.9 [ms]
[INFO] TimeStep: 37562.7 [ms]
ExecutionTime = 125.94 s  ClockTime = 145 s

Time = 0.002

Courant Number mean: 0.0386985 max: 0.4528
[INFO] MatrixAssemblyU: 6.121 [ms]
DILUPBiCGStab:  Solving for Ux, Initial residual = 0.0321115, Final residual = 0.00053972, No Iterations 5
DILUPBiCGStab:  Solving for Uy, Initial residual = 0.0812143, Final residual = 0.001534, No Iterations 5
DILUPBiCGStab:  Solving for Uz, Initial residual = 0.274366, Final residual = 0.0036508, No Iterations 5
[INFO] MomentumPredictor: 20.553 [ms]
[INFO] MatrixAssemblyPI: 4.836 [ms]
[INFO] AdjustPhi: 0.623 [ms]
[INFO] ConstrainPressure: 0.002 [ms]
[INFO] MatrixAssemblyPII: 1.321 [ms]
[OGL LOG][Proc: 0]: global_index_init: 0.082 [ms]
[OGL LOG][Proc: 0]p_local_coeffs: call_update: 0 [ms]
[OGL LOG][Proc: 0]p_non_local_coeffs: call_update: 0 [ms]
[OGL LOG][Proc: 0]p: update_local_matrix_data: 4.793 [ms]
[OGL LOG][Proc: 0]p: update_non_local_matrix_data: 0.187 [ms]
[OGL LOG][Proc: 0]p: regenerate_distributed_matrix: 12.486 [ms]
[OGL LOG][Proc: 0]p_matrix: call_update: 17.335 [ms]
[OGL LOG][Proc: 0]p_rhs: call_update: 2.03 [ms]
[OGL LOG][Proc: 0]p: init_precond: 0.036 [ms]
[OGL LOG][StoppingCriterion.H:239] Creating stopping criterion with minIter 469 frequency 17
[OGL LOG][Proc: 0]p: generate_solver: 0.032 [ms]
[OGL LOG][Proc: 0]p: solve: 18315.5 [ms]
[OGL LOG][Proc: 0]p: copy_x_back: 0.173 [ms]
[OGL LOG][lduLduBase.H:330] 
Statistics:
	Time per iteration: 23910 [mu s]
	Time per residual norm calculation: 11605.000000 [mu s]
	Time per iteration and DOF: 23.910000 [ns]
	Retrieve results bandwidth 0.663000 [GByte/s]
[OGL LOG][Proc: 0]p: solve_multi_gpu: 18337.8 [ms]
nonecudaGKOCG:  Solving for p, Initial residual = 0.411486, Final residual = 7.59845e-05, No Iterations 766
[INFO] SolveP: 18343.8 [ms]
time step continuity errors : sum local = 1.48565e-08, global = 3.63672e-20, cumulative = 2.13445e-19
[INFO] ContinuityError: 1.221 [ms]
[INFO] CorrectBoundary: 0.101 [ms]
[INFO] PISOStep: 18355.7 [ms]
[INFO] MatrixAssemblyPI: 5.838 [ms]
[INFO] AdjustPhi: 0.405 [ms]
[INFO] ConstrainPressure: 0.002 [ms]
[INFO] MatrixAssemblyPII: 1.341 [ms]
[OGL LOG][Proc: 0]: global_index_init: 0.098 [ms]
[OGL LOG][Proc: 0]p_local_coeffs: call_update: 0 [ms]
[OGL LOG][Proc: 0]p_non_local_coeffs: call_update: 0 [ms]
[OGL LOG][Proc: 0]p: update_local_matrix_data: 5.742 [ms]
[OGL LOG][Proc: 0]p: update_non_local_matrix_data: 0.196 [ms]
[OGL LOG][Proc: 0]p: regenerate_distributed_matrix: 16.755 [ms]
[OGL LOG][Proc: 0]p_matrix: call_update: 19.56 [ms]
[OGL LOG][Proc: 0]p_rhs: call_update: 0.408 [ms]
[OGL LOG][Proc: 0]p: init_precond: 0.045 [ms]
[OGL LOG][StoppingCriterion.H:239] Creating stopping criterion with minIter 459 frequency 12
[OGL LOG][Proc: 0]p: generate_solver: 0.035 [ms]
[OGL LOG][Proc: 0]p: solve: 18477.2 [ms]
[OGL LOG][Proc: 0]p: copy_x_back: 0.114 [ms]
[OGL LOG][lduLduBase.H:330] 
Statistics:
	Time per iteration: 24027 [mu s]
	Time per residual norm calculation: 10183.000000 [mu s]
	Time per iteration and DOF: 24.027000 [ns]
	Retrieve results bandwidth 1.006000 [GByte/s]
[OGL LOG][Proc: 0]p: solve_multi_gpu: 18499.1 [ms]
nonecudaGKOCG:  Solving for p, Initial residual = 0.35026, Final residual = 5.18733e-05, No Iterations 769
[INFO] SolveP: 18507 [ms]
time step continuity errors : sum local = 1.02378e-08, global = 4.02571e-20, cumulative = 2.53702e-19
[INFO] ContinuityError: 1.76 [ms]
[INFO] CorrectBoundary: 0.251 [ms]
[INFO] PISOStep: 18520.1 [ms]
[INFO] TimeStep: 36903.6 [ms]
ExecutionTime = 162.66 s  ClockTime = 182 s

Time = 0.0025

Courant Number mean: 0.0437395 max: 0.459442
[INFO] MatrixAssemblyU: 5.253 [ms]
DILUPBiCGStab:  Solving for Ux, Initial residual = 0.023725, Final residual = 0.000326716, No Iterations 5
DILUPBiCGStab:  Solving for Uy, Initial residual = 0.0520064, Final residual = 0.000526174, No Iterations 5
DILUPBiCGStab:  Solving for Uz, Initial residual = 0.102829, Final residual = 0.0017716, No Iterations 5
[INFO] MomentumPredictor: 22.088 [ms]
[INFO] MatrixAssemblyPI: 4.85 [ms]
[INFO] AdjustPhi: 0.872 [ms]
[INFO] ConstrainPressure: 0.002 [ms]
[INFO] MatrixAssemblyPII: 1.239 [ms]
[OGL LOG][Proc: 0]: global_index_init: 0.093 [ms]
[OGL LOG][Proc: 0]p_local_coeffs: call_update: 0 [ms]
[OGL LOG][Proc: 0]p_non_local_coeffs: call_update: 0 [ms]
[OGL LOG][Proc: 0]p: update_local_matrix_data: 5.454 [ms]
[OGL LOG][Proc: 0]p: update_non_local_matrix_data: 0.181 [ms]
[OGL LOG][Proc: 0]p: regenerate_distributed_matrix: 10.315 [ms]
[OGL LOG][Proc: 0]p_matrix: call_update: 14.329 [ms]
[OGL LOG][Proc: 0]p_rhs: call_update: 5.042 [ms]
[OGL LOG][Proc: 0]p: init_precond: 0.035 [ms]
[OGL LOG][StoppingCriterion.H:239] Creating stopping criterion with minIter 461 frequency 12
[OGL LOG][Proc: 0]p: generate_solver: 0.028 [ms]
[OGL LOG][Proc: 0]p: solve: 17597.2 [ms]
[OGL LOG][Proc: 0]p: copy_x_back: 0.173 [ms]
[OGL LOG][lduLduBase.H:330] 
Statistics:
	Time per iteration: 24007 [mu s]
	Time per residual norm calculation: 12635.000000 [mu s]
	Time per iteration and DOF: 24.007000 [ns]
	Retrieve results bandwidth 0.663000 [GByte/s]
[OGL LOG][Proc: 0]p: solve_multi_gpu: 17618.8 [ms]
nonecudaGKOCG:  Solving for p, Initial residual = 0.313535, Final residual = 7.76922e-05, No Iterations 733
[INFO] SolveP: 17625.6 [ms]
time step continuity errors : sum local = 1.25465e-08, global = 4.44162e-20, cumulative = 2.98119e-19
[INFO] ContinuityError: 1.342 [ms]
[INFO] CorrectBoundary: 0.826 [ms]
[INFO] PISOStep: 17638.1 [ms]
[INFO] MatrixAssemblyPI: 4.793 [ms]
[INFO] AdjustPhi: 0.748 [ms]
[INFO] ConstrainPressure: 0.002 [ms]
[INFO] MatrixAssemblyPII: 1.39 [ms]
[OGL LOG][Proc: 0]: global_index_init: 0.101 [ms]
[OGL LOG][Proc: 0]p_local_coeffs: call_update: 0 [ms]
[OGL LOG][Proc: 0]p_non_local_coeffs: call_update: 0 [ms]
[OGL LOG][Proc: 0]p: update_local_matrix_data: 5.806 [ms]
[OGL LOG][Proc: 0]p: update_non_local_matrix_data: 0.186 [ms]
[OGL LOG][Proc: 0]p: regenerate_distributed_matrix: 8.816 [ms]
[OGL LOG][Proc: 0]p_matrix: call_update: 13.141 [ms]
[OGL LOG][Proc: 0]p_rhs: call_update: 5.798 [ms]
[OGL LOG][Proc: 0]p: init_precond: 0.038 [ms]
[OGL LOG][StoppingCriterion.H:239] Creating stopping criterion with minIter 439 frequency 17
[OGL LOG][Proc: 0]p: generate_solver: 0.029 [ms]
[OGL LOG][Proc: 0]p: solve: 17514.7 [ms]
[OGL LOG][Proc: 0]p: copy_x_back: 0.117 [ms]
[OGL LOG][lduLduBase.H:330] 
Statistics:
	Time per iteration: 23927 [mu s]
	Time per residual norm calculation: 14118.000000 [mu s]
	Time per iteration and DOF: 23.927000 [ns]
	Retrieve results bandwidth 0.980000 [GByte/s]
[OGL LOG][Proc: 0]p: solve_multi_gpu: 17535.5 [ms]
nonecudaGKOCG:  Solving for p, Initial residual = 0.268922, Final residual = 7.32594e-05, No Iterations 732
[INFO] SolveP: 17542.4 [ms]
time step continuity errors : sum local = 1.17407e-08, global = 4.3655e-20, cumulative = 3.41774e-19
[INFO] ContinuityError: 1.77 [ms]
[INFO] CorrectBoundary: 0.591 [ms]
[INFO] PISOStep: 17554.1 [ms]
[INFO] TimeStep: 35220.5 [ms]
ExecutionTime = 197.71 s  ClockTime = 217 s

Time = 0.003

Courant Number mean: 0.0477875 max: 0.463704
[INFO] MatrixAssemblyU: 5.18 [ms]
DILUPBiCGStab:  Solving for Ux, Initial residual = 0.0180614, Final residual = 0.000204275, No Iterations 5
DILUPBiCGStab:  Solving for Uy, Initial residual = 0.0404267, Final residual = 0.000355175, No Iterations 5
DILUPBiCGStab:  Solving for Uz, Initial residual = 0.0877018, Final residual = 0.00121815, No Iterations 5
[INFO] MomentumPredictor: 22.079 [ms]
[INFO] MatrixAssemblyPI: 4.904 [ms]
[INFO] AdjustPhi: 0.487 [ms]
[INFO] ConstrainPressure: 0.002 [ms]
[INFO] MatrixAssemblyPII: 1.208 [ms]
[OGL LOG][Proc: 0]: global_index_init: 0.08 [ms]
[OGL LOG][Proc: 0]p_local_coeffs: call_update: 0 [ms]
[OGL LOG][Proc: 0]p_non_local_coeffs: call_update: 0 [ms]
[OGL LOG][Proc: 0]p: update_local_matrix_data: 4.358 [ms]
[OGL LOG][Proc: 0]p: update_non_local_matrix_data: 0.176 [ms]
[OGL LOG][Proc: 0]p: regenerate_distributed_matrix: 10.221 [ms]
[OGL LOG][Proc: 0]p_matrix: call_update: 14.199 [ms]
[OGL LOG][Proc: 0]p_rhs: call_update: 5.595 [ms]
[OGL LOG][Proc: 0]p: init_precond: 0.035 [ms]
[OGL LOG][StoppingCriterion.H:239] Creating stopping criterion with minIter 439 frequency 17
[OGL LOG][Proc: 0]p: generate_solver: 0.028 [ms]
[OGL LOG][Proc: 0]p: solve: 17515.8 [ms]
[OGL LOG][Proc: 0]p: copy_x_back: 0.168 [ms]
[OGL LOG][lduLduBase.H:330] 
Statistics:
	Time per iteration: 23928 [mu s]
	Time per residual norm calculation: 10199.000000 [mu s]
	Time per iteration and DOF: 23.928000 [ns]
	Retrieve results bandwidth 0.682000 [GByte/s]
[OGL LOG][Proc: 0]p: solve_multi_gpu: 17539.1 [ms]
nonecudaGKOCG:  Solving for p, Initial residual = 0.19227, Final residual = 7.67065e-05, No Iterations 732
[INFO] SolveP: 17546.1 [ms]
time step continuity errors : sum local = 1.19022e-08, global = 4.47845e-20, cumulative = 3.86558e-19
[INFO] ContinuityError: 1.477 [ms]
[INFO] CorrectBoundary: 0.08 [ms]
[INFO] PISOStep: 17558 [ms]
[INFO] MatrixAssemblyPI: 4.287 [ms]
[INFO] AdjustPhi: 2.066 [ms]
[INFO] ConstrainPressure: 0.003 [ms]
[INFO] MatrixAssemblyPII: 1.461 [ms]
[OGL LOG][Proc: 0]: global_index_init: 0.085 [ms]
[OGL LOG][Proc: 0]p_local_coeffs: call_update: 0 [ms]
[OGL LOG][Proc: 0]p_non_local_coeffs: call_update: 0 [ms]
[OGL LOG][Proc: 0]p: update_local_matrix_data: 5.279 [ms]
[OGL LOG][Proc: 0]p: update_non_local_matrix_data: 0.199 [ms]
[OGL LOG][Proc: 0]p: regenerate_distributed_matrix: 8.808 [ms]
[OGL LOG][Proc: 0]p_matrix: call_update: 13.161 [ms]
[OGL LOG][Proc: 0]p_rhs: call_update: 5.853 [ms]
[OGL LOG][Proc: 0]p: init_precond: 0.036 [ms]
[OGL LOG][StoppingCriterion.H:239] Creating stopping criterion with minIter 439 frequency 12
[OGL LOG][Proc: 0]p: generate_solver: 0.029 [ms]
[OGL LOG][Proc: 0]p: solve: 17326.6 [ms]
[OGL LOG][Proc: 0]p: copy_x_back: 0.175 [ms]
[OGL LOG][lduLduBase.H:330] 
Statistics:
	Time per iteration: 24031 [mu s]
	Time per residual norm calculation: 12924.000000 [mu s]
	Time per iteration and DOF: 24.031000 [ns]
	Retrieve results bandwidth 0.655000 [GByte/s]
[OGL LOG][Proc: 0]p: solve_multi_gpu: 17348.1 [ms]
nonecudaGKOCG:  Solving for p, Initial residual = 0.159744, Final residual = 9.40454e-05, No Iterations 721
[INFO] SolveP: 17354.6 [ms]
time step continuity errors : sum local = 1.4605e-08, global = 4.16633e-20, cumulative = 4.28222e-19
[INFO] ContinuityError: 1.535 [ms]
[INFO] CorrectBoundary: 0.305 [ms]
[INFO] PISOStep: 17367.7 [ms]
[INFO] TimeStep: 34953.9 [ms]
ExecutionTime = 232.5 s  ClockTime = 252 s

Time = 0.0035

Courant Number mean: 0.051207 max: 0.466614
[INFO] MatrixAssemblyU: 6.229 [ms]
DILUPBiCGStab:  Solving for Ux, Initial residual = 0.0147797, Final residual = 0.00013063, No Iterations 5
DILUPBiCGStab:  Solving for Uy, Initial residual = 0.0320185, Final residual = 0.000249189, No Iterations 5
DILUPBiCGStab:  Solving for Uz, Initial residual = 0.0586506, Final residual = 0.000670955, No Iterations 5
[INFO] MomentumPredictor: 20.759 [ms]
[INFO] MatrixAssemblyPI: 4.962 [ms]
[INFO] AdjustPhi: 0.164 [ms]
[INFO] ConstrainPressure: 0.002 [ms]
[INFO] MatrixAssemblyPII: 1.335 [ms]
[OGL LOG][Proc: 0]: global_index_init: 0.085 [ms]
[OGL LOG][Proc: 0]p_local_coeffs: call_update: 0 [ms]
[OGL LOG][Proc: 0]p_non_local_coeffs: call_update: 0 [ms]
[OGL LOG][Proc: 0]p: update_local_matrix_data: 4.712 [ms]
[OGL LOG][Proc: 0]p: update_non_local_matrix_data: 0.217 [ms]
[OGL LOG][Proc: 0]p: regenerate_distributed_matrix: 9.911 [ms]
[OGL LOG][Proc: 0]p_matrix: call_update: 13.807 [ms]
[OGL LOG][Proc: 0]p_rhs: call_update: 5.708 [ms]
[OGL LOG][Proc: 0]p: init_precond: 0.035 [ms]
[OGL LOG][StoppingCriterion.H:239] Creating stopping criterion with minIter 432 frequency 16
[OGL LOG][Proc: 0]p: generate_solver: 0.033 [ms]
[OGL LOG][Proc: 0]p: solve: 11056.8 [ms]
[OGL LOG][Proc: 0]p: copy_x_back: 0.104 [ms]
[OGL LOG][lduLduBase.H:330] 
Statistics:
	Time per iteration: 23778 [mu s]
	Time per residual norm calculation: 10356.000000 [mu s]
	Time per iteration and DOF: 23.778000 [ns]
	Retrieve results bandwidth 1.103000 [GByte/s]
[OGL LOG][Proc: 0]p: solve_multi_gpu: 11079.1 [ms]
nonecudaGKOCG:  Solving for p, Initial residual = 0.134317, Final residual = 9.97275e-05, No Iterations 465
[INFO] SolveP: 11086.9 [ms]
time step continuity errors : sum local = 1.59208e-08, global = 4.85352e-20, cumulative = 4.76757e-19
[INFO] ContinuityError: 1.539 [ms]
[INFO] CorrectBoundary: 0.299 [ms]
[INFO] PISOStep: 11097.9 [ms]
[INFO] MatrixAssemblyPI: 4.619 [ms]
[INFO] AdjustPhi: 0.836 [ms]
[INFO] ConstrainPressure: 0.002 [ms]
[INFO] MatrixAssemblyPII: 1.225 [ms]
[OGL LOG][Proc: 0]: global_index_init: 0.097 [ms]
[OGL LOG][Proc: 0]p_local_coeffs: call_update: 0 [ms]
[OGL LOG][Proc: 0]p_non_local_coeffs: call_update: 0 [ms]
[OGL LOG][Proc: 0]p: update_local_matrix_data: 5.11 [ms]
[OGL LOG][Proc: 0]p: update_non_local_matrix_data: 0.161 [ms]
[OGL LOG][Proc: 0]p: regenerate_distributed_matrix: 10.657 [ms]
[OGL LOG][Proc: 0]p_matrix: call_update: 15.586 [ms]
[OGL LOG][Proc: 0]p_rhs: call_update: 4.134 [ms]
[OGL LOG][Proc: 0]p: init_precond: 0.038 [ms]
[OGL LOG][StoppingCriterion.H:239] Creating stopping criterion with minIter 279 frequency 9
[OGL LOG][Proc: 0]p: generate_solver: 0.029 [ms]
[OGL LOG][Proc: 0]p: solve: 8018.78 [ms]
[OGL LOG][Proc: 0]p: copy_x_back: 0.098 [ms]
[OGL LOG][lduLduBase.H:330] 
Statistics:
	Time per iteration: 24008 [mu s]
	Time per residual norm calculation: 13056.000000 [mu s]
	Time per iteration and DOF: 24.008000 [ns]
	Retrieve results bandwidth 1.170000 [GByte/s]
[OGL LOG][Proc: 0]p: solve_multi_gpu: 8040.98 [ms]
nonecudaGKOCG:  Solving for p, Initial residual = 0.112332, Final residual = 9.31339e-05, No Iterations 334
[INFO] SolveP: 8047.5 [ms]
time step continuity errors : sum local = 1.40903e-08, global = 4.63266e-20, cumulative = 5.23083e-19
[INFO] ContinuityError: 1.4 [ms]
[INFO] CorrectBoundary: 0.291 [ms]
[INFO] PISOStep: 8058.69 [ms]
[INFO] TimeStep: 19185 [ms]
ExecutionTime = 251.59 s  ClockTime = 271 s

Time = 0.004

Courant Number mean: 0.0541575 max: 0.468833
[INFO] MatrixAssemblyU: 5.372 [ms]
DILUPBiCGStab:  Solving for Ux, Initial residual = 0.0123902, Final residual = 9.42806e-05, No Iterations 5
DILUPBiCGStab:  Solving for Uy, Initial residual = 0.0267357, Final residual = 0.00015861, No Iterations 5
DILUPBiCGStab:  Solving for Uz, Initial residual = 0.0525498, Final residual = 0.000519724, No Iterations 5
[INFO] MomentumPredictor: 20.909 [ms]
[INFO] MatrixAssemblyPI: 5.02 [ms]
[INFO] AdjustPhi: 0.256 [ms]
[INFO] ConstrainPressure: 0.002 [ms]
[INFO] MatrixAssemblyPII: 1.259 [ms]
[OGL LOG][Proc: 0]: global_index_init: 0.081 [ms]
[OGL LOG][Proc: 0]p_local_coeffs: call_update: 0 [ms]
[OGL LOG][Proc: 0]p_non_local_coeffs: call_update: 0 [ms]
[OGL LOG][Proc: 0]p: update_local_matrix_data: 6.437 [ms]
[OGL LOG][Proc: 0]p: update_non_local_matrix_data: 0.191 [ms]
[OGL LOG][Proc: 0]p: regenerate_distributed_matrix: 9.56 [ms]
[OGL LOG][Proc: 0]p_matrix: call_update: 13.702 [ms]
[OGL LOG][Proc: 0]p_rhs: call_update: 6.235 [ms]
[OGL LOG][Proc: 0]p: init_precond: 0.035 [ms]
[OGL LOG][StoppingCriterion.H:239] Creating stopping criterion with minIter 200 frequency 11
[OGL LOG][Proc: 0]p: generate_solver: 0.029 [ms]
[OGL LOG][Proc: 0]p: solve: 8005.57 [ms]
[OGL LOG][Proc: 0]p: copy_x_back: 0.096 [ms]
[OGL LOG][lduLduBase.H:330] 
Statistics:
	Time per iteration: 24186 [mu s]
	Time per residual norm calculation: 10341.000000 [mu s]
	Time per iteration and DOF: 24.186000 [ns]
	Retrieve results bandwidth 1.195000 [GByte/s]
[OGL LOG][Proc: 0]p: solve_multi_gpu: 8026.59 [ms]
nonecudaGKOCG:  Solving for p, Initial residual = 0.0855636, Final residual = 8.31181e-05, No Iterations 331
[INFO] SolveP: 8035.79 [ms]
time step continuity errors : sum local = 1.20103e-08, global = 4.37609e-20, cumulative = 5.66844e-19
[INFO] ContinuityError: 1.785 [ms]
[INFO] CorrectBoundary: 0.086 [ms]
[INFO] PISOStep: 8047.3 [ms]
[INFO] MatrixAssemblyPI: 4.573 [ms]
[INFO] AdjustPhi: 1.028 [ms]
[INFO] ConstrainPressure: 0.002 [ms]
[INFO] MatrixAssemblyPII: 1.151 [ms]
[OGL LOG][Proc: 0]: global_index_init: 0.103 [ms]
[OGL LOG][Proc: 0]p_local_coeffs: call_update: 0 [ms]
[OGL LOG][Proc: 0]p_non_local_coeffs: call_update: 0 [ms]
[OGL LOG][Proc: 0]p: update_local_matrix_data: 4.683 [ms]
[OGL LOG][Proc: 0]p: update_non_local_matrix_data: 0.173 [ms]
[OGL LOG][Proc: 0]p: regenerate_distributed_matrix: 9.509 [ms]
[OGL LOG][Proc: 0]p_matrix: call_update: 13.306 [ms]
[OGL LOG][Proc: 0]p_rhs: call_update: 5.463 [ms]
[OGL LOG][Proc: 0]p: init_precond: 0.034 [ms]
[OGL LOG][StoppingCriterion.H:239] Creating stopping criterion with minIter 198 frequency 8
[OGL LOG][Proc: 0]p: generate_solver: 0.028 [ms]
[OGL LOG][Proc: 0]p: solve: 7819.21 [ms]
[OGL LOG][Proc: 0]p: copy_x_back: 0.165 [ms]
[OGL LOG][lduLduBase.H:330] 
Statistics:
	Time per iteration: 24358 [mu s]
	Time per residual norm calculation: 11587.000000 [mu s]
	Time per iteration and DOF: 24.358000 [ns]
	Retrieve results bandwidth 0.695000 [GByte/s]
[OGL LOG][Proc: 0]p: solve_multi_gpu: 7840.92 [ms]
nonecudaGKOCG:  Solving for p, Initial residual = 0.0706761, Final residual = 9.67362e-05, No Iterations 321
[INFO] SolveP: 7846.79 [ms]
time step continuity errors : sum local = 1.40284e-08, global = 5.03184e-20, cumulative = 6.17163e-19
[INFO] ContinuityError: 0.991 [ms]
[INFO] CorrectBoundary: 0.084 [ms]
[INFO] PISOStep: 7858.65 [ms]
[INFO] TimeStep: 15934 [ms]
ExecutionTime = 267.46 s  ClockTime = 287 s

Time = 0.0045

Courant Number mean: 0.0567448 max: 0.470552
[INFO] MatrixAssemblyU: 6.2 [ms]
DILUPBiCGStab:  Solving for Ux, Initial residual = 0.0106279, Final residual = 6.54491e-05, No Iterations 5
DILUPBiCGStab:  Solving for Uy, Initial residual = 0.0228494, Final residual = 0.000138599, No Iterations 5
DILUPBiCGStab:  Solving for Uz, Initial residual = 0.0439374, Final residual = 0.000421886, No Iterations 5
[INFO] MomentumPredictor: 20.496 [ms]
[INFO] MatrixAssemblyPI: 4.916 [ms]
[INFO] AdjustPhi: 0.229 [ms]
[INFO] ConstrainPressure: 0.002 [ms]
[INFO] MatrixAssemblyPII: 1.312 [ms]
[OGL LOG][Proc: 0]: global_index_init: 0.07 [ms]
[OGL LOG][Proc: 0]p_local_coeffs: call_update: 0 [ms]
[OGL LOG][Proc: 0]p_non_local_coeffs: call_update: 0 [ms]
[OGL LOG][Proc: 0]p: update_local_matrix_data: 5.138 [ms]
[OGL LOG][Proc: 0]p: update_non_local_matrix_data: 0.201 [ms]
[OGL LOG][Proc: 0]p: regenerate_distributed_matrix: 10.756 [ms]
[OGL LOG][Proc: 0]p_matrix: call_update: 15.389 [ms]
[OGL LOG][Proc: 0]p_rhs: call_update: 3.444 [ms]
[OGL LOG][Proc: 0]p: init_precond: 0.04 [ms]
[OGL LOG][StoppingCriterion.H:239] Creating stopping criterion with minIter 192 frequency 8
[OGL LOG][Proc: 0]p: generate_solver: 0.031 [ms]
[OGL LOG][Proc: 0]p: solve: 8030.54 [ms]
[OGL LOG][Proc: 0]p: copy_x_back: 0.102 [ms]
[OGL LOG][lduLduBase.H:330] 
Statistics:
	Time per iteration: 24408 [mu s]
	Time per residual norm calculation: 10818.000000 [mu s]
	Time per iteration and DOF: 24.408000 [ns]
	Retrieve results bandwidth 1.124000 [GByte/s]
[OGL LOG][Proc: 0]p: solve_multi_gpu: 8051.86 [ms]
nonecudaGKOCG:  Solving for p, Initial residual = 0.0621713, Final residual = 9.48488e-05, No Iterations 329
[INFO] SolveP: 8058.41 [ms]
time step continuity errors : sum local = 1.51238e-08, global = 3.1764e-20, cumulative = 6.48927e-19
[INFO] ContinuityError: 1.535 [ms]
[INFO] CorrectBoundary: 0.162 [ms]
[INFO] PISOStep: 8069.23 [ms]
[INFO] MatrixAssemblyPI: 4.674 [ms]
[INFO] AdjustPhi: 0.875 [ms]
[INFO] ConstrainPressure: 0.002 [ms]
[INFO] MatrixAssemblyPII: 1.23 [ms]
[OGL LOG][Proc: 0]: global_index_init: 0.092 [ms]
[OGL LOG][Proc: 0]p_local_coeffs: call_update: 0 [ms]
[OGL LOG][Proc: 0]p_non_local_coeffs: call_update: 0 [ms]
[OGL LOG][Proc: 0]p: update_local_matrix_data: 4.911 [ms]
[OGL LOG][Proc: 0]p: update_non_local_matrix_data: 0.162 [ms]
[OGL LOG][Proc: 0]p: regenerate_distributed_matrix: 8.305 [ms]
[OGL LOG][Proc: 0]p_matrix: call_update: 12.353 [ms]
[OGL LOG][Proc: 0]p_rhs: call_update: 6.218 [ms]
[OGL LOG][Proc: 0]p: init_precond: 0.032 [ms]
[OGL LOG][StoppingCriterion.H:239] Creating stopping criterion with minIter 197 frequency 8
[OGL LOG][Proc: 0]p: generate_solver: 0.027 [ms]
[OGL LOG][Proc: 0]p: solve: 7816.09 [ms]
[OGL LOG][Proc: 0]p: copy_x_back: 0.096 [ms]
[OGL LOG][lduLduBase.H:330] 
Statistics:
	Time per iteration: 24349 [mu s]
	Time per residual norm calculation: 11429.000000 [mu s]
	Time per iteration and DOF: 24.349000 [ns]
	Retrieve results bandwidth 1.195000 [GByte/s]
[OGL LOG][Proc: 0]p: solve_multi_gpu: 7837.26 [ms]
nonecudaGKOCG:  Solving for p, Initial residual = 0.0519448, Final residual = 8.73679e-05, No Iterations 321
[INFO] SolveP: 7843.21 [ms]
time step continuity errors : sum local = 1.30169e-08, global = 4.77367e-20, cumulative = 6.96663e-19
[INFO] ContinuityError: 1.336 [ms]
[INFO] CorrectBoundary: 0.096 [ms]
[INFO] PISOStep: 7854.22 [ms]
[INFO] TimeStep: 15951.3 [ms]
ExecutionTime = 283.34 s  ClockTime = 303 s

Time = 0.005

Courant Number mean: 0.059051 max: 0.471955
[INFO] MatrixAssemblyU: 5.374 [ms]
DILUPBiCGStab:  Solving for Ux, Initial residual = 0.009293, Final residual = 5.45855e-05, No Iterations 5
DILUPBiCGStab:  Solving for Uy, Initial residual = 0.0198917, Final residual = 0.00010229, No Iterations 5
DILUPBiCGStab:  Solving for Uz, Initial residual = 0.039005, Final residual = 0.000329078, No Iterations 5
[INFO] MomentumPredictor: 21.304 [ms]
[INFO] MatrixAssemblyPI: 4.965 [ms]
[INFO] AdjustPhi: 0.432 [ms]
[INFO] ConstrainPressure: 0.002 [ms]
[INFO] MatrixAssemblyPII: 1.138 [ms]
[OGL LOG][Proc: 0]: global_index_init: 0.085 [ms]
[OGL LOG][Proc: 0]p_local_coeffs: call_update: 0 [ms]
[OGL LOG][Proc: 0]p_non_local_coeffs: call_update: 0 [ms]
[OGL LOG][Proc: 0]p: update_local_matrix_data: 6.61 [ms]
[OGL LOG][Proc: 0]p: update_non_local_matrix_data: 0.18 [ms]
[OGL LOG][Proc: 0]p: regenerate_distributed_matrix: 10.129 [ms]
[OGL LOG][Proc: 0]p_matrix: call_update: 14.994 [ms]
[OGL LOG][Proc: 0]p_rhs: call_update: 4.547 [ms]
[OGL LOG][Proc: 0]p: init_precond: 0.043 [ms]
[OGL LOG][StoppingCriterion.H:239] Creating stopping criterion with minIter 192 frequency 8
[OGL LOG][Proc: 0]p: generate_solver: 0.03 [ms]
[OGL LOG][Proc: 0]p: solve: 7827.96 [ms]
[OGL LOG][Proc: 0]p: copy_x_back: 0.161 [ms]
[OGL LOG][lduLduBase.H:330] 
Statistics:
	Time per iteration: 24386 [mu s]
	Time per residual norm calculation: 12183.000000 [mu s]
	Time per iteration and DOF: 24.386000 [ns]
	Retrieve results bandwidth 0.712000 [GByte/s]
[OGL LOG][Proc: 0]p: solve_multi_gpu: 7848.51 [ms]
nonecudaGKOCG:  Solving for p, Initial residual = 0.0408591, Final residual = 9.60732e-05, No Iterations 321
[INFO] SolveP: 7856.74 [ms]
time step continuity errors : sum local = 1.41756e-08, global = 3.78345e-20, cumulative = 7.34498e-19
[INFO] ContinuityError: 1.69 [ms]
[INFO] CorrectBoundary: 0.094 [ms]
[INFO] PISOStep: 7868.93 [ms]
[INFO] MatrixAssemblyPI: 4.868 [ms]
[INFO] AdjustPhi: 0.25 [ms]
[INFO] ConstrainPressure: 0.002 [ms]
[INFO] MatrixAssemblyPII: 1.607 [ms]
[OGL LOG][Proc: 0]: global_index_init: 0.067 [ms]
[OGL LOG][Proc: 0]p_local_coeffs: call_update: 0 [ms]
[OGL LOG][Proc: 0]p_non_local_coeffs: call_update: 0 [ms]
[OGL LOG][Proc: 0]p: update_local_matrix_data: 4.548 [ms]
[OGL LOG][Proc: 0]p: update_non_local_matrix_data: 0.182 [ms]
[OGL LOG][Proc: 0]p: regenerate_distributed_matrix: 10.79 [ms]
[OGL LOG][Proc: 0]p_matrix: call_update: 11.428 [ms]
[OGL LOG][Proc: 0]p_rhs: call_update: 8.403 [ms]
[OGL LOG][Proc: 0]p: init_precond: 0.036 [ms]
[OGL LOG][StoppingCriterion.H:239] Creating stopping criterion with minIter 192 frequency 8
[OGL LOG][Proc: 0]p: generate_solver: 0.038 [ms]
[OGL LOG][Proc: 0]p: solve: 7828.8 [ms]
[OGL LOG][Proc: 0]p: copy_x_back: 0.101 [ms]
[OGL LOG][lduLduBase.H:330] 
Statistics:
	Time per iteration: 24388 [mu s]
	Time per residual norm calculation: 9887.000000 [mu s]
	Time per iteration and DOF: 24.388000 [ns]
	Retrieve results bandwidth 1.135000 [GByte/s]
[OGL LOG][Proc: 0]p: solve_multi_gpu: 7851.66 [ms]
nonecudaGKOCG:  Solving for p, Initial residual = 0.0346016, Final residual = 8.33675e-05, No Iterations 321
[INFO] SolveP: 7858.32 [ms]
time step continuity errors : sum local = 1.18171e-08, global = 3.90021e-20, cumulative = 7.735e-19
[INFO] ContinuityError: 2.199 [ms]
[INFO] CorrectBoundary: 0.303 [ms]
[INFO] PISOStep: 7870.32 [ms]
[INFO] TimeStep: 15767.3 [ms]
ExecutionTime = 299.02 s  ClockTime = 319 s

Time = 0.0055

Courant Number mean: 0.0611197 max: 0.473113
[INFO] MatrixAssemblyU: 5.466 [ms]
DILUPBiCGStab:  Solving for Ux, Initial residual = 0.00821281, Final residual = 4.26796e-05, No Iterations 5
DILUPBiCGStab:  Solving for Uy, Initial residual = 0.0175757, Final residual = 9.29555e-05, No Iterations 5
DILUPBiCGStab:  Solving for Uz, Initial residual = 0.0350126, Final residual = 0.00028933, No Iterations 5
[INFO] MomentumPredictor: 23.38 [ms]
[INFO] MatrixAssemblyPI: 4.834 [ms]
[INFO] AdjustPhi: 0.581 [ms]
[INFO] ConstrainPressure: 0.002 [ms]
[INFO] MatrixAssemblyPII: 1.303 [ms]
[OGL LOG][Proc: 0]: global_index_init: 0.095 [ms]
[OGL LOG][Proc: 0]p_local_coeffs: call_update: 0 [ms]
[OGL LOG][Proc: 0]p_non_local_coeffs: call_update: 0 [ms]
[OGL LOG][Proc: 0]p: update_local_matrix_data: 5.235 [ms]
[OGL LOG][Proc: 0]p: update_non_local_matrix_data: 0.174 [ms]
[OGL LOG][Proc: 0]p: regenerate_distributed_matrix: 10.613 [ms]
[OGL LOG][Proc: 0]p_matrix: call_update: 15.391 [ms]
[OGL LOG][Proc: 0]p_rhs: call_update: 3.711 [ms]
[OGL LOG][Proc: 0]p: init_precond: 0.031 [ms]
[OGL LOG][StoppingCriterion.H:239] Creating stopping criterion with minIter 192 frequency 8
[OGL LOG][Proc: 0]p: generate_solver: 0.027 [ms]
[OGL LOG][Proc: 0]p: solve: 8430.05 [ms]
[OGL LOG][Proc: 0]p: copy_x_back: 0.104 [ms]
[OGL LOG][lduLduBase.H:330] 
Statistics:
	Time per iteration: 24434 [mu s]
	Time per residual norm calculation: 13069.000000 [mu s]
	Time per iteration and DOF: 24.434000 [ns]
	Retrieve results bandwidth 1.103000 [GByte/s]
[OGL LOG][Proc: 0]p: solve_multi_gpu: 8451.57 [ms]
nonecudaGKOCG:  Solving for p, Initial residual = 0.0320709, Final residual = 9.78932e-05, No Iterations 345
[INFO] SolveP: 8457.83 [ms]
time step continuity errors : sum local = 1.60483e-08, global = 4.6357e-20, cumulative = 8.19857e-19
[INFO] ContinuityError: 1.506 [ms]
[INFO] CorrectBoundary: 0.087 [ms]
[INFO] PISOStep: 8469.2 [ms]
[INFO] MatrixAssemblyPI: 4.72 [ms]
[INFO] AdjustPhi: 0.717 [ms]
[INFO] ConstrainPressure: 0.002 [ms]
[INFO] MatrixAssemblyPII: 1.248 [ms]
[OGL LOG][Proc: 0]: global_index_init: 0.098 [ms]
[OGL LOG][Proc: 0]p_local_coeffs: call_update: 0 [ms]
[OGL LOG][Proc: 0]p_non_local_coeffs: call_update: 0 [ms]
[OGL LOG][Proc: 0]p: update_local_matrix_data: 6.132 [ms]
[OGL LOG][Proc: 0]p: update_non_local_matrix_data: 0.171 [ms]
[OGL LOG][Proc: 0]p: regenerate_distributed_matrix: 9.711 [ms]
[OGL LOG][Proc: 0]p_matrix: call_update: 13.866 [ms]
[OGL LOG][Proc: 0]p_rhs: call_update: 6.06 [ms]
[OGL LOG][Proc: 0]p: init_precond: 0.035 [ms]
[OGL LOG][StoppingCriterion.H:239] Creating stopping criterion with minIter 207 frequency 11
[OGL LOG][Proc: 0]p: generate_solver: 0.027 [ms]
[OGL LOG][Proc: 0]p: solve: 7732.36 [ms]
[OGL LOG][Proc: 0]p: copy_x_back: 0.098 [ms]
[OGL LOG][lduLduBase.H:330] 
Statistics:
	Time per iteration: 24163 [mu s]
	Time per residual norm calculation: 10953.000000 [mu s]
	Time per iteration and DOF: 24.163000 [ns]
	Retrieve results bandwidth 1.170000 [GByte/s]
[OGL LOG][Proc: 0]p: solve_multi_gpu: 7753.63 [ms]
nonecudaGKOCG:  Solving for p, Initial residual = 0.0273569, Final residual = 8.70382e-05, No Iterations 320
[INFO] SolveP: 7761.23 [ms]
time step continuity errors : sum local = 1.30698e-08, global = 4.97145e-20, cumulative = 8.69571e-19
[INFO] ContinuityError: 2.849 [ms]
[INFO] CorrectBoundary: 0.078 [ms]
[INFO] PISOStep: 7773.23 [ms]
[INFO] TimeStep: 16272.3 [ms]
ExecutionTime = 315.22 s  ClockTime = 335 s

Time = 0.006

Courant Number mean: 0.0630004 max: 0.474097
[INFO] MatrixAssemblyU: 5.277 [ms]
DILUPBiCGStab:  Solving for Ux, Initial residual = 0.00734377, Final residual = 3.81244e-05, No Iterations 5
DILUPBiCGStab:  Solving for Uy, Initial residual = 0.0157056, Final residual = 7.68467e-05, No Iterations 5
DILUPBiCGStab:  Solving for Uz, Initial residual = 0.0315795, Final residual = 0.000262716, No Iterations 5
[INFO] MomentumPredictor: 22.738 [ms]
[INFO] MatrixAssemblyPI: 4.929 [ms]
[INFO] AdjustPhi: 0.372 [ms]
[INFO] ConstrainPressure: 0.003 [ms]
[INFO] MatrixAssemblyPII: 1.754 [ms]
[OGL LOG][Proc: 0]: global_index_init: 0.081 [ms]
[OGL LOG][Proc: 0]p_local_coeffs: call_update: 0 [ms]
[OGL LOG][Proc: 0]p_non_local_coeffs: call_update: 0 [ms]
[OGL LOG][Proc: 0]p: update_local_matrix_data: 6.616 [ms]
[OGL LOG][Proc: 0]p: update_non_local_matrix_data: 0.189 [ms]
[OGL LOG][Proc: 0]p: regenerate_distributed_matrix: 10.261 [ms]
[OGL LOG][Proc: 0]p_matrix: call_update: 18.772 [ms]
[OGL LOG][Proc: 0]p_rhs: call_update: 0.482 [ms]
[OGL LOG][Proc: 0]p: init_precond: 0.033 [ms]
[OGL LOG][StoppingCriterion.H:239] Creating stopping criterion with minIter 192 frequency 8
[OGL LOG][Proc: 0]p: generate_solver: 0.026 [ms]
[OGL LOG][Proc: 0]p: solve: 8029.22 [ms]
[OGL LOG][Proc: 0]p: copy_x_back: 0.167 [ms]
[OGL LOG][lduLduBase.H:330] 
Statistics:
	Time per iteration: 24404 [mu s]
	Time per residual norm calculation: 13978.000000 [mu s]
	Time per iteration and DOF: 24.404000 [ns]
	Retrieve results bandwidth 0.686000 [GByte/s]
[OGL LOG][Proc: 0]p: solve_multi_gpu: 8049.48 [ms]
nonecudaGKOCG:  Solving for p, Initial residual = 0.02303, Final residual = 9.20625e-05, No Iterations 329
[INFO] SolveP: 8057.28 [ms]
time step continuity errors : sum local = 1.45019e-08, global = 3.63404e-20, cumulative = 9.05912e-19
[INFO] ContinuityError: 0.967 [ms]
[INFO] CorrectBoundary: 0.107 [ms]
[INFO] PISOStep: 8068.76 [ms]
[INFO] MatrixAssemblyPI: 4.938 [ms]
[INFO] AdjustPhi: 0.512 [ms]
[INFO] ConstrainPressure: 0.001 [ms]
[INFO] MatrixAssemblyPII: 1.52 [ms]
[OGL LOG][Proc: 0]: global_index_init: 0.066 [ms]
[OGL LOG][Proc: 0]p_local_coeffs: call_update: 0 [ms]
[OGL LOG][Proc: 0]p_non_local_coeffs: call_update: 0 [ms]
[OGL LOG][Proc: 0]p: update_local_matrix_data: 6.251 [ms]
[OGL LOG][Proc: 0]p: update_non_local_matrix_data: 0.191 [ms]
[OGL LOG][Proc: 0]p: regenerate_distributed_matrix: 10.261 [ms]
[OGL LOG][Proc: 0]p_matrix: call_update: 15.345 [ms]
[OGL LOG][Proc: 0]p_rhs: call_update: 4.751 [ms]
[OGL LOG][Proc: 0]p: init_precond: 0.038 [ms]
[OGL LOG][StoppingCriterion.H:239] Creating stopping criterion with minIter 197 frequency 11
[OGL LOG][Proc: 0]p: generate_solver: 0.035 [ms]
[OGL LOG][Proc: 0]p: solve: 7746.72 [ms]
[OGL LOG][Proc: 0]p: copy_x_back: 0.105 [ms]
[OGL LOG][lduLduBase.H:330] 
Statistics:
	Time per iteration: 24208 [mu s]
	Time per residual norm calculation: 10060.000000 [mu s]
	Time per iteration and DOF: 24.208000 [ns]
	Retrieve results bandwidth 1.092000 [GByte/s]
[OGL LOG][Proc: 0]p: solve_multi_gpu: 7768.11 [ms]
nonecudaGKOCG:  Solving for p, Initial residual = 0.0202575, Final residual = 8.04618e-05, No Iterations 320
[INFO] SolveP: 7777.28 [ms]
time step continuity errors : sum local = 1.15603e-08, global = 4.64171e-20, cumulative = 9.52329e-19
[INFO] ContinuityError: 2.204 [ms]
[INFO] CorrectBoundary: 0.335 [ms]
[INFO] PISOStep: 7789.84 [ms]
[INFO] TimeStep: 15887.7 [ms]
ExecutionTime = 331.02 s  ClockTime = 351 s

Time = 0.0065

Courant Number mean: 0.0647128 max: 0.474939
[INFO] MatrixAssemblyU: 5.301 [ms]
DILUPBiCGStab:  Solving for Ux, Initial residual = 0.00662083, Final residual = 3.23971e-05, No Iterations 5
DILUPBiCGStab:  Solving for Uy, Initial residual = 0.0141477, Final residual = 7.05204e-05, No Iterations 5
DILUPBiCGStab:  Solving for Uz, Initial residual = 0.0291951, Final residual = 0.000243093, No Iterations 5
[INFO] MomentumPredictor: 21.351 [ms]
[INFO] MatrixAssemblyPI: 4.91 [ms]
[INFO] AdjustPhi: 0.229 [ms]
[INFO] ConstrainPressure: 0.002 [ms]
[INFO] MatrixAssemblyPII: 1.271 [ms]
[OGL LOG][Proc: 0]: global_index_init: 0.08 [ms]
[OGL LOG][Proc: 0]p_local_coeffs: call_update: 0 [ms]
[OGL LOG][Proc: 0]p_non_local_coeffs: call_update: 0 [ms]
[OGL LOG][Proc: 0]p: update_local_matrix_data: 5.079 [ms]
[OGL LOG][Proc: 0]p: update_non_local_matrix_data: 0.164 [ms]
[OGL LOG][Proc: 0]p: regenerate_distributed_matrix: 9.901 [ms]
[OGL LOG][Proc: 0]p_matrix: call_update: 14.57 [ms]
[OGL LOG][Proc: 0]p_rhs: call_update: 4.112 [ms]
[OGL LOG][Proc: 0]p: init_precond: 0.032 [ms]
[OGL LOG][StoppingCriterion.H:239] Creating stopping criterion with minIter 192 frequency 8
[OGL LOG][Proc: 0]p: generate_solver: 0.028 [ms]
[OGL LOG][Proc: 0]p: solve: 17219.7 [ms]
[OGL LOG][Proc: 0]p: copy_x_back: 0.101 [ms]
[OGL LOG][lduLduBase.H:330] 
Statistics:
	Time per iteration: 24705 [mu s]
	Time per residual norm calculation: 11011.000000 [mu s]
	Time per iteration and DOF: 24.705000 [ns]
	Retrieve results bandwidth 1.135000 [GByte/s]
[OGL LOG][Proc: 0]p: solve_multi_gpu: 17240.8 [ms]
nonecudaGKOCG:  Solving for p, Initial residual = 0.01924, Final residual = 8.77223e-05, No Iterations 697
[INFO] SolveP: 17248.7 [ms]
time step continuity errors : sum local = 1.22678e-08, global = 3.55387e-20, cumulative = 9.87868e-19
[INFO] ContinuityError: 1.742 [ms]
[INFO] CorrectBoundary: 0.355 [ms]
[INFO] PISOStep: 17259.7 [ms]
[INFO] MatrixAssemblyPI: 4.499 [ms]
[INFO] AdjustPhi: 1.075 [ms]
[INFO] ConstrainPressure: 0.002 [ms]
[INFO] MatrixAssemblyPII: 1.309 [ms]
[OGL LOG][Proc: 0]: global_index_init: 0.088 [ms]
[OGL LOG][Proc: 0]p_local_coeffs: call_update: 0 [ms]
[OGL LOG][Proc: 0]p_non_local_coeffs: call_update: 0 [ms]
[OGL LOG][Proc: 0]p: update_local_matrix_data: 4.311 [ms]
[OGL LOG][Proc: 0]p: update_non_local_matrix_data: 0.167 [ms]
[OGL LOG][Proc: 0]p: regenerate_distributed_matrix: 10.208 [ms]
[OGL LOG][Proc: 0]p_matrix: call_update: 15.265 [ms]
[OGL LOG][Proc: 0]p_rhs: call_update: 4.673 [ms]
[OGL LOG][Proc: 0]p: init_precond: 0.034 [ms]
[OGL LOG][StoppingCriterion.H:239] Creating stopping criterion with minIter 418 frequency 11
[OGL LOG][Proc: 0]p: generate_solver: 0.028 [ms]
[OGL LOG][Proc: 0]p: solve: 16713.4 [ms]
[OGL LOG][Proc: 0]p: copy_x_back: 0.193 [ms]
[OGL LOG][lduLduBase.H:330] 
Statistics:
	Time per iteration: 24082 [mu s]
	Time per residual norm calculation: 12923.000000 [mu s]
	Time per iteration and DOF: 24.082000 [ns]
	Retrieve results bandwidth 0.594000 [GByte/s]
[OGL LOG][Proc: 0]p: solve_multi_gpu: 16736.8 [ms]
nonecudaGKOCG:  Solving for p, Initial residual = 0.0170933, Final residual = 8.98666e-05, No Iterations 694
[INFO] SolveP: 16742.3 [ms]
time step continuity errors : sum local = 1.25734e-08, global = 6.30565e-20, cumulative = 1.05092e-18
[INFO] ContinuityError: 0.934 [ms]
[INFO] CorrectBoundary: 0.098 [ms]
[INFO] PISOStep: 16754 [ms]
[INFO] TimeStep: 34041.7 [ms]
ExecutionTime = 364.9 s  ClockTime = 385 s

Time = 0.007

Courant Number mean: 0.0662873 max: 0.475676
[INFO] MatrixAssemblyU: 6.173 [ms]
DILUPBiCGStab:  Solving for Ux, Initial residual = 0.00600987, Final residual = 2.98378e-05, No Iterations 5
DILUPBiCGStab:  Solving for Uy, Initial residual = 0.0128434, Final residual = 6.13363e-05, No Iterations 5
DILUPBiCGStab:  Solving for Uz, Initial residual = 0.0260766, Final residual = 0.000187344, No Iterations 5
[INFO] MomentumPredictor: 20.56 [ms]
[INFO] MatrixAssemblyPI: 4.965 [ms]
[INFO] AdjustPhi: 0.194 [ms]
[INFO] ConstrainPressure: 0.002 [ms]
[INFO] MatrixAssemblyPII: 1.383 [ms]
[OGL LOG][Proc: 0]: global_index_init: 0.073 [ms]
[OGL LOG][Proc: 0]p_local_coeffs: call_update: 0 [ms]
[OGL LOG][Proc: 0]p_non_local_coeffs: call_update: 0 [ms]
[OGL LOG][Proc: 0]p: update_local_matrix_data: 4.315 [ms]
[OGL LOG][Proc: 0]p: update_non_local_matrix_data: 0.2 [ms]
[OGL LOG][Proc: 0]p: regenerate_distributed_matrix: 10.758 [ms]
[OGL LOG][Proc: 0]p_matrix: call_update: 18.113 [ms]
[OGL LOG][Proc: 0]p_rhs: call_update: 0.826 [ms]
[OGL LOG][Proc: 0]p: init_precond: 0.033 [ms]
[OGL LOG][StoppingCriterion.H:239] Creating stopping criterion with minIter 416 frequency 16
[OGL LOG][Proc: 0]p: generate_solver: 0.03 [ms]
[OGL LOG][Proc: 0]p: solve: 9903.21 [ms]
[OGL LOG][Proc: 0]p: copy_x_back: 0.089 [ms]
[OGL LOG][lduLduBase.H:330] 
Statistics:
	Time per iteration: 23748 [mu s]
	Time per residual norm calculation: 13060.000000 [mu s]
	Time per iteration and DOF: 23.748000 [ns]
	Retrieve results bandwidth 1.289000 [GByte/s]
[OGL LOG][Proc: 0]p: solve_multi_gpu: 9925.39 [ms]
nonecudaGKOCG:  Solving for p, Initial residual = 0.0153068, Final residual = 9.50583e-05, No Iterations 417
[INFO] SolveP: 9931.31 [ms]
time step continuity errors : sum local = 1.40691e-08, global = 3.80684e-20, cumulative = 1.08899e-18
[INFO] ContinuityError: 1.331 [ms]
[INFO] CorrectBoundary: 0.076 [ms]
[INFO] PISOStep: 9941.5 [ms]
[INFO] MatrixAssemblyPI: 4.076 [ms]
[INFO] AdjustPhi: 1.644 [ms]
[INFO] ConstrainPressure: 0.002 [ms]
[INFO] MatrixAssemblyPII: 1.325 [ms]
[OGL LOG][Proc: 0]: global_index_init: 0.093 [ms]
[OGL LOG][Proc: 0]p_local_coeffs: call_update: 0 [ms]
[OGL LOG][Proc: 0]p_non_local_coeffs: call_update: 0 [ms]
[OGL LOG][Proc: 0]p: update_local_matrix_data: 5.694 [ms]
[OGL LOG][Proc: 0]p: update_non_local_matrix_data: 0.169 [ms]
[OGL LOG][Proc: 0]p: regenerate_distributed_matrix: 10.02 [ms]
[OGL LOG][Proc: 0]p_matrix: call_update: 14.649 [ms]
[OGL LOG][Proc: 0]p_rhs: call_update: 4.231 [ms]
[OGL LOG][Proc: 0]p: init_precond: 0.04 [ms]
[OGL LOG][StoppingCriterion.H:239] Creating stopping criterion with minIter 250 frequency 12
[OGL LOG][Proc: 0]p: generate_solver: 0.03 [ms]
[OGL LOG][Proc: 0]p: solve: 7513.75 [ms]
[OGL LOG][Proc: 0]p: copy_x_back: 0.155 [ms]
[OGL LOG][lduLduBase.H:330] 
Statistics:
	Time per iteration: 24005 [mu s]
	Time per residual norm calculation: 11565.000000 [mu s]
	Time per iteration and DOF: 24.005000 [ns]
	Retrieve results bandwidth 0.740000 [GByte/s]
[OGL LOG][Proc: 0]p: solve_multi_gpu: 7534.57 [ms]
nonecudaGKOCG:  Solving for p, Initial residual = 0.0140086, Final residual = 6.71926e-05, No Iterations 313
[INFO] SolveP: 7541.71 [ms]
time step continuity errors : sum local = 9.7155e-09, global = 4.18632e-20, cumulative = 1.13086e-18
[INFO] ContinuityError: 1.253 [ms]
[INFO] CorrectBoundary: 0.087 [ms]
[INFO] PISOStep: 7553.36 [ms]
[INFO] TimeStep: 17522.4 [ms]
ExecutionTime = 382.34 s  ClockTime = 402 s

Time = 0.0075

Courant Number mean: 0.0677412 max: 0.47632
[INFO] MatrixAssemblyU: 6.278 [ms]
DILUPBiCGStab:  Solving for Ux, Initial residual = 0.00548059, Final residual = 2.6443e-05, No Iterations 5
DILUPBiCGStab:  Solving for Uy, Initial residual = 0.0117379, Final residual = 5.62668e-05, No Iterations 5
DILUPBiCGStab:  Solving for Uz, Initial residual = 0.0238829, Final residual = 0.000166441, No Iterations 5
[INFO] MomentumPredictor: 20.213 [ms]
[INFO] MatrixAssemblyPI: 4.99 [ms]
[INFO] AdjustPhi: 0.149 [ms]
[INFO] ConstrainPressure: 0.001 [ms]
[INFO] MatrixAssemblyPII: 1.262 [ms]
[OGL LOG][Proc: 0]: global_index_init: 0.071 [ms]
[OGL LOG][Proc: 0]p_local_coeffs: call_update: 0 [ms]
[OGL LOG][Proc: 0]p_non_local_coeffs: call_update: 0 [ms]
[OGL LOG][Proc: 0]p: update_local_matrix_data: 4.78 [ms]
[OGL LOG][Proc: 0]p: update_non_local_matrix_data: 0.186 [ms]
[OGL LOG][Proc: 0]p: regenerate_distributed_matrix: 10.618 [ms]
[OGL LOG][Proc: 0]p_matrix: call_update: 15.662 [ms]
[OGL LOG][Proc: 0]p_rhs: call_update: 3.581 [ms]
[OGL LOG][Proc: 0]p: init_precond: 0.036 [ms]
[OGL LOG][StoppingCriterion.H:239] Creating stopping criterion with minIter 187 frequency 7
[OGL LOG][Proc: 0]p: generate_solver: 0.032 [ms]
[OGL LOG][Proc: 0]p: solve: 7548.73 [ms]
[OGL LOG][Proc: 0]p: copy_x_back: 0.112 [ms]
[OGL LOG][lduLduBase.H:330] 
Statistics:
	Time per iteration: 24429 [mu s]
	Time per residual norm calculation: 13067.000000 [mu s]
	Time per iteration and DOF: 24.429000 [ns]
	Retrieve results bandwidth 1.024000 [GByte/s]
[OGL LOG][Proc: 0]p: solve_multi_gpu: 7570.83 [ms]
nonecudaGKOCG:  Solving for p, Initial residual = 0.0131831, Final residual = 8.4258e-05, No Iterations 309
[INFO] SolveP: 7577.16 [ms]
time step continuity errors : sum local = 1.30021e-08, global = 4.18834e-20, cumulative = 1.17274e-18
[INFO] ContinuityError: 1.578 [ms]
[INFO] CorrectBoundary: 0.314 [ms]
[INFO] PISOStep: 7588.69 [ms]
[INFO] MatrixAssemblyPI: 4.644 [ms]
[INFO] AdjustPhi: 0.37 [ms]
[INFO] ConstrainPressure: 0.002 [ms]
[INFO] MatrixAssemblyPII: 1.239 [ms]
[OGL LOG][Proc: 0]: global_index_init: 0.074 [ms]
[OGL LOG][Proc: 0]p_local_coeffs: call_update: 0 [ms]
[OGL LOG][Proc: 0]p_non_local_coeffs: call_update: 0 [ms]
[OGL LOG][Proc: 0]p: update_local_matrix_data: 4.832 [ms]
[OGL LOG][Proc: 0]p: update_non_local_matrix_data: 0.194 [ms]
[OGL LOG][Proc: 0]p: regenerate_distributed_matrix: 12.879 [ms]
[OGL LOG][Proc: 0]p_matrix: call_update: 17.35 [ms]
[OGL LOG][Proc: 0]p_rhs: call_update: 1.088 [ms]
[OGL LOG][Proc: 0]p: init_precond: 0.035 [ms]
[OGL LOG][StoppingCriterion.H:239] Creating stopping criterion with minIter 185 frequency 11
[OGL LOG][Proc: 0]p: generate_solver: 0.027 [ms]
[OGL LOG][Proc: 0]p: solve: 7210.76 [ms]
[OGL LOG][Proc: 0]p: copy_x_back: 0.104 [ms]
[OGL LOG][lduLduBase.H:330] 
Statistics:
	Time per iteration: 24197 [mu s]
	Time per residual norm calculation: 12776.000000 [mu s]
	Time per iteration and DOF: 24.197000 [ns]
	Retrieve results bandwidth 1.103000 [GByte/s]
[OGL LOG][Proc: 0]p: solve_multi_gpu: 7231.89 [ms]
nonecudaGKOCG:  Solving for p, Initial residual = 0.0121307, Final residual = 9.18133e-05, No Iterations 298
[INFO] SolveP: 7238.13 [ms]
time step continuity errors : sum local = 1.31164e-08, global = 4.58875e-20, cumulative = 1.21863e-18
[INFO] ContinuityError: 1.645 [ms]
[INFO] CorrectBoundary: 0.731 [ms]
[INFO] PISOStep: 7249.18 [ms]
[INFO] TimeStep: 14865.1 [ms]
ExecutionTime = 397.13 s  ClockTime = 417 s

Time = 0.008

Courant Number mean: 0.0690849 max: 0.476894
[INFO] MatrixAssemblyU: 5.325 [ms]
DILUPBiCGStab:  Solving for Ux, Initial residual = 0.00502748, Final residual = 2.4601e-05, No Iterations 5
DILUPBiCGStab:  Solving for Uy, Initial residual = 0.0107918, Final residual = 5.07734e-05, No Iterations 5
DILUPBiCGStab:  Solving for Uz, Initial residual = 0.0220006, Final residual = 0.000158912, No Iterations 5
[INFO] MomentumPredictor: 21.139 [ms]
[INFO] MatrixAssemblyPI: 4.817 [ms]
[INFO] AdjustPhi: 0.612 [ms]
[INFO] ConstrainPressure: 0.003 [ms]
[INFO] MatrixAssemblyPII: 1.253 [ms]
[OGL LOG][Proc: 0]: global_index_init: 0.112 [ms]
[OGL LOG][Proc: 0]p_local_coeffs: call_update: 0 [ms]
[OGL LOG][Proc: 0]p_non_local_coeffs: call_update: 0 [ms]
[OGL LOG][Proc: 0]p: update_local_matrix_data: 4.469 [ms]
[OGL LOG][Proc: 0]p: update_non_local_matrix_data: 0.163 [ms]
[OGL LOG][Proc: 0]p: regenerate_distributed_matrix: 10.563 [ms]
[OGL LOG][Proc: 0]p_matrix: call_update: 15.618 [ms]
[OGL LOG][Proc: 0]p_rhs: call_update: 3.341 [ms]
[OGL LOG][Proc: 0]p: init_precond: 0.034 [ms]
[OGL LOG][StoppingCriterion.H:239] Creating stopping criterion with minIter 178 frequency 10
[OGL LOG][Proc: 0]p: generate_solver: 0.028 [ms]
[OGL LOG][Proc: 0]p: solve: 7549.76 [ms]
[OGL LOG][Proc: 0]p: copy_x_back: 0.095 [ms]
[OGL LOG][lduLduBase.H:330] 
Statistics:
	Time per iteration: 24275 [mu s]
	Time per residual norm calculation: 12914.000000 [mu s]
	Time per iteration and DOF: 24.275000 [ns]
	Retrieve results bandwidth 1.207000 [GByte/s]
[OGL LOG][Proc: 0]p: solve_multi_gpu: 7571.86 [ms]
nonecudaGKOCG:  Solving for p, Initial residual = 0.0115986, Final residual = 8.24397e-05, No Iterations 311
[INFO] SolveP: 7577.84 [ms]
time step continuity errors : sum local = 1.29095e-08, global = 4.6441e-20, cumulative = 1.26507e-18
[INFO] ContinuityError: 1.303 [ms]
[INFO] CorrectBoundary: 0.1 [ms]
[INFO] PISOStep: 7588.54 [ms]
[INFO] MatrixAssemblyPI: 4.361 [ms]
[INFO] AdjustPhi: 0.988 [ms]
[INFO] ConstrainPressure: 0.002 [ms]
[INFO] MatrixAssemblyPII: 1.286 [ms]
[OGL LOG][Proc: 0]: global_index_init: 0.091 [ms]
[OGL LOG][Proc: 0]p_local_coeffs: call_update: 0 [ms]
[OGL LOG][Proc: 0]p_non_local_coeffs: call_update: 0 [ms]
[OGL LOG][Proc: 0]p: update_local_matrix_data: 4.748 [ms]
[OGL LOG][Proc: 0]p: update_non_local_matrix_data: 0.173 [ms]
[OGL LOG][Proc: 0]p: regenerate_distributed_matrix: 10.925 [ms]
[OGL LOG][Proc: 0]p_matrix: call_update: 16.085 [ms]
[OGL LOG][Proc: 0]p_rhs: call_update: 4.047 [ms]
[OGL LOG][Proc: 0]p: init_precond: 0.037 [ms]
[OGL LOG][StoppingCriterion.H:239] Creating stopping criterion with minIter 186 frequency 11
[OGL LOG][Proc: 0]p: generate_solver: 0.039 [ms]
[OGL LOG][Proc: 0]p: solve: 7210.74 [ms]
[OGL LOG][Proc: 0]p: copy_x_back: 0.167 [ms]
[OGL LOG][lduLduBase.H:330] 
Statistics:
	Time per iteration: 24197 [mu s]
	Time per residual norm calculation: 12630.000000 [mu s]
	Time per iteration and DOF: 24.197000 [ns]
	Retrieve results bandwidth 0.686000 [GByte/s]
[OGL LOG][Proc: 0]p: solve_multi_gpu: 7233.83 [ms]
nonecudaGKOCG:  Solving for p, Initial residual = 0.0108503, Final residual = 8.9791e-05, No Iterations 298
[INFO] SolveP: 7239.78 [ms]
time step continuity errors : sum local = 1.30257e-08, global = 5.14731e-20, cumulative = 1.31654e-18
[INFO] ContinuityError: 1.286 [ms]
[INFO] CorrectBoundary: 0.081 [ms]
[INFO] PISOStep: 7251.19 [ms]
[INFO] TimeStep: 14867 [ms]
ExecutionTime = 411.93 s  ClockTime = 432 s

Time = 0.0085

Courant Number mean: 0.0703356 max: 0.477405
[INFO] MatrixAssemblyU: 6.137 [ms]
DILUPBiCGStab:  Solving for Ux, Initial residual = 0.00463768, Final residual = 2.25052e-05, No Iterations 5
DILUPBiCGStab:  Solving for Uy, Initial residual = 0.00994953, Final residual = 4.70789e-05, No Iterations 5
DILUPBiCGStab:  Solving for Uz, Initial residual = 0.0207418, Final residual = 0.000150867, No Iterations 5
[INFO] MomentumPredictor: 20.448 [ms]
[INFO] MatrixAssemblyPI: 4.994 [ms]
[INFO] AdjustPhi: 0.147 [ms]
[INFO] ConstrainPressure: 0.002 [ms]
[INFO] MatrixAssemblyPII: 1.289 [ms]
[OGL LOG][Proc: 0]: global_index_init: 0.058 [ms]
[OGL LOG][Proc: 0]p_local_coeffs: call_update: 0 [ms]
[OGL LOG][Proc: 0]p_non_local_coeffs: call_update: 0 [ms]
[OGL LOG][Proc: 0]p: update_local_matrix_data: 5.184 [ms]
[OGL LOG][Proc: 0]p: update_non_local_matrix_data: 0.188 [ms]
[OGL LOG][Proc: 0]p: regenerate_distributed_matrix: 10.282 [ms]
[OGL LOG][Proc: 0]p_matrix: call_update: 14.93 [ms]
[OGL LOG][Proc: 0]p_rhs: call_update: 3.789 [ms]
[OGL LOG][Proc: 0]p: init_precond: 0.038 [ms]
[OGL LOG][StoppingCriterion.H:239] Creating stopping criterion with minIter 178 frequency 10
[OGL LOG][Proc: 0]p: generate_solver: 0.03 [ms]
[OGL LOG][Proc: 0]p: solve: 7793.07 [ms]
[OGL LOG][Proc: 0]p: copy_x_back: 0.102 [ms]
[OGL LOG][lduLduBase.H:330] 
Statistics:
	Time per iteration: 24277 [mu s]
	Time per residual norm calculation: 10357.000000 [mu s]
	Time per iteration and DOF: 24.277000 [ns]
	Retrieve results bandwidth 1.124000 [GByte/s]
[OGL LOG][Proc: 0]p: solve_multi_gpu: 7814.11 [ms]
nonecudaGKOCG:  Solving for p, Initial residual = 0.0103951, Final residual = 9.87819e-05, No Iterations 321
[INFO] SolveP: 7822.19 [ms]
time step continuity errors : sum local = 1.59194e-08, global = 5.40165e-20, cumulative = 1.37056e-18
[INFO] ContinuityError: 1.965 [ms]
[INFO] CorrectBoundary: 0.357 [ms]
[INFO] PISOStep: 7834.15 [ms]
[INFO] MatrixAssemblyPI: 4.559 [ms]
[INFO] AdjustPhi: 1.014 [ms]
[INFO] ConstrainPressure: 0.002 [ms]
[INFO] MatrixAssemblyPII: 1.287 [ms]
[OGL LOG][Proc: 0]: global_index_init: 0.093 [ms]
[OGL LOG][Proc: 0]p_local_coeffs: call_update: 0 [ms]
[OGL LOG][Proc: 0]p_non_local_coeffs: call_update: 0 [ms]
[OGL LOG][Proc: 0]p: update_local_matrix_data: 5.264 [ms]
[OGL LOG][Proc: 0]p: update_non_local_matrix_data: 0.174 [ms]
[OGL LOG][Proc: 0]p: regenerate_distributed_matrix: 15.731 [ms]
[OGL LOG][Proc: 0]p_matrix: call_update: 17.886 [ms]
[OGL LOG][Proc: 0]p_rhs: call_update: 0.827 [ms]
[OGL LOG][Proc: 0]p: init_precond: 0.034 [ms]
[OGL LOG][StoppingCriterion.H:239] Creating stopping criterion with minIter 192 frequency 8
[OGL LOG][Proc: 0]p: generate_solver: 0.029 [ms]
[OGL LOG][Proc: 0]p: solve: 7420.08 [ms]
[OGL LOG][Proc: 0]p: copy_x_back: 0.115 [ms]
[OGL LOG][lduLduBase.H:330] 
Statistics:
	Time per iteration: 24328 [mu s]
	Time per residual norm calculation: 10343.000000 [mu s]
	Time per iteration and DOF: 24.328000 [ns]
	Retrieve results bandwidth 0.997000 [GByte/s]
[OGL LOG][Proc: 0]p: solve_multi_gpu: 7441.11 [ms]
nonecudaGKOCG:  Solving for p, Initial residual = 0.00976159, Final residual = 8.91186e-05, No Iterations 305
[INFO] SolveP: 7449.08 [ms]
time step continuity errors : sum local = 1.30331e-08, global = 5.61593e-20, cumulative = 1.42672e-18
[INFO] ContinuityError: 1.544 [ms]
[INFO] CorrectBoundary: 0.135 [ms]
[INFO] PISOStep: 7460.47 [ms]
[INFO] TimeStep: 15322.6 [ms]
ExecutionTime = 427.18 s  ClockTime = 447 s

Time = 0.009

Courant Number mean: 0.0715042 max: 0.477867
[INFO] MatrixAssemblyU: 5.394 [ms]
DILUPBiCGStab:  Solving for Ux, Initial residual = 0.00428489, Final residual = 2.11962e-05, No Iterations 5
DILUPBiCGStab:  Solving for Uy, Initial residual = 0.00923882, Final residual = 4.32597e-05, No Iterations 5
DILUPBiCGStab:  Solving for Uz, Initial residual = 0.0193243, Final residual = 0.000147213, No Iterations 5
[INFO] MomentumPredictor: 21.249 [ms]
[INFO] MatrixAssemblyPI: 4.972 [ms]
[INFO] AdjustPhi: 0.229 [ms]
[INFO] ConstrainPressure: 0.002 [ms]
[INFO] MatrixAssemblyPII: 1.289 [ms]
[OGL LOG][Proc: 0]: global_index_init: 0.074 [ms]
[OGL LOG][Proc: 0]p_local_coeffs: call_update: 0 [ms]
[OGL LOG][Proc: 0]p_non_local_coeffs: call_update: 0 [ms]
[OGL LOG][Proc: 0]p: update_local_matrix_data: 4.498 [ms]
[OGL LOG][Proc: 0]p: update_non_local_matrix_data: 0.165 [ms]
[OGL LOG][Proc: 0]p: regenerate_distributed_matrix: 10.264 [ms]
[OGL LOG][Proc: 0]p_matrix: call_update: 14.717 [ms]
[OGL LOG][Proc: 0]p_rhs: call_update: 4.287 [ms]
[OGL LOG][Proc: 0]p: init_precond: 0.034 [ms]
[OGL LOG][StoppingCriterion.H:239] Creating stopping criterion with minIter 183 frequency 7
[OGL LOG][Proc: 0]p: generate_solver: 0.027 [ms]
[OGL LOG][Proc: 0]p: solve: 17236.5 [ms]
[OGL LOG][Proc: 0]p: copy_x_back: 0.147 [ms]
[OGL LOG][lduLduBase.H:330] 
Statistics:
	Time per iteration: 24836 [mu s]
	Time per residual norm calculation: 10978.000000 [mu s]
	Time per iteration and DOF: 24.836000 [ns]
	Retrieve results bandwidth 0.780000 [GByte/s]
[OGL LOG][Proc: 0]p: solve_multi_gpu: 17258.8 [ms]
nonecudaGKOCG:  Solving for p, Initial residual = 0.0096212, Final residual = 7.9839e-05, No Iterations 694
[INFO] SolveP: 17264.8 [ms]
time step continuity errors : sum local = 1.11632e-08, global = 4.09207e-20, cumulative = 1.46764e-18
[INFO] ContinuityError: 1.11 [ms]
[INFO] CorrectBoundary: 0.097 [ms]
[INFO] PISOStep: 17276.2 [ms]
[INFO] MatrixAssemblyPI: 4.866 [ms]
[INFO] AdjustPhi: 0.608 [ms]
[INFO] ConstrainPressure: 0.002 [ms]
[INFO] MatrixAssemblyPII: 1.385 [ms]
[OGL LOG][Proc: 0]: global_index_init: 0.07 [ms]
[OGL LOG][Proc: 0]p_local_coeffs: call_update: 0 [ms]
[OGL LOG][Proc: 0]p_non_local_coeffs: call_update: 0 [ms]
[OGL LOG][Proc: 0]p: update_local_matrix_data: 6.166 [ms]
[OGL LOG][Proc: 0]p: update_non_local_matrix_data: 0.18 [ms]
[OGL LOG][Proc: 0]p: regenerate_distributed_matrix: 10.148 [ms]
[OGL LOG][Proc: 0]p_matrix: call_update: 14.395 [ms]
[OGL LOG][Proc: 0]p_rhs: call_update: 4.138 [ms]
[OGL LOG][Proc: 0]p: init_precond: 0.039 [ms]
[OGL LOG][StoppingCriterion.H:239] Creating stopping criterion with minIter 416 frequency 11
[OGL LOG][Proc: 0]p: generate_solver: 0.032 [ms]
[OGL LOG][Proc: 0]p: solve: 16694.6 [ms]
[OGL LOG][Proc: 0]p: copy_x_back: 0.123 [ms]
[OGL LOG][lduLduBase.H:330] 
Statistics:
	Time per iteration: 24055 [mu s]
	Time per residual norm calculation: 11272.000000 [mu s]
	Time per iteration and DOF: 24.055000 [ns]
	Retrieve results bandwidth 0.932000 [GByte/s]
[OGL LOG][Proc: 0]p: solve_multi_gpu: 16714.6 [ms]
nonecudaGKOCG:  Solving for p, Initial residual = 0.00909517, Final residual = 6.93598e-05, No Iterations 694
[INFO] SolveP: 16722.4 [ms]
time step continuity errors : sum local = 9.70155e-09, global = 4.50647e-20, cumulative = 1.5127e-18
[INFO] ContinuityError: 1.842 [ms]
[INFO] CorrectBoundary: 0.307 [ms]
[INFO] PISOStep: 16734.4 [ms]
[INFO] TimeStep: 34038.8 [ms]
ExecutionTime = 461.05 s  ClockTime = 481 s

Time = 0.0095

Courant Number mean: 0.072596 max: 0.478283
[INFO] MatrixAssemblyU: 5.392 [ms]
DILUPBiCGStab:  Solving for Ux, Initial residual = 0.00398018, Final residual = 1.94801e-05, No Iterations 5
DILUPBiCGStab:  Solving for Uy, Initial residual = 0.00857368, Final residual = 4.0506e-05, No Iterations 5
DILUPBiCGStab:  Solving for Uz, Initial residual = 0.0180258, Final residual = 0.000119681, No Iterations 5
[INFO] MomentumPredictor: 20.925 [ms]
[INFO] MatrixAssemblyPI: 4.857 [ms]
[INFO] AdjustPhi: 0.255 [ms]
[INFO] ConstrainPressure: 0.002 [ms]
[INFO] MatrixAssemblyPII: 1.257 [ms]
[OGL LOG][Proc: 0]: global_index_init: 0.059 [ms]
[OGL LOG][Proc: 0]p_local_coeffs: call_update: 0 [ms]
[OGL LOG][Proc: 0]p_non_local_coeffs: call_update: 0 [ms]
[OGL LOG][Proc: 0]p: update_local_matrix_data: 4.679 [ms]
[OGL LOG][Proc: 0]p: update_non_local_matrix_data: 0.183 [ms]
[OGL LOG][Proc: 0]p: regenerate_distributed_matrix: 10.014 [ms]
[OGL LOG][Proc: 0]p_matrix: call_update: 14.853 [ms]
[OGL LOG][Proc: 0]p_rhs: call_update: 3.979 [ms]
[OGL LOG][Proc: 0]p: init_precond: 0.032 [ms]
[OGL LOG][StoppingCriterion.H:239] Creating stopping criterion with minIter 416 frequency 11
[OGL LOG][Proc: 0]p: generate_solver: 0.028 [ms]
[OGL LOG][Proc: 0]p: solve: 16712.7 [ms]
[OGL LOG][Proc: 0]p: copy_x_back: 0.185 [ms]
[OGL LOG][lduLduBase.H:330] 
Statistics:
	Time per iteration: 24081 [mu s]
	Time per residual norm calculation: 11281.000000 [mu s]
	Time per iteration and DOF: 24.081000 [ns]
	Retrieve results bandwidth 0.620000 [GByte/s]
[OGL LOG][Proc: 0]p: solve_multi_gpu: 16734.6 [ms]
nonecudaGKOCG:  Solving for p, Initial residual = 0.00877515, Final residual = 5.73123e-05, No Iterations 694
[INFO] SolveP: 16740.7 [ms]
time step continuity errors : sum local = 8.0133e-09, global = 3.86143e-20, cumulative = 1.55132e-18
[INFO] ContinuityError: 1.595 [ms]
[INFO] CorrectBoundary: 0.113 [ms]
[INFO] PISOStep: 16752.7 [ms]
[INFO] MatrixAssemblyPI: 4.953 [ms]
[INFO] AdjustPhi: 0.283 [ms]
[INFO] ConstrainPressure: 0.002 [ms]
[INFO] MatrixAssemblyPII: 1.421 [ms]
[OGL LOG][Proc: 0]: global_index_init: 0.078 [ms]
[OGL LOG][Proc: 0]p_local_coeffs: call_update: 0 [ms]
[OGL LOG][Proc: 0]p_non_local_coeffs: call_update: 0 [ms]
[OGL LOG][Proc: 0]p: update_local_matrix_data: 5.632 [ms]
[OGL LOG][Proc: 0]p: update_non_local_matrix_data: 0.208 [ms]
[OGL LOG][Proc: 0]p: regenerate_distributed_matrix: 11.213 [ms]
[OGL LOG][Proc: 0]p_matrix: call_update: 16.747 [ms]
[OGL LOG][Proc: 0]p_rhs: call_update: 3.293 [ms]
[OGL LOG][Proc: 0]p: init_precond: 0.039 [ms]
[OGL LOG][StoppingCriterion.H:239] Creating stopping criterion with minIter 416 frequency 11
[OGL LOG][Proc: 0]p: generate_solver: 0.034 [ms]
[OGL LOG][Proc: 0]p: solve: 16436.4 [ms]
[OGL LOG][Proc: 0]p: copy_x_back: 0.096 [ms]
[OGL LOG][lduLduBase.H:330] 
Statistics:
	Time per iteration: 24064 [mu s]
	Time per residual norm calculation: 10837.000000 [mu s]
	Time per iteration and DOF: 24.064000 [ns]
	Retrieve results bandwidth 1.195000 [GByte/s]
[OGL LOG][Proc: 0]p: solve_multi_gpu: 16458.4 [ms]
nonecudaGKOCG:  Solving for p, Initial residual = 0.00832931, Final residual = 9.0912e-05, No Iterations 683
[INFO] SolveP: 16465.6 [ms]
time step continuity errors : sum local = 1.27138e-08, global = 2.7315e-20, cumulative = 1.57863e-18
[INFO] ContinuityError: 1.788 [ms]
[INFO] CorrectBoundary: 0.318 [ms]
[INFO] PISOStep: 16476.7 [ms]
[INFO] TimeStep: 33257.2 [ms]
ExecutionTime = 494.15 s  ClockTime = 515 s

Time = 0.01

Courant Number mean: 0.0736179 max: 0.478662
[INFO] MatrixAssemblyU: 5.407 [ms]
DILUPBiCGStab:  Solving for Ux, Initial residual = 0.00370532, Final residual = 1.82201e-05, No Iterations 5
DILUPBiCGStab:  Solving for Uy, Initial residual = 0.0079877, Final residual = 3.69331e-05, No Iterations 5
DILUPBiCGStab:  Solving for Uz, Initial residual = 0.0165011, Final residual = 9.98919e-05, No Iterations 5
[INFO] MomentumPredictor: 22.108 [ms]
[INFO] MatrixAssemblyPI: 4.89 [ms]
[INFO] AdjustPhi: 0.439 [ms]
[INFO] ConstrainPressure: 0.002 [ms]
[INFO] MatrixAssemblyPII: 1.441 [ms]
[OGL LOG][Proc: 0]: global_index_init: 0.072 [ms]
[OGL LOG][Proc: 0]p_local_coeffs: call_update: 0 [ms]
[OGL LOG][Proc: 0]p_non_local_coeffs: call_update: 0 [ms]
[OGL LOG][Proc: 0]p: update_local_matrix_data: 4.503 [ms]
[OGL LOG][Proc: 0]p: update_non_local_matrix_data: 0.169 [ms]
[OGL LOG][Proc: 0]p: regenerate_distributed_matrix: 10.587 [ms]
[OGL LOG][Proc: 0]p_matrix: call_update: 15.253 [ms]
[OGL LOG][Proc: 0]p_rhs: call_update: 3.884 [ms]
[OGL LOG][Proc: 0]p: init_precond: 0.031 [ms]
[OGL LOG][StoppingCriterion.H:239] Creating stopping criterion with minIter 409 frequency 11
[OGL LOG][Proc: 0]p: generate_solver: 0.029 [ms]
[OGL LOG][Proc: 0]p: solve: 9951.07 [ms]
[OGL LOG][Proc: 0]p: copy_x_back: 0.161 [ms]
[OGL LOG][lduLduBase.H:330] 
Statistics:
	Time per iteration: 23749 [mu s]
	Time per residual norm calculation: 10355.000000 [mu s]
	Time per iteration and DOF: 23.749000 [ns]
	Retrieve results bandwidth 0.712000 [GByte/s]
[OGL LOG][Proc: 0]p: solve_multi_gpu: 9973.36 [ms]
nonecudaGKOCG:  Solving for p, Initial residual = 0.00807306, Final residual = 2.19225e-05, No Iterations 419
[INFO] SolveP: 9980.64 [ms]
time step continuity errors : sum local = 3.29823e-09, global = 4.33482e-20, cumulative = 1.62198e-18
[INFO] ContinuityError: 1.575 [ms]
[INFO] CorrectBoundary: 0.114 [ms]
[INFO] PISOStep: 9992.19 [ms]
[INFO] MatrixAssemblyPI: 4.935 [ms]
[INFO] AdjustPhi: 0.431 [ms]
[INFO] ConstrainPressure: 0.002 [ms]
[INFO] MatrixAssemblyPII: 1.345 [ms]
[OGL LOG][Proc: 0]: global_index_init: 0.086 [ms]
[OGL LOG][Proc: 0]p_local_coeffs: call_update: 0 [ms]
[OGL LOG][Proc: 0]p_non_local_coeffs: call_update: 0 [ms]
[OGL LOG][Proc: 0]p: update_local_matrix_data: 5.701 [ms]
[OGL LOG][Proc: 0]p: update_non_local_matrix_data: 0.201 [ms]
[OGL LOG][Proc: 0]p: regenerate_distributed_matrix: 9.578 [ms]
[OGL LOG][Proc: 0]p_matrix: call_update: 14.536 [ms]
[OGL LOG][Proc: 0]p_rhs: call_update: 4.201 [ms]
[OGL LOG][Proc: 0]p: init_precond: 0.035 [ms]
[OGL LOG][StoppingCriterion.H:239] Creating stopping criterion with minIter 251 frequency 9
[OGL LOG][Proc: 0]p: generate_solver: 0.03 [ms]
[OGL LOG][Proc: 0]p: solve: 6931.31 [ms]
[OGL LOG][Proc: 0]p: copy_x_back: 0.099 [ms]
[OGL LOG][lduLduBase.H:330] 
Statistics:
	Time per iteration: 23983 [mu s]
	Time per residual norm calculation: 12478.000000 [mu s]
	Time per iteration and DOF: 23.983000 [ns]
	Retrieve results bandwidth 1.158000 [GByte/s]
[OGL LOG][Proc: 0]p: solve_multi_gpu: 6951.9 [ms]
nonecudaGKOCG:  Solving for p, Initial residual = 0.00766763, Final residual = 8.5487e-05, No Iterations 289
[INFO] SolveP: 6958.94 [ms]
time step continuity errors : sum local = 1.20578e-08, global = 4.20956e-20, cumulative = 1.66408e-18
[INFO] ContinuityError: 1.385 [ms]
[INFO] CorrectBoundary: 0.277 [ms]
[INFO] PISOStep: 6970.15 [ms]
[INFO] TimeStep: 16991.1 [ms]
ExecutionTime = 511.07 s  ClockTime = 532 s

End

Finalising parallel run
