/*---------------------------------------------------------------------------*\
| =========                 |                                                 |
| \\      /  F ield         | OpenFOAM: The Open Source CFD Toolbox           |
|  \\    /   O peration     | Version:  2306                                  |
|   \\  /    A nd           | Website:  www.openfoam.com                      |
|    \\/     M anipulation  |                                                 |
\*---------------------------------------------------------------------------*/
Build  : a6e826bd55-20230630 OPENFOAM=2306 version=v2306
Arch   : "LSB;label=32;scalar=64"
Exec   : simpleFoam -parallel -case /home/greole/data/code/exasim_project/micro_benchmarks/WindsorBody/workspace/f0b52c872af2585c009bbdd90a518be0/case
Date   : Aug 27 2023
Time   : 11:24:11
Host   : nla-gpu2.ianm.kit.edu
PID    : 3063572
I/O    : uncollated
Case   : /home/greole/data/code/exasim_project/micro_benchmarks/WindsorBody/workspace/f0b52c872af2585c009bbdd90a518be0/case
nProcs : 32
Hosts  :
(
    (nla-gpu2.ianm.kit.edu 32)
)
Pstream initialized with:
    floatTransfer      : false
    nProcsSimpleSum    : 0
    nonBlockingExchange: 0 (tuning: 0)
    exchange algorithm : -1
    commsType          : nonBlocking
    polling iterations : 0
trapFpe: Floating point exception trapping enabled (FOAM_SIGFPE).
fileModificationChecking : Monitoring run-time modified files using timeStampMaster (fileModificationSkew 5, maxFileModificationPolls 20)
allowSystemOperations : Allowing user-supplied system call operations

// * * * * * * * * * * * * * * * * * * * * * * * * * * * * * * * * * * * * * //
Create time

--> FOAM Warning : 
    From void* Foam::dlLibraryTable::openLibrary(const Foam::fileName&, bool)
    in file db/dynamicLibrary/dlLibraryTable/dlLibraryTable.C at line 188
    Could not load "libpetscFoam.so"
libpetscFoam.so: cannot open shared object file: No such file or directory
Create mesh for time = 0


SIMPLE: convergence criteria
    field p	 tolerance 1e-08
    field U	 tolerance 1e-08
    field k	 tolerance 1e-08
    field omega	 tolerance 1e-08
    field nuTilda	 tolerance 1e-08

Reading field p

Reading field U

Reading/calculating face flux field phi

Selecting incompressible transport model Newtonian
Selecting turbulence model type RAS
Selecting RAS turbulence model SpalartAllmaras
Selecting patchDistMethod meshWave
ft2 term: inactive
RAS
{
    RASModel        SpalartAllmaras;
    turbulence      on;
    printCoeffs     on;
    sigmaNut        0.66666;
    kappa           0.41;
    Cb1             0.1355;
    Cb2             0.622;
    Cw2             0.3;
    Cw3             2;
    Cv1             7.1;
    Cs              0.3;
    ck              0.07000000000000001;
    ft2             false;
    Ct3             1.2;
    Ct4             0.5;
}

No MRF models present

Creating finite volume options from "system/fvOptions"

Selecting finite volume options type velocityDampingConstraint
    Source: velocityDamping
    - selecting all cells
    - selected 6307136 cell(s) with volume 27.82583051608611

Starting time loop

--> FOAM Warning : 
    From bool Foam::functionObjectList::read()
    in file db/functionObjects/functionObjectList/functionObjectList.C at line 1035
    Reading "system/controlDict" at line 2 to 41
    Entry 'lref' is not a dictionary
--> FOAM Warning : 
    From bool Foam::functionObjectList::read()
    in file db/functionObjects/functionObjectList/functionObjectList.C at line 1035
    Reading "system/controlDict" at line 2 to 41
    Entry 'Aref' is not a dictionary
--> FOAM Warning : 
    From bool Foam::functionObjectList::read()
    in file db/functionObjects/functionObjectList/functionObjectList.C at line 1035
    Reading "system/controlDict" at line 2 to 41
    Entry 'yawAngle' is not a dictionary
--> FOAM Warning : 
    From bool Foam::functionObjectList::read()
    in file db/functionObjects/functionObjectList/functionObjectList.C at line 1035
    Reading "system/controlDict" at line 2 to 41
    Entry 'lDomain' is not a dictionary
--> FOAM Warning : 
    From bool Foam::functionObjectList::read()
    in file db/functionObjects/functionObjectList/functionObjectList.C at line 1035
    Reading "system/controlDict" at line 2 to 41
    Entry 'bDomain' is not a dictionary
--> FOAM Warning : 
    From bool Foam::functionObjectList::read()
    in file db/functionObjects/functionObjectList/functionObjectList.C at line 1035
    Reading "system/controlDict" at line 2 to 41
    Entry 'hDomain' is not a dictionary
--> FOAM Warning : 
    From bool Foam::functionObjectList::read()
    in file db/functionObjects/functionObjectList/functionObjectList.C at line 1035
    Reading "system/controlDict" at line 2 to 41
    Entry 'xCenter' is not a dictionary
--> FOAM Warning : 
    From bool Foam::functionObjectList::read()
    in file db/functionObjects/functionObjectList/functionObjectList.C at line 1035
    Reading "system/controlDict" at line 2 to 41
    Entry 'yCenter' is not a dictionary
--> FOAM Warning : 
    From bool Foam::functionObjectList::read()
    in file db/functionObjects/functionObjectList/functionObjectList.C at line 1035
    Reading "system/controlDict" at line 2 to 41
    Entry 'zCenter' is not a dictionary
--> FOAM Warning : 
    From bool Foam::functionObjectList::read()
    in file db/functionObjects/functionObjectList/functionObjectList.C at line 1035
    Reading "system/controlDict" at line 2 to 41
    Entry 'inletPatch' is not a dictionary
--> FOAM Warning : 
    From bool Foam::functionObjectList::read()
    in file db/functionObjects/functionObjectList/functionObjectList.C at line 1035
    Reading "system/controlDict" at line 2 to 41
    Entry 'outletPatch' is not a dictionary
--> FOAM Warning : 
    From bool Foam::functionObjectList::read()
    in file db/functionObjects/functionObjectList/functionObjectList.C at line 1035
    Reading "system/controlDict" at line 2 to 41
    Entry 'wallPatches' is not a dictionary
--> FOAM Warning : 
    From bool Foam::functionObjectList::read()
    in file db/functionObjects/functionObjectList/functionObjectList.C at line 1035
    Reading "system/controlDict" at line 2 to 41
    Entry 'forcesWallPatches' is not a dictionary
--> FOAM Warning : 
    From bool Foam::functionObjectList::read()
    in file db/functionObjects/functionObjectList/functionObjectList.C at line 1035
    Reading "system/controlDict" at line 2 to 41
    Entry 'symmPatches' is not a dictionary
--> FOAM Warning : 
    From bool Foam::functionObjectList::read()
    in file db/functionObjects/functionObjectList/functionObjectList.C at line 1035
    Reading "system/controlDict" at line 2 to 41
    Entry 'Uinf' is not a dictionary
--> FOAM Warning : 
    From bool Foam::functionObjectList::read()
    in file db/functionObjects/functionObjectList/functionObjectList.C at line 1035
    Reading "system/controlDict" at line 2 to 41
    Entry 'UinfMag' is not a dictionary
--> FOAM Warning : 
    From bool Foam::functionObjectList::read()
    in file db/functionObjects/functionObjectList/functionObjectList.C at line 1035
    Reading "system/controlDict" at line 2 to 41
    Entry 'nu' is not a dictionary
--> FOAM Warning : 
    From bool Foam::functionObjectList::read()
    in file db/functionObjects/functionObjectList/functionObjectList.C at line 1035
    Reading "system/controlDict" at line 2 to 41
    Entry 'pref' is not a dictionary
--> FOAM Warning : 
    From bool Foam::functionObjectList::read()
    in file db/functionObjects/functionObjectList/functionObjectList.C at line 1035
    Reading "system/controlDict" at line 2 to 41
    Entry 'viscRatio' is not a dictionary
--> FOAM Warning : 
    From bool Foam::functionObjectList::read()
    in file db/functionObjects/functionObjectList/functionObjectList.C at line 1035
    Reading "system/controlDict" at line 2 to 41
    Entry 'Tu' is not a dictionary
--> FOAM Warning : 
    From bool Foam::functionObjectList::read()
    in file db/functionObjects/functionObjectList/functionObjectList.C at line 1035
    Reading "system/controlDict" at line 2 to 41
    Entry 'LESturbModel' is not a dictionary
--> FOAM Warning : 
    From bool Foam::functionObjectList::read()
    in file db/functionObjects/functionObjectList/functionObjectList.C at line 1035
    Reading "system/controlDict" at line 2 to 41
    Entry 'RASturbModel' is not a dictionary
--> FOAM Warning : 
    From bool Foam::functionObjectList::read()
    in file db/functionObjects/functionObjectList/functionObjectList.C at line 1035
    Reading "system/controlDict" at line 2 to 41
    Entry 'deltaTurb' is not a dictionary
--> FOAM Warning : 
    From bool Foam::functionObjectList::read()
    in file db/functionObjects/functionObjectList/functionObjectList.C at line 1035
    Reading "system/controlDict" at line 2 to 41
    Entry 'dt' is not a dictionary
--> FOAM Warning : 
    From bool Foam::functionObjectList::read()
    in file db/functionObjects/functionObjectList/functionObjectList.C at line 1035
    Reading "system/controlDict" at line 2 to 41
    Entry 'tAvg' is not a dictionary
--> FOAM Warning : 
    From bool Foam::functionObjectList::read()
    in file db/functionObjects/functionObjectList/functionObjectList.C at line 1035
    Reading "system/controlDict" at line 2 to 41
    Entry 'tEnd' is not a dictionary
--> FOAM Warning : 
    From bool Foam::functionObjectList::read()
    in file db/functionObjects/functionObjectList/functionObjectList.C at line 1035
    Reading "system/controlDict" at line 2 to 41
    Entry 'writeInterval_' is not a dictionary
--> FOAM Warning : 
    From bool Foam::functionObjectList::read()
    in file db/functionObjects/functionObjectList/functionObjectList.C at line 1035
    Reading "system/controlDict" at line 2 to 41
    Entry 'nCores' is not a dictionary
--> FOAM Warning : 
    From bool Foam::functionObjectList::read()
    in file db/functionObjects/functionObjectList/functionObjectList.C at line 1035
    Reading "system/controlDict" at line 2 to 41
    Entry 'interpScheme' is not a dictionary
--> FOAM Warning : 
    From bool Foam::functionObjectList::read()
    in file db/functionObjects/functionObjectList/functionObjectList.C at line 1035
    Reading "system/controlDict" at line 2 to 41
    Entry 'probeField' is not a dictionary
wallShearStress wallShearStress:
    processing wall patches: 
        Windsor_Body
        CFDWT_Floor
        Windsor_Pins
        Windsor_Base

pressure calc_cp:
    Operating mode: staticCoeff
    Not including hydrostatic effects

forceCoeffs forceCoeffsAll:
    rho: rhoInf
    Freestream density (rhoInf) set to 1
    Not including porosity effects
    magUInf: 40
    lRef   : 0.6375
    Aref   : 0.1124
    rhoInf : 1
    Selecting all coefficients
    - Drag force: Cd
    - Drag force front: Cd(f)
    - Drag force rear: Cd(r)
    - Lift force: Cl
    - Lift force front: Cl(f)
    - Lift force rear: Cl(r)
    - Pitch moment: CmPitch
    - Roll moment: CmRoll
    - Yaw moment: CmYaw
    - Side force: Cs
    - Side force front: Cs(f)
    - Side force rear: Cs(r)


forceCoeffs dragCoeffBase:
    rho: rhoInf
    Freestream density (rhoInf) set to 1
    Not including porosity effects
    magUInf: 40
    lRef   : 0.6375
    Aref   : 0.1124
    rhoInf : 1
    Selecting coefficients:
    - Drag force: Cd


Time = 1

velocityDampingConstraint velocityDamping damped 0 (0%) of cells, with max limit 300
[INFO] MatrixAssemblyU: 478.4 [ms]
[OGL LOG][lduLduBase.H:119] Initialising OGL
	OGL commit:  4647ee1+
	Branch: PersistentDeviceIdGuard 
	Build type: Release
	Ginkgo version: 1.5.0 ( develop)
	Ginkgo commit: 4292ffdee
	MPI is GPU aware: 1
	Forces host buffer based communication: 0
	CPU ranks per GPU: 1
	Matrix format: Coo
	End OGL_INFO
[OGL LOG][Proc: 0]: global_index_init: 12.876 [ms]
[OGL LOG][Proc: 0]Ux_local_cols: call_init: 0.027 [ms]
[OGL LOG][Proc: 0]Ux_local_rows: call_init: 0.003 [ms]
[OGL LOG][Proc: 0]Ux_local_ldu_map: call_init: 0.003 [ms]
[OGL LOG][Proc: 0]Ux_local_coeffs: call_init: 0.005 [ms]
[OGL LOG][Proc: 0]Ux_non_local_cols: call_init: 0.003 [ms]
[OGL LOG][Proc: 0]Ux_non_local_rows: call_init: 0.003 [ms]
[OGL LOG][Proc: 0]Ux_non_local_ldu_map: call_init: 0.002 [ms]
[OGL LOG][Proc: 0]Ux_non_local_coeffs: call_init: 0.002 [ms]
[OGL LOG][Proc: 0]Ux: init_local_sparsity_pattern: 63.821 [ms]
[OGL LOG][Proc: 0]Ux: init_non_local_sparsity_pattern: 1.096 [ms]
[OGL LOG][Proc: 0]Ux: update_local_matrix_data: 10.675 [ms]
[OGL LOG][Proc: 0]Ux: update_non_local_matrix_data: 0.12 [ms]
[OGL LOG][Proc: 0]device_partition: call_init: 5.964 [ms]
[OGL LOG][Proc: 0]Ux_matrix: call_init: 100.948 [ms]
[OGL LOG][Proc: 0]Ux_rhs: call_init: 5.438 [ms]
[OGL LOG][Proc: 0]Ux_solution: call_init: 5.005 [ms]
[OGL LOG][Preconditioner.H:121] Generate preconditioner BJ MaxBlockSize 1
[OGL LOG][Proc: 0]Ux: init_precond: 6.685 [ms]
[OGL LOG][StoppingCriterion.H:373] Creating stopping criterion with minIter 0 frequency 1
[OGL LOG][Proc: 0]Ux: generate_solver: 0.015 [ms]
[OGL LOG][Proc: 0]Ux: solve: 1787.946 [ms]
[OGL LOG][Proc: 0]Ux: copy_x_back: 1.03 [ms]
[OGL LOG][lduLduBase.H:336] 
Statistics:
	Time per iteration: 74497 [mu s]
	Time per residual norm calculation: 2300.000000 [mu s]
	Time per iteration and DOF: 11.811542 [ns]
	Retrieve results bandwidth 2.024000 [GByte/s]
[OGL LOG][Proc: 0]Ux: solve_multi_gpu: 1913.964 [ms]
BJhipGKOBiCGStab:  Solving for Ux, Initial residual = 1.000000000000088, Final residual = 0.0587487453465928, No Iterations 24
[OGL LOG][lduLduBase.H:119] Initialising OGL
	OGL commit:  4647ee1+
	Branch: PersistentDeviceIdGuard 
	Build type: Release
	Ginkgo version: 1.5.0 ( develop)
	Ginkgo commit: 4292ffdee
	MPI is GPU aware: 1
	Forces host buffer based communication: 0
	CPU ranks per GPU: 1
	Matrix format: Coo
	End OGL_INFO
[OGL LOG][Proc: 0]: global_index_init: 1.098 [ms]
[OGL LOG][Proc: 0]Uy_local_cols: call_init: 0.005 [ms]
[OGL LOG][Proc: 0]Uy_local_rows: call_init: 0.002 [ms]
[OGL LOG][Proc: 0]Uy_local_ldu_map: call_init: 0.003 [ms]
[OGL LOG][Proc: 0]Uy_local_coeffs: call_init: 0.003 [ms]
[OGL LOG][Proc: 0]Uy_non_local_cols: call_init: 0.003 [ms]
[OGL LOG][Proc: 0]Uy_non_local_rows: call_init: 0.003 [ms]
[OGL LOG][Proc: 0]Uy_non_local_ldu_map: call_init: 0.002 [ms]
[OGL LOG][Proc: 0]Uy_non_local_coeffs: call_init: 0.002 [ms]
[OGL LOG][Proc: 0]Uy: init_local_sparsity_pattern: 68.971 [ms]
[OGL LOG][Proc: 0]Uy: init_non_local_sparsity_pattern: 0.972 [ms]
[OGL LOG][Proc: 0]Uy: update_local_matrix_data: 8.888 [ms]
[OGL LOG][Proc: 0]Uy: update_non_local_matrix_data: 0.118 [ms]
[OGL LOG][Proc: 0]Uy_matrix: call_init: 54.937 [ms]
[OGL LOG][Proc: 0]Uy_rhs: call_init: 2.659 [ms]
[OGL LOG][Proc: 0]Uy_solution: call_init: 0.731 [ms]
[OGL LOG][Preconditioner.H:121] Generate preconditioner BJ MaxBlockSize 1
[OGL LOG][Proc: 0]Uy: init_precond: 0.282 [ms]
[OGL LOG][StoppingCriterion.H:373] Creating stopping criterion with minIter 0 frequency 1
[OGL LOG][Proc: 0]Uy: generate_solver: 0.001 [ms]
[OGL LOG][Proc: 0]Uy: solve: 190.766 [ms]
[OGL LOG][Proc: 0]Uy: copy_x_back: 1.16 [ms]
[OGL LOG][lduLduBase.H:336] 
Statistics:
	Time per iteration: 3668 [mu s]
	Time per residual norm calculation: 233.000000 [mu s]
	Time per iteration and DOF: 0.581563 [ns]
	Retrieve results bandwidth 1.797000 [GByte/s]
[OGL LOG][Proc: 0]Uy: solve_multi_gpu: 251.561 [ms]
BJhipGKOBiCGStab:  Solving for Uy, Initial residual = 0.999999999999999, Final residual = 0.06026016342900407, No Iterations 52
[OGL LOG][lduLduBase.H:119] Initialising OGL
	OGL commit:  4647ee1+
	Branch: PersistentDeviceIdGuard 
	Build type: Release
	Ginkgo version: 1.5.0 ( develop)
	Ginkgo commit: 4292ffdee
	MPI is GPU aware: 1
	Forces host buffer based communication: 0
	CPU ranks per GPU: 1
	Matrix format: Coo
	End OGL_INFO
[OGL LOG][Proc: 0]: global_index_init: 2.211 [ms]
[OGL LOG][Proc: 0]Uz_local_cols: call_init: 0.006 [ms]
[OGL LOG][Proc: 0]Uz_local_rows: call_init: 0.003 [ms]
[OGL LOG][Proc: 0]Uz_local_ldu_map: call_init: 0.003 [ms]
[OGL LOG][Proc: 0]Uz_local_coeffs: call_init: 0.003 [ms]
[OGL LOG][Proc: 0]Uz_non_local_cols: call_init: 0.003 [ms]
[OGL LOG][Proc: 0]Uz_non_local_rows: call_init: 0.003 [ms]
[OGL LOG][Proc: 0]Uz_non_local_ldu_map: call_init: 0.002 [ms]
[OGL LOG][Proc: 0]Uz_non_local_coeffs: call_init: 0.002 [ms]
[OGL LOG][Proc: 0]Uz: init_local_sparsity_pattern: 63.624 [ms]
[OGL LOG][Proc: 0]Uz: init_non_local_sparsity_pattern: 0.983 [ms]
[OGL LOG][Proc: 0]Uz: update_local_matrix_data: 7.26 [ms]
[OGL LOG][Proc: 0]Uz: update_non_local_matrix_data: 0.142 [ms]
[OGL LOG][Proc: 0]Uz_matrix: call_init: 64.381 [ms]
[OGL LOG][Proc: 0]Uz_rhs: call_init: 17.772 [ms]
[OGL LOG][Proc: 0]Uz_solution: call_init: 0.753 [ms]
[OGL LOG][Preconditioner.H:121] Generate preconditioner BJ MaxBlockSize 1
[OGL LOG][Proc: 0]Uz: init_precond: 0.329 [ms]
[OGL LOG][StoppingCriterion.H:373] Creating stopping criterion with minIter 0 frequency 1
[OGL LOG][Proc: 0]Uz: generate_solver: 0 [ms]
[OGL LOG][Proc: 0]Uz: solve: 47.86 [ms]
[OGL LOG][Proc: 0]Uz: copy_x_back: 1.119 [ms]
[OGL LOG][lduLduBase.H:336] 
Statistics:
	Time per iteration: 47860 [mu s]
	Time per residual norm calculation: 288.000000 [mu s]
	Time per iteration and DOF: 7.588230 [ns]
	Retrieve results bandwidth 1.863000 [GByte/s]
[OGL LOG][Proc: 0]Uz: solve_multi_gpu: 132.895 [ms]
BJhipGKOBiCGStab:  Solving for Uz, Initial residual = 1.000000000000014, Final residual = 0.09952964467305336, No Iterations 1
[INFO] MomentumPredictor: 2931.403 [ms]
[INFO] MatrixAssemblyPI: 82.764 [ms]
[INFO] MatrixAssemblyPII: 36.864 [ms]
GAMG:  Solving for p, Initial residual = 1, Final residual = 0.009084428584051398, No Iterations 32
[INFO] SolveP: 1470.208 [ms]
time step continuity errors : sum local = 0.003335666049819846, global = 2.637425472043534e-05, cumulative = 2.637425472043534e-05
[INFO] postSolveP: 18.668 [ms]
[OGL LOG][lduLduBase.H:119] Initialising OGL
	OGL commit:  4647ee1+
	Branch: PersistentDeviceIdGuard 
	Build type: Release
	Ginkgo version: 1.5.0 ( develop)
	Ginkgo commit: 4292ffdee
	MPI is GPU aware: 1
	Forces host buffer based communication: 0
	CPU ranks per GPU: 1
	Matrix format: Coo
	End OGL_INFO
[OGL LOG][Proc: 0]: global_index_init: 5.972 [ms]
[OGL LOG][Proc: 0]nuTilda_local_cols: call_init: 0.008 [ms]
[OGL LOG][Proc: 0]nuTilda_local_rows: call_init: 0.004 [ms]
[OGL LOG][Proc: 0]nuTilda_local_ldu_map: call_init: 0.003 [ms]
[OGL LOG][Proc: 0]nuTilda_local_coeffs: call_init: 0.016 [ms]
[OGL LOG][Proc: 0]nuTilda_non_local_cols: call_init: 0.003 [ms]
[OGL LOG][Proc: 0]nuTilda_non_local_rows: call_init: 0.002 [ms]
[OGL LOG][Proc: 0]nuTilda_non_local_ldu_map: call_init: 0.003 [ms]
[OGL LOG][Proc: 0]nuTilda_non_local_coeffs: call_init: 0.003 [ms]
[OGL LOG][Proc: 0]nuTilda: init_local_sparsity_pattern: 75.98999999999999 [ms]
[OGL LOG][Proc: 0]nuTilda: init_non_local_sparsity_pattern: 1.016 [ms]
[OGL LOG][Proc: 0]nuTilda: update_local_matrix_data: 8.073 [ms]
[OGL LOG][Proc: 0]nuTilda: update_non_local_matrix_data: 0.095 [ms]
[OGL LOG][Proc: 0]nuTilda_matrix: call_init: 51.576 [ms]
[OGL LOG][Proc: 0]nuTilda_rhs: call_init: 6.618 [ms]
[OGL LOG][Proc: 0]nuTilda_solution: call_init: 0.9370000000000001 [ms]
[OGL LOG][Preconditioner.H:121] Generate preconditioner BJ MaxBlockSize 1
[OGL LOG][Proc: 0]nuTilda: init_precond: 0.317 [ms]
[OGL LOG][StoppingCriterion.H:373] Creating stopping criterion with minIter 0 frequency 1
[OGL LOG][Proc: 0]nuTilda: generate_solver: 0.001 [ms]
[OGL LOG][Proc: 0]nuTilda: solve: 61.199 [ms]
[OGL LOG][Proc: 0]nuTilda: copy_x_back: 1.041 [ms]
[OGL LOG][lduLduBase.H:336] 
Statistics:
	Time per iteration: 30599 [mu s]
	Time per residual norm calculation: 239.000000 [mu s]
	Time per iteration and DOF: 4.851489 [ns]
	Retrieve results bandwidth 2.003000 [GByte/s]
[OGL LOG][Proc: 0]nuTilda: solve_multi_gpu: 122.21 [ms]
BJhipGKOBiCGStab:  Solving for nuTilda, Initial residual = 0.9999999999983791, Final residual = 0.09393210185727259, No Iterations 2
[INFO] TimeStep: 5470.048 [ms]
ExecutionTime = 11.92 s  ClockTime = 12 s

--> FOAM Warning : 
    From virtual bool Foam::functionObjects::fieldSelection::checkSelection()
    in file functionObjects/fieldSelections/fieldSelection/fieldSelection.C at line 166
    Field k not found
--> FOAM Warning : 
    From virtual bool Foam::functionObjects::fieldSelection::checkSelection()
    in file functionObjects/fieldSelections/fieldSelection/fieldSelection.C at line 166
    Field gammaInt not found
--> FOAM Warning : 
    From virtual bool Foam::functionObjects::fieldSelection::checkSelection()
    in file functionObjects/fieldSelections/fieldSelection/fieldSelection.C at line 166
    Field omega not found
--> FOAM Warning : 
    From virtual bool Foam::functionObjects::fieldSelection::checkSelection()
    in file functionObjects/fieldSelections/fieldSelection/fieldSelection.C at line 166
    Field ReThetat not found
--> FOAM Warning : 
    From virtual bool Foam::functionObjects::fieldSelection::checkSelection()
    in file functionObjects/fieldSelections/fieldSelection/fieldSelection.C at line 166
    Field epsilon not found
--> FOAM Warning : 
    From virtual bool Foam::functionObjects::solverFieldSelection::updateSelection()
    in file functionObjects/fieldSelections/solverFieldSelection/solverFieldSelection.C at line 85
    Valid solver fields are: 3(U nuTilda p)Time = 2

velocityDampingConstraint velocityDamping damped 0 (0%) of cells, with max limit 300
[INFO] MatrixAssemblyU: 440.658 [ms]
[OGL LOG][Proc: 0]: global_index_init: 0.9370000000000001 [ms]
[OGL LOG][Proc: 0]Ux_local_coeffs: call_update: 0.001 [ms]
[OGL LOG][Proc: 0]Ux_non_local_coeffs: call_update: 0 [ms]
[OGL LOG][Proc: 0]Ux: update_local_matrix_data: 10.055 [ms]
[OGL LOG][Proc: 0]Ux: update_non_local_matrix_data: 0.109 [ms]
[OGL LOG][Proc: 0]Ux_matrix: call_update: 3.915 [ms]
[OGL LOG][Proc: 0]Ux_rhs: call_update: 1.321 [ms]
[OGL LOG][Preconditioner.H:121] Generate preconditioner BJ MaxBlockSize 1
[OGL LOG][Proc: 0]Ux: init_precond: 0.342 [ms]
[OGL LOG][StoppingCriterion.H:373] Creating stopping criterion with minIter 28 frequency 1
[OGL LOG][Proc: 0]Ux: generate_solver: 0.001 [ms]
[OGL LOG][Proc: 0]Ux: solve: 59.317 [ms]
[OGL LOG][Proc: 0]Ux: copy_x_back: 1.077 [ms]
[OGL LOG][lduLduBase.H:336] 
Statistics:
	Time per iteration: 4236 [mu s]
	Time per residual norm calculation: 235.000000 [mu s]
	Time per iteration and DOF: 0.671620 [ns]
	Retrieve results bandwidth 1.936000 [GByte/s]
[OGL LOG][Proc: 0]Ux: solve_multi_gpu: 66.467 [ms]
BJhipGKOBiCGStab:  Solving for Ux, Initial residual = 0.603256620651654, Final residual = 0.03938588878015914, No Iterations 14
[OGL LOG][Proc: 0]: global_index_init: 0.356 [ms]
[OGL LOG][Proc: 0]Uy_local_coeffs: call_update: 0 [ms]
[OGL LOG][Proc: 0]Uy_non_local_coeffs: call_update: 0 [ms]
[OGL LOG][Proc: 0]Uy: update_local_matrix_data: 9.759 [ms]
[OGL LOG][Proc: 0]Uy: update_non_local_matrix_data: 0.08700000000000001 [ms]
[OGL LOG][Proc: 0]Uy_matrix: call_update: 3.467 [ms]
[OGL LOG][Proc: 0]Uy_rhs: call_update: 1.613 [ms]
[OGL LOG][Preconditioner.H:121] Generate preconditioner BJ MaxBlockSize 1
[OGL LOG][Proc: 0]Uy: init_precond: 0.254 [ms]
[OGL LOG][StoppingCriterion.H:373] Creating stopping criterion with minIter 62 frequency 1
[OGL LOG][Proc: 0]Uy: generate_solver: 0 [ms]
[OGL LOG][Proc: 0]Uy: solve: 94.685 [ms]
[OGL LOG][Proc: 0]Uy: copy_x_back: 1.058 [ms]
[OGL LOG][lduLduBase.H:336] 
Statistics:
	Time per iteration: 3054 [mu s]
	Time per residual norm calculation: 239.000000 [mu s]
	Time per iteration and DOF: 0.484213 [ns]
	Retrieve results bandwidth 1.971000 [GByte/s]
[OGL LOG][Proc: 0]Uy: solve_multi_gpu: 101.563 [ms]
BJhipGKOBiCGStab:  Solving for Uy, Initial residual = 0.9969979206250155, Final residual = 0.001419834600525042, No Iterations 31
[OGL LOG][Proc: 0]: global_index_init: 0.5620000000000001 [ms]
[OGL LOG][Proc: 0]Uz_local_coeffs: call_update: 0 [ms]
[OGL LOG][Proc: 0]Uz_non_local_coeffs: call_update: 0 [ms]
[OGL LOG][Proc: 0]Uz: update_local_matrix_data: 9.803000000000001 [ms]
[OGL LOG][Proc: 0]Uz: update_non_local_matrix_data: 0.074 [ms]
[OGL LOG][Proc: 0]Uz_matrix: call_update: 2.577 [ms]
[OGL LOG][Proc: 0]Uz_rhs: call_update: 2.799 [ms]
[OGL LOG][Preconditioner.H:121] Generate preconditioner BJ MaxBlockSize 1
[OGL LOG][Proc: 0]Uz: init_precond: 0.28 [ms]
[OGL LOG][StoppingCriterion.H:373] Creating stopping criterion with minIter 1 frequency 1
[OGL LOG][Proc: 0]Uz: generate_solver: 0 [ms]
[OGL LOG][Proc: 0]Uz: solve: 50.208 [ms]
[OGL LOG][Proc: 0]Uz: copy_x_back: 1.009 [ms]
[OGL LOG][lduLduBase.H:336] 
Statistics:
	Time per iteration: 4564 [mu s]
	Time per residual norm calculation: 234.000000 [mu s]
	Time per iteration and DOF: 0.723625 [ns]
	Retrieve results bandwidth 2.066000 [GByte/s]
[OGL LOG][Proc: 0]Uz: solve_multi_gpu: 58.898 [ms]
BJhipGKOBiCGStab:  Solving for Uz, Initial residual = 0.9999637089106255, Final residual = 0.07573683650463527, No Iterations 11
[INFO] MomentumPredictor: 296.672 [ms]
[INFO] MatrixAssemblyPI: 80.81399999999999 [ms]
[INFO] MatrixAssemblyPII: 36.407 [ms]
GAMG:  Solving for p, Initial residual = 0.2208315499627377, Final residual = 0.001306922493638507, No Iterations 19
[INFO] SolveP: 806.562 [ms]
time step continuity errors : sum local = 0.02692313580818609, global = -0.0001161659893473282, cumulative = -8.979173462689287e-05
[INFO] postSolveP: 19.602 [ms]
[OGL LOG][Proc: 0]: global_index_init: 3.693 [ms]
[OGL LOG][Proc: 0]nuTilda_local_coeffs: call_update: 0 [ms]
[OGL LOG][Proc: 0]nuTilda_non_local_coeffs: call_update: 0 [ms]
[OGL LOG][Proc: 0]nuTilda: update_local_matrix_data: 10.324 [ms]
[OGL LOG][Proc: 0]nuTilda: update_non_local_matrix_data: 0.116 [ms]
[OGL LOG][Proc: 0]nuTilda_matrix: call_update: 2.959 [ms]
[OGL LOG][Proc: 0]nuTilda_rhs: call_update: 3.501 [ms]
[OGL LOG][Preconditioner.H:121] Generate preconditioner BJ MaxBlockSize 1
[OGL LOG][Proc: 0]nuTilda: init_precond: 0.31 [ms]
[OGL LOG][StoppingCriterion.H:373] Creating stopping criterion with minIter 3 frequency 1
[OGL LOG][Proc: 0]nuTilda: generate_solver: 0.001 [ms]
[OGL LOG][Proc: 0]nuTilda: solve: 27.606 [ms]
[OGL LOG][Proc: 0]nuTilda: copy_x_back: 1.087 [ms]
[OGL LOG][lduLduBase.H:336] 
Statistics:
	Time per iteration: 13803 [mu s]
	Time per residual norm calculation: 237.000000 [mu s]
	Time per iteration and DOF: 2.188474 [ns]
	Retrieve results bandwidth 1.918000 [GByte/s]
[OGL LOG][Proc: 0]nuTilda: solve_multi_gpu: 35.973 [ms]
BJhipGKOBiCGStab:  Solving for nuTilda, Initial residual = 0.4031389629816646, Final residual = 0.006116193028467378, No Iterations 2
[INFO] TimeStep: 1971.964 [ms]
ExecutionTime = 14.24 s  ClockTime = 14 s

Time = 3

velocityDampingConstraint velocityDamping damped 894 (0.01%) of cells, with max limit 300
[INFO] MatrixAssemblyU: 443.203 [ms]
[OGL LOG][Proc: 0]: global_index_init: 1.014 [ms]
[OGL LOG][Proc: 0]Ux_local_coeffs: call_update: 0 [ms]
[OGL LOG][Proc: 0]Ux_non_local_coeffs: call_update: 0 [ms]
[OGL LOG][Proc: 0]Ux: update_local_matrix_data: 10.463 [ms]
[OGL LOG][Proc: 0]Ux: update_non_local_matrix_data: 0.083 [ms]
[OGL LOG][Proc: 0]Ux_matrix: call_update: 3.04 [ms]
[OGL LOG][Proc: 0]Ux_rhs: call_update: 2.286 [ms]
[OGL LOG][Preconditioner.H:121] Generate preconditioner BJ MaxBlockSize 1
[OGL LOG][Proc: 0]Ux: init_precond: 0.301 [ms]
[OGL LOG][StoppingCriterion.H:373] Creating stopping criterion with minIter 17 frequency 1
[OGL LOG][Proc: 0]Ux: generate_solver: 0.001 [ms]
[OGL LOG][Proc: 0]Ux: solve: 55.386 [ms]
[OGL LOG][Proc: 0]Ux: copy_x_back: 1.071 [ms]
[OGL LOG][lduLduBase.H:336] 
Statistics:
	Time per iteration: 3956 [mu s]
	Time per residual norm calculation: 236.000000 [mu s]
	Time per iteration and DOF: 0.627226 [ns]
	Retrieve results bandwidth 1.947000 [GByte/s]
[OGL LOG][Proc: 0]Ux: solve_multi_gpu: 62.584 [ms]
BJhipGKOBiCGStab:  Solving for Ux, Initial residual = 0.1297223362342921, Final residual = 0.00628974570086102, No Iterations 14
[OGL LOG][Proc: 0]: global_index_init: 0.425 [ms]
[OGL LOG][Proc: 0]Uy_local_coeffs: call_update: 0 [ms]
[OGL LOG][Proc: 0]Uy_non_local_coeffs: call_update: 0 [ms]
[OGL LOG][Proc: 0]Uy: update_local_matrix_data: 11.622 [ms]
[OGL LOG][Proc: 0]Uy: update_non_local_matrix_data: 0.08400000000000001 [ms]
[OGL LOG][Proc: 0]Uy_matrix: call_update: 2.763 [ms]
[OGL LOG][Proc: 0]Uy_rhs: call_update: 5.859 [ms]
[OGL LOG][Preconditioner.H:121] Generate preconditioner BJ MaxBlockSize 1
[OGL LOG][Proc: 0]Uy: init_precond: 0.263 [ms]
[OGL LOG][StoppingCriterion.H:373] Creating stopping criterion with minIter 37 frequency 1
[OGL LOG][Proc: 0]Uy: generate_solver: 0 [ms]
[OGL LOG][Proc: 0]Uy: solve: 117.515 [ms]
[OGL LOG][Proc: 0]Uy: copy_x_back: 1.019 [ms]
[OGL LOG][lduLduBase.H:336] 
Statistics:
	Time per iteration: 6185 [mu s]
	Time per residual norm calculation: 386.000000 [mu s]
	Time per iteration and DOF: 0.980635 [ns]
	Retrieve results bandwidth 2.046000 [GByte/s]
[OGL LOG][Proc: 0]Uy: solve_multi_gpu: 127.888 [ms]
BJhipGKOBiCGStab:  Solving for Uy, Initial residual = 0.2977498176351179, Final residual = 0.02942815583016865, No Iterations 19
[OGL LOG][Proc: 0]: global_index_init: 0.465 [ms]
[OGL LOG][Proc: 0]Uz_local_coeffs: call_update: 0 [ms]
[OGL LOG][Proc: 0]Uz_non_local_coeffs: call_update: 0 [ms]
[OGL LOG][Proc: 0]Uz: update_local_matrix_data: 12.827 [ms]
[OGL LOG][Proc: 0]Uz: update_non_local_matrix_data: 0.08700000000000001 [ms]
[OGL LOG][Proc: 0]Uz_matrix: call_update: 2.554 [ms]
[OGL LOG][Proc: 0]Uz_rhs: call_update: 4.089 [ms]
[OGL LOG][Preconditioner.H:121] Generate preconditioner BJ MaxBlockSize 1
[OGL LOG][Proc: 0]Uz: init_precond: 0.208 [ms]
[OGL LOG][StoppingCriterion.H:373] Creating stopping criterion with minIter 13 frequency 1
[OGL LOG][Proc: 0]Uz: generate_solver: 0.002 [ms]
[OGL LOG][Proc: 0]Uz: solve: 114.654 [ms]
[OGL LOG][Proc: 0]Uz: copy_x_back: 1.094 [ms]
[OGL LOG][lduLduBase.H:336] 
Statistics:
	Time per iteration: 9554 [mu s]
	Time per residual norm calculation: 231.000000 [mu s]
	Time per iteration and DOF: 1.514792 [ns]
	Retrieve results bandwidth 1.906000 [GByte/s]
[OGL LOG][Proc: 0]Uz: solve_multi_gpu: 123.067 [ms]
BJhipGKOBiCGStab:  Solving for Uz, Initial residual = 0.277984756662728, Final residual = 0.02349084226022547, No Iterations 12
[INFO] MomentumPredictor: 388.552 [ms]
[INFO] MatrixAssemblyPI: 78.005 [ms]
[INFO] MatrixAssemblyPII: 38.553 [ms]
GAMG:  Solving for p, Initial residual = 0.1970896214753845, Final residual = 0.001609278715475393, No Iterations 12
[INFO] SolveP: 499.423 [ms]
time step continuity errors : sum local = 0.01898304644315405, global = 8.903699970462626e-05, cumulative = -7.547349222666112e-07
[INFO] postSolveP: 19.527 [ms]
[OGL LOG][Proc: 0]: global_index_init: 4.075 [ms]
[OGL LOG][Proc: 0]nuTilda_local_coeffs: call_update: 0 [ms]
[OGL LOG][Proc: 0]nuTilda_non_local_coeffs: call_update: 0 [ms]
[OGL LOG][Proc: 0]nuTilda: update_local_matrix_data: 10.746 [ms]
[OGL LOG][Proc: 0]nuTilda: update_non_local_matrix_data: 0.08400000000000001 [ms]
[OGL LOG][Proc: 0]nuTilda_matrix: call_update: 2.465 [ms]
[OGL LOG][Proc: 0]nuTilda_rhs: call_update: 1.758 [ms]
[OGL LOG][Preconditioner.H:121] Generate preconditioner BJ MaxBlockSize 1
[OGL LOG][Proc: 0]nuTilda: init_precond: 0.264 [ms]
[OGL LOG][StoppingCriterion.H:373] Creating stopping criterion with minIter 2 frequency 1
[OGL LOG][Proc: 0]nuTilda: generate_solver: 0.001 [ms]
[OGL LOG][Proc: 0]nuTilda: solve: 28.861 [ms]
[OGL LOG][Proc: 0]nuTilda: copy_x_back: 1.036 [ms]
[OGL LOG][lduLduBase.H:336] 
Statistics:
	Time per iteration: 14430 [mu s]
	Time per residual norm calculation: 233.000000 [mu s]
	Time per iteration and DOF: 2.287885 [ns]
	Retrieve results bandwidth 2.012000 [GByte/s]
[OGL LOG][Proc: 0]nuTilda: solve_multi_gpu: 34.903 [ms]
BJhipGKOBiCGStab:  Solving for nuTilda, Initial residual = 0.1873092452893962, Final residual = 0.01690096839258253, No Iterations 2
[INFO] TimeStep: 1759.302 [ms]
ExecutionTime = 16.35 s  ClockTime = 16 s

Time = 4

velocityDampingConstraint velocityDamping damped 99 (0%) of cells, with max limit 300
[INFO] MatrixAssemblyU: 467.344 [ms]
[OGL LOG][Proc: 0]: global_index_init: 4.602 [ms]
[OGL LOG][Proc: 0]Ux_local_coeffs: call_update: 0 [ms]
[OGL LOG][Proc: 0]Ux_non_local_coeffs: call_update: 0 [ms]
[OGL LOG][Proc: 0]Ux: update_local_matrix_data: 10.491 [ms]
[OGL LOG][Proc: 0]Ux: update_non_local_matrix_data: 0.08 [ms]
[OGL LOG][Proc: 0]Ux_matrix: call_update: 5.394 [ms]
[OGL LOG][Proc: 0]Ux_rhs: call_update: 0.539 [ms]
[OGL LOG][Preconditioner.H:121] Generate preconditioner BJ MaxBlockSize 1
[OGL LOG][Proc: 0]Ux: init_precond: 0.273 [ms]
[OGL LOG][StoppingCriterion.H:373] Creating stopping criterion with minIter 16 frequency 1
[OGL LOG][Proc: 0]Ux: generate_solver: 0.001 [ms]
[OGL LOG][Proc: 0]Ux: solve: 45.076 [ms]
[OGL LOG][Proc: 0]Ux: copy_x_back: 1.071 [ms]
[OGL LOG][lduLduBase.H:336] 
Statistics:
	Time per iteration: 5008 [mu s]
	Time per residual norm calculation: 241.000000 [mu s]
	Time per iteration and DOF: 0.794021 [ns]
	Retrieve results bandwidth 1.947000 [GByte/s]
[OGL LOG][Proc: 0]Ux: solve_multi_gpu: 52.819 [ms]
BJhipGKOBiCGStab:  Solving for Ux, Initial residual = 0.1734539912209813, Final residual = 0.0146711876791721, No Iterations 9
[OGL LOG][Proc: 0]: global_index_init: 0.325 [ms]
[OGL LOG][Proc: 0]Uy_local_coeffs: call_update: 0 [ms]
[OGL LOG][Proc: 0]Uy_non_local_coeffs: call_update: 0 [ms]
[OGL LOG][Proc: 0]Uy: update_local_matrix_data: 9.742000000000001 [ms]
[OGL LOG][Proc: 0]Uy: update_non_local_matrix_data: 0.097 [ms]
[OGL LOG][Proc: 0]Uy_matrix: call_update: 3.093 [ms]
[OGL LOG][Proc: 0]Uy_rhs: call_update: 1.977 [ms]
[OGL LOG][Preconditioner.H:121] Generate preconditioner BJ MaxBlockSize 1
[OGL LOG][Proc: 0]Uy: init_precond: 0.3 [ms]
[OGL LOG][StoppingCriterion.H:373] Creating stopping criterion with minIter 22 frequency 1
[OGL LOG][Proc: 0]Uy: generate_solver: 0.001 [ms]
[OGL LOG][Proc: 0]Uy: solve: 76.235 [ms]
[OGL LOG][Proc: 0]Uy: copy_x_back: 1.07 [ms]
[OGL LOG][lduLduBase.H:336] 
Statistics:
	Time per iteration: 6352 [mu s]
	Time per residual norm calculation: 226.000000 [mu s]
	Time per iteration and DOF: 1.007113 [ns]
	Retrieve results bandwidth 1.948000 [GByte/s]
[OGL LOG][Proc: 0]Uy: solve_multi_gpu: 83.145 [ms]
BJhipGKOBiCGStab:  Solving for Uy, Initial residual = 0.1917394465380777, Final residual = 0.01655931675858702, No Iterations 12
[OGL LOG][Proc: 0]: global_index_init: 0.645 [ms]
[OGL LOG][Proc: 0]Uz_local_coeffs: call_update: 0 [ms]
[OGL LOG][Proc: 0]Uz_non_local_coeffs: call_update: 0 [ms]
[OGL LOG][Proc: 0]Uz: update_local_matrix_data: 9.734 [ms]
[OGL LOG][Proc: 0]Uz: update_non_local_matrix_data: 0.079 [ms]
[OGL LOG][Proc: 0]Uz_matrix: call_update: 2.765 [ms]
[OGL LOG][Proc: 0]Uz_rhs: call_update: 2.393 [ms]
[OGL LOG][Preconditioner.H:121] Generate preconditioner BJ MaxBlockSize 1
[OGL LOG][Proc: 0]Uz: init_precond: 0.264 [ms]
[OGL LOG][StoppingCriterion.H:373] Creating stopping criterion with minIter 14 frequency 1
[OGL LOG][Proc: 0]Uz: generate_solver: 0 [ms]
[OGL LOG][Proc: 0]Uz: solve: 46.111 [ms]
[OGL LOG][Proc: 0]Uz: copy_x_back: 1.088 [ms]
[OGL LOG][lduLduBase.H:336] 
Statistics:
	Time per iteration: 4611 [mu s]
	Time per residual norm calculation: 227.000000 [mu s]
	Time per iteration and DOF: 0.731077 [ns]
	Retrieve results bandwidth 1.916000 [GByte/s]
[OGL LOG][Proc: 0]Uz: solve_multi_gpu: 53.092 [ms]
BJhipGKOBiCGStab:  Solving for Uz, Initial residual = 0.2163194539977557, Final residual = 0.02002553941430511, No Iterations 10
[INFO] MomentumPredictor: 261.45 [ms]
[INFO] MatrixAssemblyPI: 79.2 [ms]
[INFO] MatrixAssemblyPII: 36.658 [ms]
GAMG:  Solving for p, Initial residual = 0.1158949800051299, Final residual = 0.001037590398882062, No Iterations 11
[INFO] SolveP: 456.435 [ms]
time step continuity errors : sum local = 0.01367588116522974, global = -0.0006118133272973201, cumulative = -0.0006125680622195868
[INFO] postSolveP: 19.852 [ms]
[OGL LOG][Proc: 0]: global_index_init: 4.835 [ms]
[OGL LOG][Proc: 0]nuTilda_local_coeffs: call_update: 0 [ms]
[OGL LOG][Proc: 0]nuTilda_non_local_coeffs: call_update: 0 [ms]
[OGL LOG][Proc: 0]nuTilda: update_local_matrix_data: 10.42 [ms]
[OGL LOG][Proc: 0]nuTilda: update_non_local_matrix_data: 0.116 [ms]
[OGL LOG][Proc: 0]nuTilda_matrix: call_update: 2.98 [ms]
[OGL LOG][Proc: 0]nuTilda_rhs: call_update: 2.252 [ms]
[OGL LOG][Preconditioner.H:121] Generate preconditioner BJ MaxBlockSize 1
[OGL LOG][Proc: 0]nuTilda: init_precond: 0.256 [ms]
[OGL LOG][StoppingCriterion.H:373] Creating stopping criterion with minIter 2 frequency 1
[OGL LOG][Proc: 0]nuTilda: generate_solver: 0.001 [ms]
[OGL LOG][Proc: 0]nuTilda: solve: 29.103 [ms]
[OGL LOG][Proc: 0]nuTilda: copy_x_back: 1.093 [ms]
[OGL LOG][lduLduBase.H:336] 
Statistics:
	Time per iteration: 14551 [mu s]
	Time per residual norm calculation: 228.000000 [mu s]
	Time per iteration and DOF: 2.307069 [ns]
	Retrieve results bandwidth 1.907000 [GByte/s]
[OGL LOG][Proc: 0]nuTilda: solve_multi_gpu: 36.2 [ms]
BJhipGKOBiCGStab:  Solving for nuTilda, Initial residual = 0.1090650643136132, Final residual = 0.005275140996641401, No Iterations 2
[INFO] TimeStep: 1615.028 [ms]
ExecutionTime = 18.32 s  ClockTime = 18 s

Time = 5

velocityDampingConstraint velocityDamping damped 38 (0%) of cells, with max limit 300
[INFO] MatrixAssemblyU: 462.353 [ms]
[OGL LOG][Proc: 0]: global_index_init: 1.007 [ms]
[OGL LOG][Proc: 0]Ux_local_coeffs: call_update: 0 [ms]
[OGL LOG][Proc: 0]Ux_non_local_coeffs: call_update: 0 [ms]
[OGL LOG][Proc: 0]Ux: update_local_matrix_data: 10.331 [ms]
[OGL LOG][Proc: 0]Ux: update_non_local_matrix_data: 0.115 [ms]
[OGL LOG][Proc: 0]Ux_matrix: call_update: 2.634 [ms]
[OGL LOG][Proc: 0]Ux_rhs: call_update: 2.577 [ms]
[OGL LOG][Preconditioner.H:121] Generate preconditioner BJ MaxBlockSize 1
[OGL LOG][Proc: 0]Ux: init_precond: 0.346 [ms]
[OGL LOG][StoppingCriterion.H:373] Creating stopping criterion with minIter 10 frequency 1
[OGL LOG][Proc: 0]Ux: generate_solver: 0 [ms]
[OGL LOG][Proc: 0]Ux: solve: 72.83 [ms]
[OGL LOG][Proc: 0]Ux: copy_x_back: 1.122 [ms]
[OGL LOG][lduLduBase.H:336] 
Statistics:
	Time per iteration: 6069 [mu s]
	Time per residual norm calculation: 227.000000 [mu s]
	Time per iteration and DOF: 0.962243 [ns]
	Retrieve results bandwidth 1.858000 [GByte/s]
[OGL LOG][Proc: 0]Ux: solve_multi_gpu: 80.02800000000001 [ms]
BJhipGKOBiCGStab:  Solving for Ux, Initial residual = 0.06301606843990609, Final residual = 0.005894958285736738, No Iterations 12
[OGL LOG][Proc: 0]: global_index_init: 0.206 [ms]
[OGL LOG][Proc: 0]Uy_local_coeffs: call_update: 0 [ms]
[OGL LOG][Proc: 0]Uy_non_local_coeffs: call_update: 0 [ms]
[OGL LOG][Proc: 0]Uy: update_local_matrix_data: 9.833 [ms]
[OGL LOG][Proc: 0]Uy: update_non_local_matrix_data: 0.096 [ms]
[OGL LOG][Proc: 0]Uy_matrix: call_update: 3.567 [ms]
[OGL LOG][Proc: 0]Uy_rhs: call_update: 2.232 [ms]
[OGL LOG][Preconditioner.H:121] Generate preconditioner BJ MaxBlockSize 1
[OGL LOG][Proc: 0]Uy: init_precond: 0.265 [ms]
[OGL LOG][StoppingCriterion.H:373] Creating stopping criterion with minIter 15 frequency 1
[OGL LOG][Proc: 0]Uy: generate_solver: 0 [ms]
[OGL LOG][Proc: 0]Uy: solve: 49.512 [ms]
[OGL LOG][Proc: 0]Uy: copy_x_back: 1.037 [ms]
[OGL LOG][lduLduBase.H:336] 
Statistics:
	Time per iteration: 4501 [mu s]
	Time per residual norm calculation: 238.000000 [mu s]
	Time per iteration and DOF: 0.713636 [ns]
	Retrieve results bandwidth 2.010000 [GByte/s]
[OGL LOG][Proc: 0]Uy: solve_multi_gpu: 57.076 [ms]
BJhipGKOBiCGStab:  Solving for Uy, Initial residual = 0.1332634896316314, Final residual = 0.01023246555714473, No Iterations 11
[OGL LOG][Proc: 0]: global_index_init: 0.363 [ms]
[OGL LOG][Proc: 0]Uz_local_coeffs: call_update: 0 [ms]
[OGL LOG][Proc: 0]Uz_non_local_coeffs: call_update: 0 [ms]
[OGL LOG][Proc: 0]Uz: update_local_matrix_data: 9.825000000000001 [ms]
[OGL LOG][Proc: 0]Uz: update_non_local_matrix_data: 0.078 [ms]
[OGL LOG][Proc: 0]Uz_matrix: call_update: 3.264 [ms]
[OGL LOG][Proc: 0]Uz_rhs: call_update: 3.098 [ms]
[OGL LOG][Preconditioner.H:121] Generate preconditioner BJ MaxBlockSize 1
[OGL LOG][Proc: 0]Uz: init_precond: 0.259 [ms]
[OGL LOG][StoppingCriterion.H:373] Creating stopping criterion with minIter 12 frequency 1
[OGL LOG][Proc: 0]Uz: generate_solver: 0.001 [ms]
[OGL LOG][Proc: 0]Uz: solve: 48.173 [ms]
[OGL LOG][Proc: 0]Uz: copy_x_back: 1.086 [ms]
[OGL LOG][lduLduBase.H:336] 
Statistics:
	Time per iteration: 4817 [mu s]
	Time per residual norm calculation: 224.000000 [mu s]
	Time per iteration and DOF: 0.763738 [ns]
	Retrieve results bandwidth 1.920000 [GByte/s]
[OGL LOG][Proc: 0]Uz: solve_multi_gpu: 56.358 [ms]
BJhipGKOBiCGStab:  Solving for Uz, Initial residual = 0.1374249261612955, Final residual = 0.01300215731454914, No Iterations 10
[INFO] MomentumPredictor: 263.534 [ms]
[INFO] MatrixAssemblyPI: 79.95999999999999 [ms]
[INFO] MatrixAssemblyPII: 36.728 [ms]
GAMG:  Solving for p, Initial residual = 0.1029955719595529, Final residual = 0.0009203246375866225, No Iterations 14
[INFO] SolveP: 581.107 [ms]
time step continuity errors : sum local = 0.009794017655461564, global = -0.0002457453861111767, cumulative = -0.0008583134483307634
[INFO] postSolveP: 19.426 [ms]
[OGL LOG][Proc: 0]: global_index_init: 5.456 [ms]
[OGL LOG][Proc: 0]nuTilda_local_coeffs: call_update: 0 [ms]
[OGL LOG][Proc: 0]nuTilda_non_local_coeffs: call_update: 0 [ms]
[OGL LOG][Proc: 0]nuTilda: update_local_matrix_data: 10.653 [ms]
[OGL LOG][Proc: 0]nuTilda: update_non_local_matrix_data: 0.08 [ms]
[OGL LOG][Proc: 0]nuTilda_matrix: call_update: 2.666 [ms]
[OGL LOG][Proc: 0]nuTilda_rhs: call_update: 1.904 [ms]
[OGL LOG][Preconditioner.H:121] Generate preconditioner BJ MaxBlockSize 1
[OGL LOG][Proc: 0]nuTilda: init_precond: 0.347 [ms]
[OGL LOG][StoppingCriterion.H:373] Creating stopping criterion with minIter 3 frequency 1
[OGL LOG][Proc: 0]nuTilda: generate_solver: 0.001 [ms]
[OGL LOG][Proc: 0]nuTilda: solve: 27.869 [ms]
[OGL LOG][Proc: 0]nuTilda: copy_x_back: 1.039 [ms]
[OGL LOG][lduLduBase.H:336] 
Statistics:
	Time per iteration: 13934 [mu s]
	Time per residual norm calculation: 250.000000 [mu s]
	Time per iteration and DOF: 2.209244 [ns]
	Retrieve results bandwidth 2.007000 [GByte/s]
[OGL LOG][Proc: 0]nuTilda: solve_multi_gpu: 34.332 [ms]
BJhipGKOBiCGStab:  Solving for nuTilda, Initial residual = 0.05898269272092879, Final residual = 0.004919799082392508, No Iterations 2
[INFO] TimeStep: 1735.414 [ms]
ExecutionTime = 20.4 s  ClockTime = 20 s

Time = 6

velocityDampingConstraint velocityDamping damped 0 (0%) of cells, with max limit 300
[INFO] MatrixAssemblyU: 456.666 [ms]
[OGL LOG][Proc: 0]: global_index_init: 1.357 [ms]
[OGL LOG][Proc: 0]Ux_local_coeffs: call_update: 0 [ms]
[OGL LOG][Proc: 0]Ux_non_local_coeffs: call_update: 0 [ms]
[OGL LOG][Proc: 0]Ux: update_local_matrix_data: 10.427 [ms]
[OGL LOG][Proc: 0]Ux: update_non_local_matrix_data: 0.08700000000000001 [ms]
[OGL LOG][Proc: 0]Ux_matrix: call_update: 2.546 [ms]
[OGL LOG][Proc: 0]Ux_rhs: call_update: 2.529 [ms]
[OGL LOG][Preconditioner.H:121] Generate preconditioner BJ MaxBlockSize 1
[OGL LOG][Proc: 0]Ux: init_precond: 0.295 [ms]
[OGL LOG][StoppingCriterion.H:373] Creating stopping criterion with minIter 15 frequency 1
[OGL LOG][Proc: 0]Ux: generate_solver: 0 [ms]
[OGL LOG][Proc: 0]Ux: solve: 55.57 [ms]
[OGL LOG][Proc: 0]Ux: copy_x_back: 1.071 [ms]
[OGL LOG][lduLduBase.H:336] 
Statistics:
	Time per iteration: 4630 [mu s]
	Time per residual norm calculation: 234.000000 [mu s]
	Time per iteration and DOF: 0.734089 [ns]
	Retrieve results bandwidth 1.947000 [GByte/s]
[OGL LOG][Proc: 0]Ux: solve_multi_gpu: 62.509 [ms]
BJhipGKOBiCGStab:  Solving for Ux, Initial residual = 0.03863093298034975, Final residual = 0.002856507721202557, No Iterations 12
[OGL LOG][Proc: 0]: global_index_init: 0.267 [ms]
[OGL LOG][Proc: 0]Uy_local_coeffs: call_update: 0 [ms]
[OGL LOG][Proc: 0]Uy_non_local_coeffs: call_update: 0 [ms]
[OGL LOG][Proc: 0]Uy: update_local_matrix_data: 11.471 [ms]
[OGL LOG][Proc: 0]Uy: update_non_local_matrix_data: 0.079 [ms]
[OGL LOG][Proc: 0]Uy_matrix: call_update: 2.693 [ms]
[OGL LOG][Proc: 0]Uy_rhs: call_update: 3.645 [ms]
[OGL LOG][Preconditioner.H:121] Generate preconditioner BJ MaxBlockSize 1
[OGL LOG][Proc: 0]Uy: init_precond: 0.251 [ms]
[OGL LOG][StoppingCriterion.H:373] Creating stopping criterion with minIter 13 frequency 1
[OGL LOG][Proc: 0]Uy: generate_solver: 0.001 [ms]
[OGL LOG][Proc: 0]Uy: solve: 57.399 [ms]
[OGL LOG][Proc: 0]Uy: copy_x_back: 1.064 [ms]
[OGL LOG][lduLduBase.H:336] 
Statistics:
	Time per iteration: 4099 [mu s]
	Time per residual norm calculation: 229.000000 [mu s]
	Time per iteration and DOF: 0.649899 [ns]
	Retrieve results bandwidth 1.959000 [GByte/s]
[OGL LOG][Proc: 0]Uy: solve_multi_gpu: 65.535 [ms]
BJhipGKOBiCGStab:  Solving for Uy, Initial residual = 0.1085383796053236, Final residual = 0.005299821970807377, No Iterations 14
[OGL LOG][Proc: 0]: global_index_init: 0.357 [ms]
[OGL LOG][Proc: 0]Uz_local_coeffs: call_update: 0 [ms]
[OGL LOG][Proc: 0]Uz_non_local_coeffs: call_update: 0 [ms]
[OGL LOG][Proc: 0]Uz: update_local_matrix_data: 12.442 [ms]
[OGL LOG][Proc: 0]Uz: update_non_local_matrix_data: 0.081 [ms]
[OGL LOG][Proc: 0]Uz_matrix: call_update: 2.643 [ms]
[OGL LOG][Proc: 0]Uz_rhs: call_update: 1.054 [ms]
[OGL LOG][Preconditioner.H:121] Generate preconditioner BJ MaxBlockSize 1
[OGL LOG][Proc: 0]Uz: init_precond: 0.25 [ms]
[OGL LOG][StoppingCriterion.H:373] Creating stopping criterion with minIter 12 frequency 1
[OGL LOG][Proc: 0]Uz: generate_solver: 0.001 [ms]
[OGL LOG][Proc: 0]Uz: solve: 71.619 [ms]
[OGL LOG][Proc: 0]Uz: copy_x_back: 1.066 [ms]
[OGL LOG][lduLduBase.H:336] 
Statistics:
	Time per iteration: 5509 [mu s]
	Time per residual norm calculation: 234.000000 [mu s]
	Time per iteration and DOF: 0.873455 [ns]
	Retrieve results bandwidth 1.956000 [GByte/s]
[OGL LOG][Proc: 0]Uz: solve_multi_gpu: 77.116 [ms]
BJhipGKOBiCGStab:  Solving for Uz, Initial residual = 0.107061409936649, Final residual = 0.009827190102745889, No Iterations 13
[INFO] MomentumPredictor: 279.441 [ms]
[INFO] MatrixAssemblyPI: 80.176 [ms]
[INFO] MatrixAssemblyPII: 38.398 [ms]
GAMG:  Solving for p, Initial residual = 0.1047726131527536, Final residual = 0.0007544758022185348, No Iterations 11
[INFO] SolveP: 465.85 [ms]
time step continuity errors : sum local = 0.007064822379121162, global = -3.598624546205915e-05, cumulative = -0.0008942996937928225
[INFO] postSolveP: 19.289 [ms]
[OGL LOG][Proc: 0]: global_index_init: 5.372 [ms]
[OGL LOG][Proc: 0]nuTilda_local_coeffs: call_update: 0 [ms]
[OGL LOG][Proc: 0]nuTilda_non_local_coeffs: call_update: 0 [ms]
[OGL LOG][Proc: 0]nuTilda: update_local_matrix_data: 10.953 [ms]
[OGL LOG][Proc: 0]nuTilda: update_non_local_matrix_data: 0.099 [ms]
[OGL LOG][Proc: 0]nuTilda_matrix: call_update: 7.515000000000001 [ms]
[OGL LOG][Proc: 0]nuTilda_rhs: call_update: 0.468 [ms]
[OGL LOG][Preconditioner.H:121] Generate preconditioner BJ MaxBlockSize 1
[OGL LOG][Proc: 0]nuTilda: init_precond: 0.266 [ms]
[OGL LOG][StoppingCriterion.H:373] Creating stopping criterion with minIter 2 frequency 1
[OGL LOG][Proc: 0]nuTilda: generate_solver: 0 [ms]
[OGL LOG][Proc: 0]nuTilda: solve: 32.053 [ms]
[OGL LOG][Proc: 0]nuTilda: copy_x_back: 1.084 [ms]
[OGL LOG][lduLduBase.H:336] 
Statistics:
	Time per iteration: 16026 [mu s]
	Time per residual norm calculation: 229.000000 [mu s]
	Time per iteration and DOF: 2.540931 [ns]
	Retrieve results bandwidth 1.923000 [GByte/s]
[OGL LOG][Proc: 0]nuTilda: solve_multi_gpu: 41.906 [ms]
BJhipGKOBiCGStab:  Solving for nuTilda, Initial residual = 0.0596619961661515, Final residual = 0.003267525742436026, No Iterations 2
[INFO] TimeStep: 1638.216 [ms]
ExecutionTime = 22.4 s  ClockTime = 22 s

Time = 7

velocityDampingConstraint velocityDamping damped 1 (0%) of cells, with max limit 300
[INFO] MatrixAssemblyU: 457.739 [ms]
[OGL LOG][Proc: 0]: global_index_init: 0.9370000000000001 [ms]
[OGL LOG][Proc: 0]Ux_local_coeffs: call_update: 0 [ms]
[OGL LOG][Proc: 0]Ux_non_local_coeffs: call_update: 0 [ms]
[OGL LOG][Proc: 0]Ux: update_local_matrix_data: 10.3 [ms]
[OGL LOG][Proc: 0]Ux: update_non_local_matrix_data: 0.08500000000000001 [ms]
[OGL LOG][Proc: 0]Ux_matrix: call_update: 2.786 [ms]
[OGL LOG][Proc: 0]Ux_rhs: call_update: 1.598 [ms]
[OGL LOG][Preconditioner.H:121] Generate preconditioner BJ MaxBlockSize 1
[OGL LOG][Proc: 0]Ux: init_precond: 0.223 [ms]
[OGL LOG][StoppingCriterion.H:373] Creating stopping criterion with minIter 14 frequency 1
[OGL LOG][Proc: 0]Ux: generate_solver: 0.002 [ms]
[OGL LOG][Proc: 0]Ux: solve: 50.242 [ms]
[OGL LOG][Proc: 0]Ux: copy_x_back: 1.076 [ms]
[OGL LOG][lduLduBase.H:336] 
Statistics:
	Time per iteration: 4186 [mu s]
	Time per residual norm calculation: 228.000000 [mu s]
	Time per iteration and DOF: 0.663693 [ns]
	Retrieve results bandwidth 1.938000 [GByte/s]
[OGL LOG][Proc: 0]Ux: solve_multi_gpu: 56.422 [ms]
BJhipGKOBiCGStab:  Solving for Ux, Initial residual = 0.03623118840011882, Final residual = 0.00250491839501402, No Iterations 12
[OGL LOG][Proc: 0]: global_index_init: 0.267 [ms]
[OGL LOG][Proc: 0]Uy_local_coeffs: call_update: 0 [ms]
[OGL LOG][Proc: 0]Uy_non_local_coeffs: call_update: 0 [ms]
[OGL LOG][Proc: 0]Uy: update_local_matrix_data: 9.949 [ms]
[OGL LOG][Proc: 0]Uy: update_non_local_matrix_data: 0.08500000000000001 [ms]
[OGL LOG][Proc: 0]Uy_matrix: call_update: 2.764 [ms]
[OGL LOG][Proc: 0]Uy_rhs: call_update: 2.887 [ms]
[OGL LOG][Preconditioner.H:121] Generate preconditioner BJ MaxBlockSize 1
[OGL LOG][Proc: 0]Uy: init_precond: 0.258 [ms]
[OGL LOG][StoppingCriterion.H:373] Creating stopping criterion with minIter 16 frequency 1
[OGL LOG][Proc: 0]Uy: generate_solver: 0.001 [ms]
[OGL LOG][Proc: 0]Uy: solve: 47.917 [ms]
[OGL LOG][Proc: 0]Uy: copy_x_back: 1.045 [ms]
[OGL LOG][lduLduBase.H:336] 
Statistics:
	Time per iteration: 4356 [mu s]
	Time per residual norm calculation: 232.000000 [mu s]
	Time per iteration and DOF: 0.690646 [ns]
	Retrieve results bandwidth 1.995000 [GByte/s]
[OGL LOG][Proc: 0]Uy: solve_multi_gpu: 55.358 [ms]
BJhipGKOBiCGStab:  Solving for Uy, Initial residual = 0.08265443555956455, Final residual = 0.007714468585230167, No Iterations 11
[OGL LOG][Proc: 0]: global_index_init: 0.6870000000000001 [ms]
[OGL LOG][Proc: 0]Uz_local_coeffs: call_update: 0 [ms]
[OGL LOG][Proc: 0]Uz_non_local_coeffs: call_update: 0 [ms]
[OGL LOG][Proc: 0]Uz: update_local_matrix_data: 10.114 [ms]
[OGL LOG][Proc: 0]Uz: update_non_local_matrix_data: 0.08799999999999999 [ms]
[OGL LOG][Proc: 0]Uz_matrix: call_update: 3.013 [ms]
[OGL LOG][Proc: 0]Uz_rhs: call_update: 6.002 [ms]
[OGL LOG][Preconditioner.H:121] Generate preconditioner BJ MaxBlockSize 1
[OGL LOG][Proc: 0]Uz: init_precond: 0.318 [ms]
[OGL LOG][StoppingCriterion.H:373] Creating stopping criterion with minIter 15 frequency 1
[OGL LOG][Proc: 0]Uz: generate_solver: 0 [ms]
[OGL LOG][Proc: 0]Uz: solve: 60.44 [ms]
[OGL LOG][Proc: 0]Uz: copy_x_back: 1.068 [ms]
[OGL LOG][lduLduBase.H:336] 
Statistics:
	Time per iteration: 5494 [mu s]
	Time per residual norm calculation: 224.000000 [mu s]
	Time per iteration and DOF: 0.871077 [ns]
	Retrieve results bandwidth 1.952000 [GByte/s]
[OGL LOG][Proc: 0]Uz: solve_multi_gpu: 71.31100000000001 [ms]
BJhipGKOBiCGStab:  Solving for Uz, Initial residual = 0.08717958965870137, Final residual = 0.008340287022617425, No Iterations 11
[INFO] MomentumPredictor: 253.526 [ms]
[INFO] MatrixAssemblyPI: 78.372 [ms]
[INFO] MatrixAssemblyPII: 36.186 [ms]
GAMG:  Solving for p, Initial residual = 0.1016669502359648, Final residual = 0.0008748653623371703, No Iterations 9
[INFO] SolveP: 398.233 [ms]
time step continuity errors : sum local = 0.007976018043916643, global = 0.0002175598113563641, cumulative = -0.0006767398824364584
[INFO] postSolveP: 19.31 [ms]
[OGL LOG][Proc: 0]: global_index_init: 5.286 [ms]
[OGL LOG][Proc: 0]nuTilda_local_coeffs: call_update: 0 [ms]
[OGL LOG][Proc: 0]nuTilda_non_local_coeffs: call_update: 0 [ms]
[OGL LOG][Proc: 0]nuTilda: update_local_matrix_data: 10.407 [ms]
[OGL LOG][Proc: 0]nuTilda: update_non_local_matrix_data: 0.08 [ms]
[OGL LOG][Proc: 0]nuTilda_matrix: call_update: 2.839 [ms]
[OGL LOG][Proc: 0]nuTilda_rhs: call_update: 2.808 [ms]
[OGL LOG][Preconditioner.H:121] Generate preconditioner BJ MaxBlockSize 1
[OGL LOG][Proc: 0]nuTilda: init_precond: 0.259 [ms]
[OGL LOG][StoppingCriterion.H:373] Creating stopping criterion with minIter 3 frequency 1
[OGL LOG][Proc: 0]nuTilda: generate_solver: 0.001 [ms]
[OGL LOG][Proc: 0]nuTilda: solve: 27.876 [ms]
[OGL LOG][Proc: 0]nuTilda: copy_x_back: 1.076 [ms]
[OGL LOG][lduLduBase.H:336] 
Statistics:
	Time per iteration: 13938 [mu s]
	Time per residual norm calculation: 232.000000 [mu s]
	Time per iteration and DOF: 2.209878 [ns]
	Retrieve results bandwidth 1.938000 [GByte/s]
[OGL LOG][Proc: 0]nuTilda: solve_multi_gpu: 35.35 [ms]
BJhipGKOBiCGStab:  Solving for nuTilda, Initial residual = 0.0468847468080355, Final residual = 0.00408686893261642, No Iterations 2
[INFO] TimeStep: 1538.56 [ms]
ExecutionTime = 24.29 s  ClockTime = 24 s

Time = 8

velocityDampingConstraint velocityDamping damped 0 (0%) of cells, with max limit 300
[INFO] MatrixAssemblyU: 470.92 [ms]
[OGL LOG][Proc: 0]: global_index_init: 1.111 [ms]
[OGL LOG][Proc: 0]Ux_local_coeffs: call_update: 0 [ms]
[OGL LOG][Proc: 0]Ux_non_local_coeffs: call_update: 0 [ms]
[OGL LOG][Proc: 0]Ux: update_local_matrix_data: 10.332 [ms]
[OGL LOG][Proc: 0]Ux: update_non_local_matrix_data: 0.08700000000000001 [ms]
[OGL LOG][Proc: 0]Ux_matrix: call_update: 5.28 [ms]
[OGL LOG][Proc: 0]Ux_rhs: call_update: 0.704 [ms]
[OGL LOG][Preconditioner.H:121] Generate preconditioner BJ MaxBlockSize 1
[OGL LOG][Proc: 0]Ux: init_precond: 0.274 [ms]
[OGL LOG][StoppingCriterion.H:373] Creating stopping criterion with minIter 14 frequency 1
[OGL LOG][Proc: 0]Ux: generate_solver: 0.001 [ms]
[OGL LOG][Proc: 0]Ux: solve: 52.589 [ms]
[OGL LOG][Proc: 0]Ux: copy_x_back: 1.062 [ms]
[OGL LOG][lduLduBase.H:336] 
Statistics:
	Time per iteration: 4382 [mu s]
	Time per residual norm calculation: 228.000000 [mu s]
	Time per iteration and DOF: 0.694769 [ns]
	Retrieve results bandwidth 1.963000 [GByte/s]
[OGL LOG][Proc: 0]Ux: solve_multi_gpu: 60.391 [ms]
BJhipGKOBiCGStab:  Solving for Ux, Initial residual = 0.02571547210605808, Final residual = 0.002387150341411816, No Iterations 12
[OGL LOG][Proc: 0]: global_index_init: 0.415 [ms]
[OGL LOG][Proc: 0]Uy_local_coeffs: call_update: 0 [ms]
[OGL LOG][Proc: 0]Uy_non_local_coeffs: call_update: 0 [ms]
[OGL LOG][Proc: 0]Uy: update_local_matrix_data: 9.871 [ms]
[OGL LOG][Proc: 0]Uy: update_non_local_matrix_data: 0.083 [ms]
[OGL LOG][Proc: 0]Uy_matrix: call_update: 3.448 [ms]
[OGL LOG][Proc: 0]Uy_rhs: call_update: 1.844 [ms]
[OGL LOG][Preconditioner.H:121] Generate preconditioner BJ MaxBlockSize 1
[OGL LOG][Proc: 0]Uy: init_precond: 0.264 [ms]
[OGL LOG][StoppingCriterion.H:373] Creating stopping criterion with minIter 13 frequency 1
[OGL LOG][Proc: 0]Uy: generate_solver: 0.001 [ms]
[OGL LOG][Proc: 0]Uy: solve: 58.016 [ms]
[OGL LOG][Proc: 0]Uy: copy_x_back: 1.066 [ms]
[OGL LOG][lduLduBase.H:336] 
Statistics:
	Time per iteration: 6446 [mu s]
	Time per residual norm calculation: 235.000000 [mu s]
	Time per iteration and DOF: 1.022017 [ns]
	Retrieve results bandwidth 1.956000 [GByte/s]
[OGL LOG][Proc: 0]Uy: solve_multi_gpu: 65.13 [ms]
BJhipGKOBiCGStab:  Solving for Uy, Initial residual = 0.1459682154694213, Final residual = 0.0134328425706148, No Iterations 9
[OGL LOG][Proc: 0]: global_index_init: 0.5760000000000001 [ms]
[OGL LOG][Proc: 0]Uz_local_coeffs: call_update: 0 [ms]
[OGL LOG][Proc: 0]Uz_non_local_coeffs: call_update: 0 [ms]
[OGL LOG][Proc: 0]Uz: update_local_matrix_data: 10.115 [ms]
[OGL LOG][Proc: 0]Uz: update_non_local_matrix_data: 0.079 [ms]
[OGL LOG][Proc: 0]Uz_matrix: call_update: 2.53 [ms]
[OGL LOG][Proc: 0]Uz_rhs: call_update: 4.318000000000001 [ms]
[OGL LOG][Preconditioner.H:121] Generate preconditioner BJ MaxBlockSize 1
[OGL LOG][Proc: 0]Uz: init_precond: 0.283 [ms]
[OGL LOG][StoppingCriterion.H:373] Creating stopping criterion with minIter 13 frequency 1
[OGL LOG][Proc: 0]Uz: generate_solver: 0.001 [ms]
[OGL LOG][Proc: 0]Uz: solve: 50.198 [ms]
[OGL LOG][Proc: 0]Uz: copy_x_back: 1.054 [ms]
[OGL LOG][lduLduBase.H:336] 
Statistics:
	Time per iteration: 4563 [mu s]
	Time per residual norm calculation: 245.000000 [mu s]
	Time per iteration and DOF: 0.723466 [ns]
	Retrieve results bandwidth 1.978000 [GByte/s]
[OGL LOG][Proc: 0]Uz: solve_multi_gpu: 58.841 [ms]
BJhipGKOBiCGStab:  Solving for Uz, Initial residual = 0.06788972374251707, Final residual = 0.006385899380266426, No Iterations 11
[INFO] MomentumPredictor: 255.245 [ms]
[INFO] MatrixAssemblyPI: 80.285 [ms]
[INFO] MatrixAssemblyPII: 36.764 [ms]
GAMG:  Solving for p, Initial residual = 0.07853801250828797, Final residual = 0.0005769464606962918, No Iterations 9
[INFO] SolveP: 380.792 [ms]
time step continuity errors : sum local = 0.005343591090877772, global = 2.807841600808373e-05, cumulative = -0.0006486614664283747
[INFO] postSolveP: 19.499 [ms]
[OGL LOG][Proc: 0]: global_index_init: 5.858000000000001 [ms]
[OGL LOG][Proc: 0]nuTilda_local_coeffs: call_update: 0 [ms]
[OGL LOG][Proc: 0]nuTilda_non_local_coeffs: call_update: 0 [ms]
[OGL LOG][Proc: 0]nuTilda: update_local_matrix_data: 10.703 [ms]
[OGL LOG][Proc: 0]nuTilda: update_non_local_matrix_data: 0.091 [ms]
[OGL LOG][Proc: 0]nuTilda_matrix: call_update: 6 [ms]
[OGL LOG][Proc: 0]nuTilda_rhs: call_update: 0.646 [ms]
[OGL LOG][Preconditioner.H:121] Generate preconditioner BJ MaxBlockSize 1
[OGL LOG][Proc: 0]nuTilda: init_precond: 0.257 [ms]
[OGL LOG][StoppingCriterion.H:373] Creating stopping criterion with minIter 2 frequency 1
[OGL LOG][Proc: 0]nuTilda: generate_solver: 0.001 [ms]
[OGL LOG][Proc: 0]nuTilda: solve: 32.535 [ms]
[OGL LOG][Proc: 0]nuTilda: copy_x_back: 1.138 [ms]
[OGL LOG][lduLduBase.H:336] 
Statistics:
	Time per iteration: 16267 [mu s]
	Time per residual norm calculation: 226.000000 [mu s]
	Time per iteration and DOF: 2.579142 [ns]
	Retrieve results bandwidth 1.832000 [GByte/s]
[OGL LOG][Proc: 0]nuTilda: solve_multi_gpu: 41.086 [ms]
BJhipGKOBiCGStab:  Solving for nuTilda, Initial residual = 0.0592682771416085, Final residual = 0.002878562189261797, No Iterations 2
[INFO] TimeStep: 1542.735 [ms]
ExecutionTime = 26.18 s  ClockTime = 26 s

Time = 9

velocityDampingConstraint velocityDamping damped 0 (0%) of cells, with max limit 300
[INFO] MatrixAssemblyU: 455.486 [ms]
[OGL LOG][Proc: 0]: global_index_init: 1.112 [ms]
[OGL LOG][Proc: 0]Ux_local_coeffs: call_update: 0 [ms]
[OGL LOG][Proc: 0]Ux_non_local_coeffs: call_update: 0 [ms]
[OGL LOG][Proc: 0]Ux: update_local_matrix_data: 10.236 [ms]
[OGL LOG][Proc: 0]Ux: update_non_local_matrix_data: 0.083 [ms]
[OGL LOG][Proc: 0]Ux_matrix: call_update: 2.474 [ms]
[OGL LOG][Proc: 0]Ux_rhs: call_update: 2.981 [ms]
[OGL LOG][Preconditioner.H:121] Generate preconditioner BJ MaxBlockSize 1
[OGL LOG][Proc: 0]Ux: init_precond: 0.308 [ms]
[OGL LOG][StoppingCriterion.H:373] Creating stopping criterion with minIter 15 frequency 1
[OGL LOG][Proc: 0]Ux: generate_solver: 0.001 [ms]
[OGL LOG][Proc: 0]Ux: solve: 49.749 [ms]
[OGL LOG][Proc: 0]Ux: copy_x_back: 1.067 [ms]
[OGL LOG][lduLduBase.H:336] 
Statistics:
	Time per iteration: 4145 [mu s]
	Time per residual norm calculation: 226.000000 [mu s]
	Time per iteration and DOF: 0.657192 [ns]
	Retrieve results bandwidth 1.954000 [GByte/s]
[OGL LOG][Proc: 0]Ux: solve_multi_gpu: 57.072 [ms]
BJhipGKOBiCGStab:  Solving for Ux, Initial residual = 0.01834427918624918, Final residual = 0.001285575357297587, No Iterations 12
[OGL LOG][Proc: 0]: global_index_init: 0.397 [ms]
[OGL LOG][Proc: 0]Uy_local_coeffs: call_update: 0 [ms]
[OGL LOG][Proc: 0]Uy_non_local_coeffs: call_update: 0 [ms]
[OGL LOG][Proc: 0]Uy: update_local_matrix_data: 10.235 [ms]
[OGL LOG][Proc: 0]Uy: update_non_local_matrix_data: 0.083 [ms]
[OGL LOG][Proc: 0]Uy_matrix: call_update: 2.835 [ms]
[OGL LOG][Proc: 0]Uy_rhs: call_update: 2.447 [ms]
[OGL LOG][Preconditioner.H:121] Generate preconditioner BJ MaxBlockSize 1
[OGL LOG][Proc: 0]Uy: init_precond: 0.256 [ms]
[OGL LOG][StoppingCriterion.H:373] Creating stopping criterion with minIter 10 frequency 1
[OGL LOG][Proc: 0]Uy: generate_solver: 0.001 [ms]
[OGL LOG][Proc: 0]Uy: solve: 48.078 [ms]
[OGL LOG][Proc: 0]Uy: copy_x_back: 1.049 [ms]
[OGL LOG][lduLduBase.H:336] 
Statistics:
	Time per iteration: 4807 [mu s]
	Time per residual norm calculation: 222.000000 [mu s]
	Time per iteration and DOF: 0.762153 [ns]
	Retrieve results bandwidth 1.987000 [GByte/s]
[OGL LOG][Proc: 0]Uy: solve_multi_gpu: 55.127 [ms]
BJhipGKOBiCGStab:  Solving for Uy, Initial residual = 0.08862782848142579, Final residual = 0.008741199666390647, No Iterations 10
[OGL LOG][Proc: 0]: global_index_init: 0.199 [ms]
[OGL LOG][Proc: 0]Uz_local_coeffs: call_update: 0 [ms]
[OGL LOG][Proc: 0]Uz_non_local_coeffs: call_update: 0 [ms]
[OGL LOG][Proc: 0]Uz: update_local_matrix_data: 10.21 [ms]
[OGL LOG][Proc: 0]Uz: update_non_local_matrix_data: 0.079 [ms]
[OGL LOG][Proc: 0]Uz_matrix: call_update: 2.697 [ms]
[OGL LOG][Proc: 0]Uz_rhs: call_update: 2.661 [ms]
[OGL LOG][Preconditioner.H:121] Generate preconditioner BJ MaxBlockSize 1
[OGL LOG][Proc: 0]Uz: init_precond: 0.259 [ms]
[OGL LOG][StoppingCriterion.H:373] Creating stopping criterion with minIter 13 frequency 1
[OGL LOG][Proc: 0]Uz: generate_solver: 0.001 [ms]
[OGL LOG][Proc: 0]Uz: solve: 72.02800000000001 [ms]
[OGL LOG][Proc: 0]Uz: copy_x_back: 1.076 [ms]
[OGL LOG][lduLduBase.H:336] 
Statistics:
	Time per iteration: 6548 [mu s]
	Time per residual norm calculation: 221.000000 [mu s]
	Time per iteration and DOF: 1.038189 [ns]
	Retrieve results bandwidth 1.938000 [GByte/s]
[OGL LOG][Proc: 0]Uz: solve_multi_gpu: 79.2 [ms]
BJhipGKOBiCGStab:  Solving for Uz, Initial residual = 0.05184666706095265, Final residual = 0.004836728995610373, No Iterations 11
[INFO] MomentumPredictor: 262.15 [ms]
[INFO] MatrixAssemblyPI: 83.319 [ms]
[INFO] MatrixAssemblyPII: 36.826 [ms]
GAMG:  Solving for p, Initial residual = 0.06648681622220001, Final residual = 0.0006293762511668379, No Iterations 7
[INFO] SolveP: 314.67 [ms]
time step continuity errors : sum local = 0.005885586311678495, global = -0.0001218622475465418, cumulative = -0.0007705237139749165
[INFO] postSolveP: 20.052 [ms]
[OGL LOG][Proc: 0]: global_index_init: 4.304 [ms]
[OGL LOG][Proc: 0]nuTilda_local_coeffs: call_update: 0 [ms]
[OGL LOG][Proc: 0]nuTilda_non_local_coeffs: call_update: 0 [ms]
[OGL LOG][Proc: 0]nuTilda: update_local_matrix_data: 10.648 [ms]
[OGL LOG][Proc: 0]nuTilda: update_non_local_matrix_data: 0.08 [ms]
[OGL LOG][Proc: 0]nuTilda_matrix: call_update: 2.857 [ms]
[OGL LOG][Proc: 0]nuTilda_rhs: call_update: 1.97 [ms]
[OGL LOG][Preconditioner.H:121] Generate preconditioner BJ MaxBlockSize 1
[OGL LOG][Proc: 0]nuTilda: init_precond: 0.255 [ms]
[OGL LOG][StoppingCriterion.H:373] Creating stopping criterion with minIter 3 frequency 1
[OGL LOG][Proc: 0]nuTilda: generate_solver: 0.001 [ms]
[OGL LOG][Proc: 0]nuTilda: solve: 27.859 [ms]
[OGL LOG][Proc: 0]nuTilda: copy_x_back: 1.041 [ms]
[OGL LOG][lduLduBase.H:336] 
Statistics:
	Time per iteration: 13929 [mu s]
	Time per residual norm calculation: 263.000000 [mu s]
	Time per iteration and DOF: 2.208451 [ns]
	Retrieve results bandwidth 2.003000 [GByte/s]
[OGL LOG][Proc: 0]nuTilda: solve_multi_gpu: 34.493 [ms]
BJhipGKOBiCGStab:  Solving for nuTilda, Initial residual = 0.04159391733287238, Final residual = 0.003635026082831354, No Iterations 2
[INFO] TimeStep: 1466.358 [ms]
ExecutionTime = 27.99 s  ClockTime = 28 s

Time = 10

velocityDampingConstraint velocityDamping damped 0 (0%) of cells, with max limit 300
[INFO] MatrixAssemblyU: 449.472 [ms]
[OGL LOG][Proc: 0]: global_index_init: 0.965 [ms]
[OGL LOG][Proc: 0]Ux_local_coeffs: call_update: 0 [ms]
[OGL LOG][Proc: 0]Ux_non_local_coeffs: call_update: 0 [ms]
[OGL LOG][Proc: 0]Ux: update_local_matrix_data: 10.519 [ms]
[OGL LOG][Proc: 0]Ux: update_non_local_matrix_data: 0.117 [ms]
[OGL LOG][Proc: 0]Ux_matrix: call_update: 2.625 [ms]
[OGL LOG][Proc: 0]Ux_rhs: call_update: 1.895 [ms]
[OGL LOG][Preconditioner.H:121] Generate preconditioner BJ MaxBlockSize 1
[OGL LOG][Proc: 0]Ux: init_precond: 0.256 [ms]
[OGL LOG][StoppingCriterion.H:373] Creating stopping criterion with minIter 14 frequency 1
[OGL LOG][Proc: 0]Ux: generate_solver: 0.001 [ms]
[OGL LOG][Proc: 0]Ux: solve: 45.891 [ms]
[OGL LOG][Proc: 0]Ux: copy_x_back: 1.081 [ms]
[OGL LOG][lduLduBase.H:336] 
Statistics:
	Time per iteration: 4589 [mu s]
	Time per residual norm calculation: 226.000000 [mu s]
	Time per iteration and DOF: 0.727589 [ns]
	Retrieve results bandwidth 1.929000 [GByte/s]
[OGL LOG][Proc: 0]Ux: solve_multi_gpu: 52.217 [ms]
BJhipGKOBiCGStab:  Solving for Ux, Initial residual = 0.01590095530779822, Final residual = 0.001496829892937345, No Iterations 10
[OGL LOG][Proc: 0]: global_index_init: 0.42 [ms]
[OGL LOG][Proc: 0]Uy_local_coeffs: call_update: 0 [ms]
[OGL LOG][Proc: 0]Uy_non_local_coeffs: call_update: 0 [ms]
[OGL LOG][Proc: 0]Uy: update_local_matrix_data: 10.23 [ms]
[OGL LOG][Proc: 0]Uy: update_non_local_matrix_data: 0.08700000000000001 [ms]
[OGL LOG][Proc: 0]Uy_matrix: call_update: 2.916 [ms]
[OGL LOG][Proc: 0]Uy_rhs: call_update: 3.126 [ms]
[OGL LOG][Preconditioner.H:121] Generate preconditioner BJ MaxBlockSize 1
[OGL LOG][Proc: 0]Uy: init_precond: 0.297 [ms]
[OGL LOG][StoppingCriterion.H:373] Creating stopping criterion with minIter 12 frequency 1
[OGL LOG][Proc: 0]Uy: generate_solver: 0.001 [ms]
[OGL LOG][Proc: 0]Uy: solve: 51.498 [ms]
[OGL LOG][Proc: 0]Uy: copy_x_back: 1.025 [ms]
[OGL LOG][lduLduBase.H:336] 
Statistics:
	Time per iteration: 4681 [mu s]
	Time per residual norm calculation: 228.000000 [mu s]
	Time per iteration and DOF: 0.742175 [ns]
	Retrieve results bandwidth 2.034000 [GByte/s]
[OGL LOG][Proc: 0]Uy: solve_multi_gpu: 59.327 [ms]
BJhipGKOBiCGStab:  Solving for Uy, Initial residual = 0.05619119515492316, Final residual = 0.005033349555894663, No Iterations 11
[OGL LOG][Proc: 0]: global_index_init: 0.428 [ms]
[OGL LOG][Proc: 0]Uz_local_coeffs: call_update: 0 [ms]
[OGL LOG][Proc: 0]Uz_non_local_coeffs: call_update: 0 [ms]
[OGL LOG][Proc: 0]Uz: update_local_matrix_data: 10.266 [ms]
[OGL LOG][Proc: 0]Uz: update_non_local_matrix_data: 0.09 [ms]
[OGL LOG][Proc: 0]Uz_matrix: call_update: 2.641 [ms]
[OGL LOG][Proc: 0]Uz_rhs: call_update: 2.41 [ms]
[OGL LOG][Preconditioner.H:121] Generate preconditioner BJ MaxBlockSize 1
[OGL LOG][Proc: 0]Uz: init_precond: 0.249 [ms]
[OGL LOG][StoppingCriterion.H:373] Creating stopping criterion with minIter 13 frequency 1
[OGL LOG][Proc: 0]Uz: generate_solver: 0.001 [ms]
[OGL LOG][Proc: 0]Uz: solve: 50.077 [ms]
[OGL LOG][Proc: 0]Uz: copy_x_back: 1.079 [ms]
[OGL LOG][lduLduBase.H:336] 
Statistics:
	Time per iteration: 4173 [mu s]
	Time per residual norm calculation: 226.000000 [mu s]
	Time per iteration and DOF: 0.661632 [ns]
	Retrieve results bandwidth 1.932000 [GByte/s]
[OGL LOG][Proc: 0]Uz: solve_multi_gpu: 56.918 [ms]
BJhipGKOBiCGStab:  Solving for Uz, Initial residual = 0.04392839230463146, Final residual = 0.004166729757470372, No Iterations 12
[INFO] MomentumPredictor: 239.846 [ms]
[INFO] MatrixAssemblyPI: 78.068 [ms]
[INFO] MatrixAssemblyPII: 35.798 [ms]
GAMG:  Solving for p, Initial residual = 0.07103763830036836, Final residual = 0.0006729141223578145, No Iterations 7
[INFO] SolveP: 318.714 [ms]
time step continuity errors : sum local = 0.006228078091904353, global = -0.0001419659611615901, cumulative = -0.0009124896751365065
[INFO] postSolveP: 18.811 [ms]
[OGL LOG][Proc: 0]: global_index_init: 5.058 [ms]
[OGL LOG][Proc: 0]nuTilda_local_coeffs: call_update: 0 [ms]
[OGL LOG][Proc: 0]nuTilda_non_local_coeffs: call_update: 0 [ms]
[OGL LOG][Proc: 0]nuTilda: update_local_matrix_data: 11.44 [ms]
[OGL LOG][Proc: 0]nuTilda: update_non_local_matrix_data: 0.08 [ms]
[OGL LOG][Proc: 0]nuTilda_matrix: call_update: 3.605 [ms]
[OGL LOG][Proc: 0]nuTilda_rhs: call_update: 2.725 [ms]
[OGL LOG][Preconditioner.H:121] Generate preconditioner BJ MaxBlockSize 1
[OGL LOG][Proc: 0]nuTilda: init_precond: 0.25 [ms]
[OGL LOG][StoppingCriterion.H:373] Creating stopping criterion with minIter 2 frequency 1
[OGL LOG][Proc: 0]nuTilda: generate_solver: 0.001 [ms]
[OGL LOG][Proc: 0]nuTilda: solve: 29.347 [ms]
[OGL LOG][Proc: 0]nuTilda: copy_x_back: 1.063 [ms]
[OGL LOG][lduLduBase.H:336] 
Statistics:
	Time per iteration: 14673 [mu s]
	Time per residual norm calculation: 223.000000 [mu s]
	Time per iteration and DOF: 2.326412 [ns]
	Retrieve results bandwidth 1.961000 [GByte/s]
[OGL LOG][Proc: 0]nuTilda: solve_multi_gpu: 37.525 [ms]
BJhipGKOBiCGStab:  Solving for nuTilda, Initial residual = 0.06466925610678928, Final residual = 0.002972124254357927, No Iterations 2
[INFO] TimeStep: 1441.095 [ms]
ExecutionTime = 29.77 s  ClockTime = 30 s

Time = 11

velocityDampingConstraint velocityDamping damped 0 (0%) of cells, with max limit 300
[INFO] MatrixAssemblyU: 454.586 [ms]
[OGL LOG][Proc: 0]: global_index_init: 0.858 [ms]
[OGL LOG][Proc: 0]Ux_local_coeffs: call_update: 0 [ms]
[OGL LOG][Proc: 0]Ux_non_local_coeffs: call_update: 0 [ms]
[OGL LOG][Proc: 0]Ux: update_local_matrix_data: 10.706 [ms]
[OGL LOG][Proc: 0]Ux: update_non_local_matrix_data: 0.081 [ms]
[OGL LOG][Proc: 0]Ux_matrix: call_update: 2.762 [ms]
[OGL LOG][Proc: 0]Ux_rhs: call_update: 1.487 [ms]
[OGL LOG][Preconditioner.H:121] Generate preconditioner BJ MaxBlockSize 1
[OGL LOG][Proc: 0]Ux: init_precond: 0.291 [ms]
[OGL LOG][StoppingCriterion.H:373] Creating stopping criterion with minIter 12 frequency 1
[OGL LOG][Proc: 0]Ux: generate_solver: 0.001 [ms]
[OGL LOG][Proc: 0]Ux: solve: 55.539 [ms]
[OGL LOG][Proc: 0]Ux: copy_x_back: 1.058 [ms]
[OGL LOG][lduLduBase.H:336] 
Statistics:
	Time per iteration: 5553 [mu s]
	Time per residual norm calculation: 226.000000 [mu s]
	Time per iteration and DOF: 0.880431 [ns]
	Retrieve results bandwidth 1.971000 [GByte/s]
[OGL LOG][Proc: 0]Ux: solve_multi_gpu: 61.595 [ms]
BJhipGKOBiCGStab:  Solving for Ux, Initial residual = 0.0143415529675374, Final residual = 0.001267848708004471, No Iterations 10
[OGL LOG][Proc: 0]: global_index_init: 0.315 [ms]
[OGL LOG][Proc: 0]Uy_local_coeffs: call_update: 0 [ms]
[OGL LOG][Proc: 0]Uy_non_local_coeffs: call_update: 0 [ms]
[OGL LOG][Proc: 0]Uy: update_local_matrix_data: 11.328 [ms]
[OGL LOG][Proc: 0]Uy: update_non_local_matrix_data: 0.092 [ms]
[OGL LOG][Proc: 0]Uy_matrix: call_update: 2.775 [ms]
[OGL LOG][Proc: 0]Uy_rhs: call_update: 4.137 [ms]
[OGL LOG][Preconditioner.H:121] Generate preconditioner BJ MaxBlockSize 1
[OGL LOG][Proc: 0]Uy: init_precond: 0.329 [ms]
[OGL LOG][StoppingCriterion.H:373] Creating stopping criterion with minIter 13 frequency 1
[OGL LOG][Proc: 0]Uy: generate_solver: 0.001 [ms]
[OGL LOG][Proc: 0]Uy: solve: 68.185 [ms]
[OGL LOG][Proc: 0]Uy: copy_x_back: 1.042 [ms]
[OGL LOG][lduLduBase.H:336] 
Statistics:
	Time per iteration: 6198 [mu s]
	Time per residual norm calculation: 232.000000 [mu s]
	Time per iteration and DOF: 0.982696 [ns]
	Retrieve results bandwidth 2.001000 [GByte/s]
[OGL LOG][Proc: 0]Uy: solve_multi_gpu: 76.926 [ms]
BJhipGKOBiCGStab:  Solving for Uy, Initial residual = 0.1154786700620699, Final residual = 0.007195965361384614, No Iterations 11
[OGL LOG][Proc: 0]: global_index_init: 2.897 [ms]
[OGL LOG][Proc: 0]Uz_local_coeffs: call_update: 0 [ms]
[OGL LOG][Proc: 0]Uz_non_local_coeffs: call_update: 0 [ms]
[OGL LOG][Proc: 0]Uz: update_local_matrix_data: 13.081 [ms]
[OGL LOG][Proc: 0]Uz: update_non_local_matrix_data: 0.08600000000000001 [ms]
[OGL LOG][Proc: 0]Uz_matrix: call_update: 2.762 [ms]
[OGL LOG][Proc: 0]Uz_rhs: call_update: 0.252 [ms]
[OGL LOG][Preconditioner.H:121] Generate preconditioner BJ MaxBlockSize 1
[OGL LOG][Proc: 0]Uz: init_precond: 0.264 [ms]
[OGL LOG][StoppingCriterion.H:373] Creating stopping criterion with minIter 14 frequency 1
[OGL LOG][Proc: 0]Uz: generate_solver: 0 [ms]
[OGL LOG][Proc: 0]Uz: solve: 59.759 [ms]
[OGL LOG][Proc: 0]Uz: copy_x_back: 1.074 [ms]
[OGL LOG][lduLduBase.H:336] 
Statistics:
	Time per iteration: 5975 [mu s]
	Time per residual norm calculation: 229.000000 [mu s]
	Time per iteration and DOF: 0.947340 [ns]
	Retrieve results bandwidth 1.941000 [GByte/s]
[OGL LOG][Proc: 0]Uz: solve_multi_gpu: 64.572 [ms]
BJhipGKOBiCGStab:  Solving for Uz, Initial residual = 0.04301194289049912, Final residual = 0.004014305023182522, No Iterations 10
[INFO] MomentumPredictor: 280.448 [ms]
[INFO] MatrixAssemblyPI: 79.372 [ms]
[INFO] MatrixAssemblyPII: 36.47 [ms]
GAMG:  Solving for p, Initial residual = 0.0575995261867529, Final residual = 0.0005025826020681167, No Iterations 8
[INFO] SolveP: 331.381 [ms]
time step continuity errors : sum local = 0.004565398247269088, global = -3.926724622202158e-05, cumulative = -0.0009517569213585281
[INFO] postSolveP: 19.026 [ms]
[OGL LOG][Proc: 0]: global_index_init: 5.67 [ms]
[OGL LOG][Proc: 0]nuTilda_local_coeffs: call_update: 0 [ms]
[OGL LOG][Proc: 0]nuTilda_non_local_coeffs: call_update: 0 [ms]
[OGL LOG][Proc: 0]nuTilda: update_local_matrix_data: 10.662 [ms]
[OGL LOG][Proc: 0]nuTilda: update_non_local_matrix_data: 0.098 [ms]
[OGL LOG][Proc: 0]nuTilda_matrix: call_update: 2.766 [ms]
[OGL LOG][Proc: 0]nuTilda_rhs: call_update: 3.231 [ms]
[OGL LOG][Preconditioner.H:121] Generate preconditioner BJ MaxBlockSize 1
[OGL LOG][Proc: 0]nuTilda: init_precond: 0.39 [ms]
[OGL LOG][StoppingCriterion.H:373] Creating stopping criterion with minIter 3 frequency 1
[OGL LOG][Proc: 0]nuTilda: generate_solver: 0.001 [ms]
[OGL LOG][Proc: 0]nuTilda: solve: 29.083 [ms]
[OGL LOG][Proc: 0]nuTilda: copy_x_back: 1.085 [ms]
[OGL LOG][lduLduBase.H:336] 
Statistics:
	Time per iteration: 14541 [mu s]
	Time per residual norm calculation: 231.000000 [mu s]
	Time per iteration and DOF: 2.305484 [ns]
	Retrieve results bandwidth 1.921000 [GByte/s]
[OGL LOG][Proc: 0]nuTilda: solve_multi_gpu: 37.056 [ms]
BJhipGKOBiCGStab:  Solving for nuTilda, Initial residual = 0.03713486648552695, Final residual = 0.003471256339104098, No Iterations 2
[INFO] TimeStep: 1493.283 [ms]
ExecutionTime = 31.61 s  ClockTime = 32 s

Time = 12

velocityDampingConstraint velocityDamping damped 0 (0%) of cells, with max limit 300
[INFO] MatrixAssemblyU: 448.312 [ms]
[OGL LOG][Proc: 0]: global_index_init: 1.233 [ms]
[OGL LOG][Proc: 0]Ux_local_coeffs: call_update: 0 [ms]
[OGL LOG][Proc: 0]Ux_non_local_coeffs: call_update: 0 [ms]
[OGL LOG][Proc: 0]Ux: update_local_matrix_data: 10.004 [ms]
[OGL LOG][Proc: 0]Ux: update_non_local_matrix_data: 0.07100000000000001 [ms]
[OGL LOG][Proc: 0]Ux_matrix: call_update: 2.622 [ms]
[OGL LOG][Proc: 0]Ux_rhs: call_update: 1.936 [ms]
[OGL LOG][Preconditioner.H:121] Generate preconditioner BJ MaxBlockSize 1
[OGL LOG][Proc: 0]Ux: init_precond: 0.253 [ms]
[OGL LOG][StoppingCriterion.H:373] Creating stopping criterion with minIter 12 frequency 1
[OGL LOG][Proc: 0]Ux: generate_solver: 0.001 [ms]
[OGL LOG][Proc: 0]Ux: solve: 52.075 [ms]
[OGL LOG][Proc: 0]Ux: copy_x_back: 1.047 [ms]
[OGL LOG][lduLduBase.H:336] 
Statistics:
	Time per iteration: 4734 [mu s]
	Time per residual norm calculation: 230.000000 [mu s]
	Time per iteration and DOF: 0.750578 [ns]
	Retrieve results bandwidth 1.991000 [GByte/s]
[OGL LOG][Proc: 0]Ux: solve_multi_gpu: 58.39 [ms]
BJhipGKOBiCGStab:  Solving for Ux, Initial residual = 0.01312039123106854, Final residual = 0.001084654405891148, No Iterations 11
[OGL LOG][Proc: 0]: global_index_init: 0.447 [ms]
[OGL LOG][Proc: 0]Uy_local_coeffs: call_update: 0 [ms]
[OGL LOG][Proc: 0]Uy_non_local_coeffs: call_update: 0 [ms]
[OGL LOG][Proc: 0]Uy: update_local_matrix_data: 9.734 [ms]
[OGL LOG][Proc: 0]Uy: update_non_local_matrix_data: 0.078 [ms]
[OGL LOG][Proc: 0]Uy_matrix: call_update: 3.546 [ms]
[OGL LOG][Proc: 0]Uy_rhs: call_update: 1.856 [ms]
[OGL LOG][Preconditioner.H:121] Generate preconditioner BJ MaxBlockSize 1
[OGL LOG][Proc: 0]Uy: init_precond: 0.255 [ms]
[OGL LOG][StoppingCriterion.H:373] Creating stopping criterion with minIter 13 frequency 1
[OGL LOG][Proc: 0]Uy: generate_solver: 0.001 [ms]
[OGL LOG][Proc: 0]Uy: solve: 48.871 [ms]
[OGL LOG][Proc: 0]Uy: copy_x_back: 1.043 [ms]
[OGL LOG][lduLduBase.H:336] 
Statistics:
	Time per iteration: 4442 [mu s]
	Time per residual norm calculation: 227.000000 [mu s]
	Time per iteration and DOF: 0.704282 [ns]
	Retrieve results bandwidth 1.999000 [GByte/s]
[OGL LOG][Proc: 0]Uy: solve_multi_gpu: 56.078 [ms]
BJhipGKOBiCGStab:  Solving for Uy, Initial residual = 0.05690728160213285, Final residual = 0.005010982162321722, No Iterations 11
[OGL LOG][Proc: 0]: global_index_init: 0.476 [ms]
[OGL LOG][Proc: 0]Uz_local_coeffs: call_update: 0 [ms]
[OGL LOG][Proc: 0]Uz_non_local_coeffs: call_update: 0 [ms]
[OGL LOG][Proc: 0]Uz: update_local_matrix_data: 10.107 [ms]
[OGL LOG][Proc: 0]Uz: update_non_local_matrix_data: 0.079 [ms]
[OGL LOG][Proc: 0]Uz_matrix: call_update: 3.017 [ms]
[OGL LOG][Proc: 0]Uz_rhs: call_update: 2.854 [ms]
[OGL LOG][Preconditioner.H:121] Generate preconditioner BJ MaxBlockSize 1
[OGL LOG][Proc: 0]Uz: init_precond: 0.275 [ms]
[OGL LOG][StoppingCriterion.H:373] Creating stopping criterion with minIter 12 frequency 1
[OGL LOG][Proc: 0]Uz: generate_solver: 0.001 [ms]
[OGL LOG][Proc: 0]Uz: solve: 56.774 [ms]
[OGL LOG][Proc: 0]Uz: copy_x_back: 1.074 [ms]
[OGL LOG][lduLduBase.H:336] 
Statistics:
	Time per iteration: 5161 [mu s]
	Time per residual norm calculation: 226.000000 [mu s]
	Time per iteration and DOF: 0.818279 [ns]
	Retrieve results bandwidth 1.941000 [GByte/s]
[OGL LOG][Proc: 0]Uz: solve_multi_gpu: 64.474 [ms]
BJhipGKOBiCGStab:  Solving for Uz, Initial residual = 0.03942527703755173, Final residual = 0.003044356329830844, No Iterations 11
[INFO] MomentumPredictor: 248.719 [ms]
[INFO] MatrixAssemblyPI: 76.926 [ms]
[INFO] MatrixAssemblyPII: 42.046 [ms]
GAMG:  Solving for p, Initial residual = 0.05523991827884532, Final residual = 0.0005118069332574876, No Iterations 8
[INFO] SolveP: 336.31 [ms]
time step continuity errors : sum local = 0.004565752279731788, global = 8.252724036049039e-05, cumulative = -0.0008692296809980377
[INFO] postSolveP: 19.006 [ms]
[OGL LOG][Proc: 0]: global_index_init: 4.892 [ms]
[OGL LOG][Proc: 0]nuTilda_local_coeffs: call_update: 0 [ms]
[OGL LOG][Proc: 0]nuTilda_non_local_coeffs: call_update: 0 [ms]
[OGL LOG][Proc: 0]nuTilda: update_local_matrix_data: 10.556 [ms]
[OGL LOG][Proc: 0]nuTilda: update_non_local_matrix_data: 0.073 [ms]
[OGL LOG][Proc: 0]nuTilda_matrix: call_update: 3.041 [ms]
[OGL LOG][Proc: 0]nuTilda_rhs: call_update: 1.494 [ms]
[OGL LOG][Preconditioner.H:121] Generate preconditioner BJ MaxBlockSize 1
[OGL LOG][Proc: 0]nuTilda: init_precond: 0.306 [ms]
[OGL LOG][StoppingCriterion.H:373] Creating stopping criterion with minIter 2 frequency 1
[OGL LOG][Proc: 0]nuTilda: generate_solver: 0.001 [ms]
[OGL LOG][Proc: 0]nuTilda: solve: 29.009 [ms]
[OGL LOG][Proc: 0]nuTilda: copy_x_back: 1.07 [ms]
[OGL LOG][lduLduBase.H:336] 
Statistics:
	Time per iteration: 14504 [mu s]
	Time per residual norm calculation: 366.000000 [mu s]
	Time per iteration and DOF: 2.299617 [ns]
	Retrieve results bandwidth 1.948000 [GByte/s]
[OGL LOG][Proc: 0]nuTilda: solve_multi_gpu: 35.435 [ms]
BJhipGKOBiCGStab:  Solving for nuTilda, Initial residual = 0.06273824102674626, Final residual = 0.002877411168670073, No Iterations 2
[INFO] TimeStep: 1456.936 [ms]
ExecutionTime = 33.41 s  ClockTime = 34 s

Time = 13

velocityDampingConstraint velocityDamping damped 0 (0%) of cells, with max limit 300
[INFO] MatrixAssemblyU: 445.369 [ms]
[OGL LOG][Proc: 0]: global_index_init: 0.979 [ms]
[OGL LOG][Proc: 0]Ux_local_coeffs: call_update: 0 [ms]
[OGL LOG][Proc: 0]Ux_non_local_coeffs: call_update: 0 [ms]
[OGL LOG][Proc: 0]Ux: update_local_matrix_data: 10.3 [ms]
[OGL LOG][Proc: 0]Ux: update_non_local_matrix_data: 0.081 [ms]
[OGL LOG][Proc: 0]Ux_matrix: call_update: 2.786 [ms]
[OGL LOG][Proc: 0]Ux_rhs: call_update: 1.971 [ms]
[OGL LOG][Preconditioner.H:121] Generate preconditioner BJ MaxBlockSize 1
[OGL LOG][Proc: 0]Ux: init_precond: 0.26 [ms]
[...]
BJhipGKOBiCGStab:  Solving for Ux, Initial residual = 0.01329228887375944, Final residual = 0.001064672364519605, No Iterations 12
[OGL LOG][Proc: 0]: global_index_init: 0.423 [ms]
[OGL LOG][Proc: 0]Uy_local_coeffs: call_update: 0 [ms]
[OGL LOG][Proc: 0]Uy_non_local_coeffs: call_update: 0 [ms]
[OGL LOG][Proc: 0]Uy: update_local_matrix_data: 10.271 [ms]
[OGL LOG][Proc: 0]Uy: update_non_local_matrix_data: 0.079 [ms]
[OGL LOG][Proc: 0]Uy_matrix: call_update: 2.907 [ms]
[OGL LOG][Proc: 0]Uy_rhs: call_update: 2.168 [ms]
[OGL LOG][Preconditioner.H:121] Generate preconditioner BJ MaxBlockSize 1
[OGL LOG][Proc: 0]Uy: init_precond: 0.26 [ms]
[OGL LOG][StoppingCriterion.H:373] Creating stopping criterion with minIter 15 frequency 1
[OGL LOG][Proc: 0]Uy: generate_solver: 0.001 [ms]
[OGL LOG][Proc: 0]Uy: solve: 56.884 [ms]
[OGL LOG][Proc: 0]Uy: copy_x_back: 1.056 [ms]
[OGL LOG][lduLduBase.H:336] 
Statistics:
	Time per iteration: 4063 [mu s]
	Time per residual norm calculation: 229.000000 [mu s]
	Time per iteration and DOF: 0.644191 [ns]
	Retrieve results bandwidth 1.974000 [GByte/s]
[OGL LOG][Proc: 0]Uy: solve_multi_gpu: 63.772 [ms]
BJhipGKOBiCGStab:  Solving for Uy, Initial residual = 0.06517213873441047, Final residual = 0.005975899827366632, No Iterations 14
[OGL LOG][Proc: 0]: global_index_init: 0.379 [ms]
[OGL LOG][Proc: 0]Uz_local_coeffs: call_update: 0 [ms]
[OGL LOG][Proc: 0]Uz_non_local_coeffs: call_update: 0 [ms]
[OGL LOG][Proc: 0]Uz: update_local_matrix_data: 10.542 [ms]
[OGL LOG][Proc: 0]Uz: update_non_local_matrix_data: 0.089 [ms]
[OGL LOG][Proc: 0]Uz_matrix: call_update: 2.762 [ms]
[OGL LOG][Proc: 0]Uz_rhs: call_update: 1.845 [ms]
[OGL LOG][Preconditioner.H:121] Generate preconditioner BJ MaxBlockSize 1
[OGL LOG][Proc: 0]Uz: init_precond: 0.303 [ms]
[OGL LOG][StoppingCriterion.H:373] Creating stopping criterion with minIter 13 frequency 1
[OGL LOG][Proc: 0]Uz: generate_solver: 0 [ms]
[OGL LOG][Proc: 0]Uz: solve: 45.911 [ms]
[OGL LOG][Proc: 0]Uz: copy_x_back: 1.014 [ms]
[OGL LOG][lduLduBase.H:336] 
Statistics:
	Time per iteration: 4591 [mu s]
	Time per residual norm calculation: 221.000000 [mu s]
	Time per iteration and DOF: 0.727906 [ns]
	Retrieve results bandwidth 2.056000 [GByte/s]
[OGL LOG][Proc: 0]Uz: solve_multi_gpu: 52.316 [ms]
BJhipGKOBiCGStab:  Solving for Uz, Initial residual = 0.0611374877749846, Final residual = 0.005801373835331333, No Iterations 10
[INFO] MomentumPredictor: 263.913 [ms]
[INFO] MatrixAssemblyPI: 78.99299999999999 [ms]
[INFO] MatrixAssemblyPII: 36.53 [ms]
GAMG:  Solving for p, Initial residual = 0.1501084721238383, Final residual = 0.001182102714549494, No Iterations 7
[INFO] SolveP: 298.596 [ms]
time step continuity errors : sum local = 0.01458109177945855, global = -0.0001476775483550059, cumulative = 0.0007297248040525583
[INFO] postSolveP: 19.122 [ms]
[OGL LOG][Proc: 0]: global_index_init: 6.784 [ms]
[OGL LOG][Proc: 0]nuTilda_local_coeffs: call_update: 0 [ms]
[OGL LOG][Proc: 0]nuTilda_non_local_coeffs: call_update: 0 [ms]
[OGL LOG][Proc: 0]nuTilda: update_local_matrix_data: 10.78 [ms]
[OGL LOG][Proc: 0]nuTilda: update_non_local_matrix_data: 0.09 [ms]
[OGL LOG][Proc: 0]nuTilda_matrix: call_update: 2.671 [ms]
[OGL LOG][Proc: 0]nuTilda_rhs: call_update: 2.693 [ms]
[OGL LOG][Preconditioner.H:121] Generate preconditioner BJ MaxBlockSize 1
[OGL LOG][Proc: 0]nuTilda: init_precond: 0.275 [ms]
[OGL LOG][StoppingCriterion.H:373] Creating stopping criterion with minIter 2 frequency 1
[OGL LOG][Proc: 0]nuTilda: generate_solver: 0.001 [ms]
[OGL LOG][Proc: 0]nuTilda: solve: 28.766 [ms]
[OGL LOG][Proc: 0]nuTilda: copy_x_back: 1.045 [ms]
[OGL LOG][lduLduBase.H:336] 
Statistics:
	Time per iteration: 14383 [mu s]
	Time per residual norm calculation: 226.000000 [mu s]
	Time per iteration and DOF: 2.280433 [ns]
	Retrieve results bandwidth 1.995000 [GByte/s]
[OGL LOG][Proc: 0]nuTilda: solve_multi_gpu: 35.959 [ms]
BJhipGKOBiCGStab:  Solving for nuTilda, Initial residual = 0.01160320425151576, Final residual = 0.0008006552392076739, No Iterations 2
[INFO] TimeStep: 1451.577 [ms]
ExecutionTime = 96.63 s  ClockTime = 97 s

Time = 48

velocityDampingConstraint velocityDamping damped 0 (0%) of cells, with max limit 300
[INFO] MatrixAssemblyU: 470.004 [ms]
[OGL LOG][Proc: 0]: global_index_init: 0.9320000000000001 [ms]
[OGL LOG][Proc: 0]Ux_local_coeffs: call_update: 0 [ms]
[OGL LOG][Proc: 0]Ux_non_local_coeffs: call_update: 0 [ms]
[OGL LOG][Proc: 0]Ux: update_local_matrix_data: 10.177 [ms]
[OGL LOG][Proc: 0]Ux: update_non_local_matrix_data: 0.067 [ms]
[OGL LOG][Proc: 0]Ux_matrix: call_update: 2.696 [ms]
[OGL LOG][Proc: 0]Ux_rhs: call_update: 1.978 [ms]
[OGL LOG][Preconditioner.H:121] Generate preconditioner BJ MaxBlockSize 1
[OGL LOG][Proc: 0]Ux: init_precond: 0.258 [ms]
[OGL LOG][StoppingCriterion.H:373] Creating stopping criterion with minIter 14 frequency 1
[OGL LOG][Proc: 0]Ux: generate_solver: 0.001 [ms]
[OGL LOG][Proc: 0]Ux: solve: 43.634 [ms]
[OGL LOG][Proc: 0]Ux: copy_x_back: 1.07 [ms]
[OGL LOG][lduLduBase.H:336] 
Statistics:
	Time per iteration: 4848 [mu s]
	Time per residual norm calculation: 223.000000 [mu s]
	Time per iteration and DOF: 0.768653 [ns]
	Retrieve results bandwidth 1.948000 [GByte/s]
[OGL LOG][Proc: 0]Ux: solve_multi_gpu: 50.107 [ms]
BJhipGKOBiCGStab:  Solving for Ux, Initial residual = 0.06567524531239466, Final residual = 0.006097917729295431, No Iterations 9
[OGL LOG][Proc: 0]: global_index_init: 0.375 [ms]
[OGL LOG][Proc: 0]Uy_local_coeffs: call_update: 0 [ms]
[OGL LOG][Proc: 0]Uy_non_local_coeffs: call_update: 0 [ms]
[OGL LOG][Proc: 0]Uy: update_local_matrix_data: 10.159 [ms]
[OGL LOG][Proc: 0]Uy: update_non_local_matrix_data: 0.074 [ms]
[OGL LOG][Proc: 0]Uy_matrix: call_update: 6.617 [ms]
[OGL LOG][Proc: 0]Uy_rhs: call_update: 0.434 [ms]
[OGL LOG][Preconditioner.H:121] Generate preconditioner BJ MaxBlockSize 1
[OGL LOG][Proc: 0]Uy: init_precond: 0.262 [ms]
[OGL LOG][StoppingCriterion.H:373] Creating stopping criterion with minIter 16 frequency 1
[OGL LOG][Proc: 0]Uy: generate_solver: 0.001 [ms]
[OGL LOG][Proc: 0]Uy: solve: 80.68000000000001 [ms]
[OGL LOG][Proc: 0]Uy: copy_x_back: 1.063 [ms]
[OGL LOG][lduLduBase.H:336] 
Statistics:
	Time per iteration: 5378 [mu s]
	Time per residual norm calculation: 226.000000 [mu s]
	Time per iteration and DOF: 0.852685 [ns]
	Retrieve results bandwidth 1.961000 [GByte/s]
[OGL LOG][Proc: 0]Uy: solve_multi_gpu: 89.55200000000001 [ms]
BJhipGKOBiCGStab:  Solving for Uy, Initial residual = 0.1120051058778428, Final residual = 0.01064947166020587, No Iterations 15
[OGL LOG][Proc: 0]: global_index_init: 0.219 [ms]
[OGL LOG][Proc: 0]Uz_local_coeffs: call_update: 0 [ms]
[OGL LOG][Proc: 0]Uz_non_local_coeffs: call_update: 0 [ms]
[OGL LOG][Proc: 0]Uz: update_local_matrix_data: 10.279 [ms]
[OGL LOG][Proc: 0]Uz: update_non_local_matrix_data: 0.073 [ms]
[OGL LOG][Proc: 0]Uz_matrix: call_update: 2.526 [ms]
[OGL LOG][Proc: 0]Uz_rhs: call_update: 4.471 [ms]
[OGL LOG][Preconditioner.H:121] Generate preconditioner BJ MaxBlockSize 1
[OGL LOG][Proc: 0]Uz: init_precond: 0.271 [ms]
[OGL LOG][StoppingCriterion.H:373] Creating stopping criterion with minIter 12 frequency 1
[OGL LOG][Proc: 0]Uz: generate_solver: 0.001 [ms]
[OGL LOG][Proc: 0]Uz: solve: 61.226 [ms]
[OGL LOG][Proc: 0]Uz: copy_x_back: 1.11 [ms]
[OGL LOG][lduLduBase.H:336] 
Statistics:
	Time per iteration: 3826 [mu s]
	Time per residual norm calculation: 229.000000 [mu s]
	Time per iteration and DOF: 0.606614 [ns]
	Retrieve results bandwidth 1.878000 [GByte/s]
[OGL LOG][Proc: 0]Uz: solve_multi_gpu: 70.08200000000001 [ms]
BJhipGKOBiCGStab:  Solving for Uz, Initial residual = 0.1087289300758223, Final residual = 0.007176711905142617, No Iterations 16
[INFO] MomentumPredictor: 280.434 [ms]
[INFO] MatrixAssemblyPI: 80.428 [ms]
[INFO] MatrixAssemblyPII: 36.508 [ms]
GAMG:  Solving for p, Initial residual = 0.08837667776794397, Final residual = 0.0007300131532585753, No Iterations 8
[INFO] SolveP: 339.839 [ms]
time step continuity errors : sum local = 0.009447163101937925, global = -1.632943828373475e-05, cumulative = 0.0007133953657688236
[INFO] postSolveP: 18.969 [ms]
[OGL LOG][Proc: 0]: global_index_init: 5.376 [ms]
[OGL LOG][Proc: 0]nuTilda_local_coeffs: call_update: 0 [ms]
[OGL LOG][Proc: 0]nuTilda_non_local_coeffs: call_update: 0 [ms]
[OGL LOG][Proc: 0]nuTilda: update_local_matrix_data: 10.763 [ms]
[OGL LOG][Proc: 0]nuTilda: update_non_local_matrix_data: 0.274 [ms]
[OGL LOG][Proc: 0]nuTilda_matrix: call_update: 2.635 [ms]
[OGL LOG][Proc: 0]nuTilda_rhs: call_update: 1.715 [ms]
[OGL LOG][Preconditioner.H:121] Generate preconditioner BJ MaxBlockSize 1
[OGL LOG][Proc: 0]nuTilda: init_precond: 0.251 [ms]
[OGL LOG][StoppingCriterion.H:373] Creating stopping criterion with minIter 3 frequency 1
[OGL LOG][Proc: 0]nuTilda: generate_solver: 0 [ms]
[OGL LOG][Proc: 0]nuTilda: solve: 28.476 [ms]
[OGL LOG][Proc: 0]nuTilda: copy_x_back: 1.078 [ms]
[OGL LOG][lduLduBase.H:336] 
Statistics:
	Time per iteration: 14238 [mu s]
	Time per residual norm calculation: 233.000000 [mu s]
	Time per iteration and DOF: 2.257443 [ns]
	Retrieve results bandwidth 1.934000 [GByte/s]
[OGL LOG][Proc: 0]nuTilda: solve_multi_gpu: 34.677 [ms]
BJhipGKOBiCGStab:  Solving for nuTilda, Initial residual = 0.01533696957462912, Final residual = 0.001460558422247841, No Iterations 2
[INFO] TimeStep: 1520.086 [ms]
ExecutionTime = 98.51000000000001 s  ClockTime = 99 s

Time = 49

velocityDampingConstraint velocityDamping damped 0 (0%) of cells, with max limit 300
[INFO] MatrixAssemblyU: 466.895 [ms]
[OGL LOG][Proc: 0]: global_index_init: 5.238 [ms]
[OGL LOG][Proc: 0]Ux_local_coeffs: call_update: 0 [ms]
[OGL LOG][Proc: 0]Ux_non_local_coeffs: call_update: 0 [ms]
[OGL LOG][Proc: 0]Ux: update_local_matrix_data: 10.592 [ms]
[OGL LOG][Proc: 0]Ux: update_non_local_matrix_data: 0.078 [ms]
[OGL LOG][Proc: 0]Ux_matrix: call_update: 3.515 [ms]
[OGL LOG][Proc: 0]Ux_rhs: call_update: 1.781 [ms]
[OGL LOG][Preconditioner.H:121] Generate preconditioner BJ MaxBlockSize 1
[OGL LOG][Proc: 0]Ux: init_precond: 0.261 [ms]
[OGL LOG][StoppingCriterion.H:373] Creating stopping criterion with minIter 11 frequency 1
[OGL LOG][Proc: 0]Ux: generate_solver: 0.001 [ms]
[OGL LOG][Proc: 0]Ux: solve: 49.21 [ms]
[OGL LOG][Proc: 0]Ux: copy_x_back: 1.081 [ms]
[OGL LOG][lduLduBase.H:336] 
Statistics:
	Time per iteration: 4921 [mu s]
	Time per residual norm calculation: 222.000000 [mu s]
	Time per iteration and DOF: 0.780227 [ns]
	Retrieve results bandwidth 1.929000 [GByte/s]
[OGL LOG][Proc: 0]Ux: solve_multi_gpu: 56.329 [ms]
BJhipGKOBiCGStab:  Solving for Ux, Initial residual = 0.0225813396850287, Final residual = 0.002027632781119295, No Iterations 10
[OGL LOG][Proc: 0]: global_index_init: 2.133 [ms]
[OGL LOG][Proc: 0]Uy_local_coeffs: call_update: 0 [ms]
[OGL LOG][Proc: 0]Uy_non_local_coeffs: call_update: 0 [ms]
[OGL LOG][Proc: 0]Uy: update_local_matrix_data: 10.219 [ms]
[OGL LOG][Proc: 0]Uy: update_non_local_matrix_data: 0.074 [ms]
[OGL LOG][Proc: 0]Uy_matrix: call_update: 3.002 [ms]
[OGL LOG][Proc: 0]Uy_rhs: call_update: 2.431 [ms]
[OGL LOG][Preconditioner.H:121] Generate preconditioner BJ MaxBlockSize 1
[OGL LOG][Proc: 0]Uy: init_precond: 0.258 [ms]
[OGL LOG][StoppingCriterion.H:373] Creating stopping criterion with minIter 18 frequency 1
[OGL LOG][Proc: 0]Uy: generate_solver: 0.001 [ms]
[OGL LOG][Proc: 0]Uy: solve: 48.958 [ms]
[OGL LOG][Proc: 0]Uy: copy_x_back: 1.053 [ms]
[OGL LOG][lduLduBase.H:336] 
Statistics:
	Time per iteration: 4450 [mu s]
	Time per residual norm calculation: 251.000000 [mu s]
	Time per iteration and DOF: 0.705550 [ns]
	Retrieve results bandwidth 1.980000 [GByte/s]
[OGL LOG][Proc: 0]Uy: solve_multi_gpu: 56.187 [ms]
BJhipGKOBiCGStab:  Solving for Uy, Initial residual = 0.07861687636876727, Final residual = 0.007565928012899131, No Iterations 11
[OGL LOG][Proc: 0]: global_index_init: 0.235 [ms]
[OGL LOG][Proc: 0]Uz_local_coeffs: call_update: 0 [ms]
[OGL LOG][Proc: 0]Uz_non_local_coeffs: call_update: 0 [ms]
[OGL LOG][Proc: 0]Uz: update_local_matrix_data: 10.368 [ms]
[OGL LOG][Proc: 0]Uz: update_non_local_matrix_data: 0.08 [ms]
[OGL LOG][Proc: 0]Uz_matrix: call_update: 2.844 [ms]
[OGL LOG][Proc: 0]Uz_rhs: call_update: 1.673 [ms]
[OGL LOG][Preconditioner.H:121] Generate preconditioner BJ MaxBlockSize 1
[OGL LOG][Proc: 0]Uz: init_precond: 0.253 [ms]
[OGL LOG][StoppingCriterion.H:373] Creating stopping criterion with minIter 19 frequency 1
[OGL LOG][Proc: 0]Uz: generate_solver: 0.001 [ms]
[OGL LOG][Proc: 0]Uz: solve: 44.871 [ms]
[OGL LOG][Proc: 0]Uz: copy_x_back: 1.058 [ms]
[OGL LOG][lduLduBase.H:336] 
Statistics:
	Time per iteration: 4487 [mu s]
	Time per residual norm calculation: 318.000000 [mu s]
	Time per iteration and DOF: 0.711416 [ns]
	Retrieve results bandwidth 1.971000 [GByte/s]
[OGL LOG][Proc: 0]Uz: solve_multi_gpu: 51.184 [ms]
BJhipGKOBiCGStab:  Solving for Uz, Initial residual = 0.1181645516810687, Final residual = 0.0115018112247405, No Iterations 10
[INFO] MomentumPredictor: 240.439 [ms]
[INFO] MatrixAssemblyPI: 79.113 [ms]
[INFO] MatrixAssemblyPII: 36.518 [ms]
GAMG:  Solving for p, Initial residual = 0.06253258264128723, Final residual = 0.0005337370827400883, No Iterations 9
[INFO] SolveP: 373.674 [ms]
time step continuity errors : sum local = 0.006819741712497, global = 8.673162674673536e-05, cumulative = 0.000800126992515559
[INFO] postSolveP: 18.961 [ms]
[OGL LOG][Proc: 0]: global_index_init: 7.521 [ms]
[OGL LOG][Proc: 0]nuTilda_local_coeffs: call_update: 0 [ms]
[OGL LOG][Proc: 0]nuTilda_non_local_coeffs: call_update: 0 [ms]
[OGL LOG][Proc: 0]nuTilda: update_local_matrix_data: 11.041 [ms]
[OGL LOG][Proc: 0]nuTilda: update_non_local_matrix_data: 0.091 [ms]
[OGL LOG][Proc: 0]nuTilda_matrix: call_update: 2.452 [ms]
[OGL LOG][Proc: 0]nuTilda_rhs: call_update: 6.346 [ms]
[OGL LOG][Preconditioner.H:121] Generate preconditioner BJ MaxBlockSize 1
[OGL LOG][Proc: 0]nuTilda: init_precond: 0.239 [ms]
[OGL LOG][StoppingCriterion.H:373] Creating stopping criterion with minIter 2 frequency 1
[OGL LOG][Proc: 0]nuTilda: generate_solver: 0.001 [ms]
[OGL LOG][Proc: 0]nuTilda: solve: 29.024 [ms]
[OGL LOG][Proc: 0]nuTilda: copy_x_back: 1.088 [ms]
[OGL LOG][lduLduBase.H:336] 
Statistics:
	Time per iteration: 14512 [mu s]
	Time per residual norm calculation: 222.000000 [mu s]
	Time per iteration and DOF: 2.300886 [ns]
	Retrieve results bandwidth 1.916000 [GByte/s]
[OGL LOG][Proc: 0]nuTilda: solve_multi_gpu: 39.658 [ms]
BJhipGKOBiCGStab:  Solving for nuTilda, Initial residual = 0.01105053989653048, Final residual = 0.0007943539989692122, No Iterations 2
[INFO] TimeStep: 1515.298 [ms]
ExecutionTime = 100.38 s  ClockTime = 101 s

Time = 50

velocityDampingConstraint velocityDamping damped 0 (0%) of cells, with max limit 300
[INFO] MatrixAssemblyU: 462.451 [ms]
[OGL LOG][Proc: 0]: global_index_init: 0.843 [ms]
[OGL LOG][Proc: 0]Ux_local_coeffs: call_update: 0 [ms]
[OGL LOG][Proc: 0]Ux_non_local_coeffs: call_update: 0 [ms]
[OGL LOG][Proc: 0]Ux: update_local_matrix_data: 10.516 [ms]
[OGL LOG][Proc: 0]Ux: update_non_local_matrix_data: 0.082 [ms]
[OGL LOG][Proc: 0]Ux_matrix: call_update: 2.519 [ms]
[OGL LOG][Proc: 0]Ux_rhs: call_update: 4.498 [ms]
[OGL LOG][Preconditioner.H:121] Generate preconditioner BJ MaxBlockSize 1
[OGL LOG][Proc: 0]Ux: init_precond: 0.319 [ms]
[OGL LOG][StoppingCriterion.H:373] Creating stopping criterion with minIter 12 frequency 1
[OGL LOG][Proc: 0]Ux: generate_solver: 0.001 [ms]
[OGL LOG][Proc: 0]Ux: solve: 55.447 [ms]
[OGL LOG][Proc: 0]Ux: copy_x_back: 1.058 [ms]
[OGL LOG][lduLduBase.H:336] 
Statistics:
	Time per iteration: 4265 [mu s]
	Time per residual norm calculation: 236.000000 [mu s]
	Time per iteration and DOF: 0.676218 [ns]
	Retrieve results bandwidth 1.971000 [GByte/s]
[OGL LOG][Proc: 0]Ux: solve_multi_gpu: 64.324 [ms]
BJhipGKOBiCGStab:  Solving for Ux, Initial residual = 0.01451289656379082, Final residual = 0.0007537455264334259, No Iterations 13
[OGL LOG][Proc: 0]: global_index_init: 0.454 [ms]
[OGL LOG][Proc: 0]Uy_local_coeffs: call_update: 0 [ms]
[OGL LOG][Proc: 0]Uy_non_local_coeffs: call_update: 0 [ms]
[OGL LOG][Proc: 0]Uy: update_local_matrix_data: 10.556 [ms]
[OGL LOG][Proc: 0]Uy: update_non_local_matrix_data: 0.082 [ms]
[OGL LOG][Proc: 0]Uy_matrix: call_update: 2.768 [ms]
[OGL LOG][Proc: 0]Uy_rhs: call_update: 2.203 [ms]
[OGL LOG][Preconditioner.H:121] Generate preconditioner BJ MaxBlockSize 1
[OGL LOG][Proc: 0]Uy: init_precond: 0.257 [ms]
[OGL LOG][StoppingCriterion.H:373] Creating stopping criterion with minIter 13 frequency 1
[OGL LOG][Proc: 0]Uy: generate_solver: 0 [ms]
[OGL LOG][Proc: 0]Uy: solve: 48.95 [ms]
[OGL LOG][Proc: 0]Uy: copy_x_back: 1.032 [ms]
[OGL LOG][lduLduBase.H:336] 
Statistics:
	Time per iteration: 4450 [mu s]
	Time per residual norm calculation: 228.000000 [mu s]
	Time per iteration and DOF: 0.705550 [ns]
	Retrieve results bandwidth 2.020000 [GByte/s]
[OGL LOG][Proc: 0]Uy: solve_multi_gpu: 55.671 [ms]
BJhipGKOBiCGStab:  Solving for Uy, Initial residual = 0.06592935995419798, Final residual = 0.006333154644141661, No Iterations 11
[OGL LOG][Proc: 0]: global_index_init: 0.654 [ms]
[OGL LOG][Proc: 0]Uz_local_coeffs: call_update: 0 [ms]
[OGL LOG][Proc: 0]Uz_non_local_coeffs: call_update: 0 [ms]
[OGL LOG][Proc: 0]Uz: update_local_matrix_data: 10.616 [ms]
[OGL LOG][Proc: 0]Uz: update_non_local_matrix_data: 0.073 [ms]
[OGL LOG][Proc: 0]Uz_matrix: call_update: 5.228 [ms]
[OGL LOG][Proc: 0]Uz_rhs: call_update: 2.084 [ms]
[OGL LOG][Preconditioner.H:121] Generate preconditioner BJ MaxBlockSize 1
[OGL LOG][Proc: 0]Uz: init_precond: 0.285 [ms]
[OGL LOG][StoppingCriterion.H:373] Creating stopping criterion with minIter 12 frequency 1
[OGL LOG][Proc: 0]Uz: generate_solver: 0 [ms]
[OGL LOG][Proc: 0]Uz: solve: 62.791 [ms]
[OGL LOG][Proc: 0]Uz: copy_x_back: 1.09 [ms]
[OGL LOG][lduLduBase.H:336] 
Statistics:
	Time per iteration: 4830 [mu s]
	Time per residual norm calculation: 230.000000 [mu s]
	Time per iteration and DOF: 0.765799 [ns]
	Retrieve results bandwidth 1.913000 [GByte/s]
[OGL LOG][Proc: 0]Uz: solve_multi_gpu: 74.26300000000001 [ms]
BJhipGKOBiCGStab:  Solving for Uz, Initial residual = 0.07429797588833228, Final residual = 0.005375231038726692, No Iterations 13
[INFO] MomentumPredictor: 268.977 [ms]
[INFO] MatrixAssemblyPI: 75.239 [ms]
[INFO] MatrixAssemblyPII: 36.583 [ms]
GAMG:  Solving for p, Initial residual = 0.06014554655866932, Final residual = 0.0005397799304706988, No Iterations 8
[INFO] SolveP: 342.761 [ms]
time step continuity errors : sum local = 0.006751580255409134, global = 0.0001495321691228401, cumulative = 0.0009496591616383991
[INFO] postSolveP: 19.205 [ms]
[OGL LOG][Proc: 0]: global_index_init: 6.553 [ms]
[OGL LOG][Proc: 0]nuTilda_local_coeffs: call_update: 0 [ms]
[OGL LOG][Proc: 0]nuTilda_non_local_coeffs: call_update: 0 [ms]
[OGL LOG][Proc: 0]nuTilda: update_local_matrix_data: 10.785 [ms]
[OGL LOG][Proc: 0]nuTilda: update_non_local_matrix_data: 0.08600000000000001 [ms]
[OGL LOG][Proc: 0]nuTilda_matrix: call_update: 2.815 [ms]
[OGL LOG][Proc: 0]nuTilda_rhs: call_update: 1.506 [ms]
[OGL LOG][Preconditioner.H:121] Generate preconditioner BJ MaxBlockSize 1
[OGL LOG][Proc: 0]nuTilda: init_precond: 0.265 [ms]
[OGL LOG][StoppingCriterion.H:373] Creating stopping criterion with minIter 3 frequency 1
[OGL LOG][Proc: 0]nuTilda: generate_solver: 0.001 [ms]
[OGL LOG][Proc: 0]nuTilda: solve: 27.635 [ms]
[OGL LOG][Proc: 0]nuTilda: copy_x_back: 1.077 [ms]
[OGL LOG][lduLduBase.H:336] 
Statistics:
	Time per iteration: 13817 [mu s]
	Time per residual norm calculation: 235.000000 [mu s]
	Time per iteration and DOF: 2.190693 [ns]
	Retrieve results bandwidth 1.936000 [GByte/s]
[OGL LOG][Proc: 0]nuTilda: solve_multi_gpu: 33.808 [ms]
BJhipGKOBiCGStab:  Solving for nuTilda, Initial residual = 0.01470488059447047, Final residual = 0.001363199253576223, No Iterations 2
[INFO] TimeStep: 1496.697 [ms]
ExecutionTime = 102.23 s  ClockTime = 103 s

End

Finalising parallel run
