/*---------------------------------------------------------------------------*\
| =========                 |                                                 |
| \\      /  F ield         | OpenFOAM: The Open Source CFD Toolbox           |
|  \\    /   O peration     | Version:  2212                                  |
|   \\  /    A nd           | Website:  www.openfoam.com                      |
|    \\/     M anipulation  |                                                 |
\*---------------------------------------------------------------------------*/
Build  : 5614a57-20230228 OPENFOAM=2212 patch=230110 version=v2212
Arch   : "LSB;label=32;scalar=64"
Exec   : icoFoam -parallel -case /home/greole/data/code/exasim-project/micro_benchmarks/LidDrivenCavity3D/workspace/a5ef18ff6ae166aba2fc8f2120240c0b/case
Date   : Jul 02 2023
Time   : 08:52:45
Host   : guyot
PID    : 2395922
I/O    : uncollated
Case   : /home/greole/data/code/exasim-project/micro_benchmarks/LidDrivenCavity3D/workspace/a5ef18ff6ae166aba2fc8f2120240c0b/case
nProcs : 64
Hosts  :
(
    (guyot 64)
)
Pstream initialized with:
    floatTransfer      : 0
    nProcsSimpleSum    : 0
    commsType          : nonBlocking
    polling iterations : 0
trapFpe: Floating point exception trapping enabled (FOAM_SIGFPE).
fileModificationChecking : Monitoring run-time modified files using timeStampMaster (fileModificationSkew 5, maxFileModificationPolls 20)
allowSystemOperations : Allowing user-supplied system call operations

// * * * * * * * * * * * * * * * * * * * * * * * * * * * * * * * * * * * * * //
Create time

--> FOAM Warning : 
    From void* Foam::dlLibraryTable::openLibrary(const Foam::fileName&, bool)
    in file db/dynamicLibrary/dlLibraryTable/dlLibraryTable.C at line 188
    Could not load "libpetscFoam.so"
libpetscFoam.so: cannot open shared object file: No such file or directory
Create mesh for time = 0


PISO: Operating solver in PISO mode

Reading transportProperties

Reading field p

Reading field U

Reading/calculating face flux field phi


Starting time loop

Time = 0.0005

Courant Number mean: 8.62851e-18 max: 8.67362e-15
[INFO] MatrixAssemblyU: 6.526 [ms]
DILUPBiCGStab:  Solving for Ux, Initial residual = 1, Final residual = 0.00357461, No Iterations 5
DILUPBiCGStab:  Solving for Uy:  solution singularity
DILUPBiCGStab:  Solving for Uz:  solution singularity
[INFO] MomentumPredictor: 16.669 [ms]
[INFO] MatrixAssemblyPI: 5.675 [ms]
[INFO] AdjustPhi: 0.299 [ms]
[INFO] ConstrainPressure: 0.008 [ms]
[INFO] MatrixAssemblyPII: 1.54 [ms]
nonePCG:  Solving for p, Initial residual = 1, Final residual = 9.9819e-05, No Iterations 792
[INFO] SolveP: 215.191 [ms]
time step continuity errors : sum local = 2.15306e-08, global = 5.34173e-21, cumulative = 5.34173e-21
[INFO] ContinuityError: 0.457 [ms]
[INFO] CorrectBoundary: 0.134 [ms]
[INFO] PISOStep: 226.006 [ms]
[INFO] MatrixAssemblyPI: 4.846 [ms]
[INFO] AdjustPhi: 1.003 [ms]
[INFO] ConstrainPressure: 0.001 [ms]
[INFO] MatrixAssemblyPII: 1.443 [ms]
nonePCG:  Solving for p, Initial residual = 0.72884, Final residual = 9.99493e-05, No Iterations 781
[INFO] SolveP: 217.718 [ms]
time step continuity errors : sum local = 2.84587e-08, global = -3.48915e-22, cumulative = 4.99281e-21
[INFO] ContinuityError: 0.388 [ms]
[INFO] CorrectBoundary: 0.422 [ms]
[INFO] PISOStep: 228.115 [ms]
[INFO] TimeStep: 478.239 [ms]
ExecutionTime = 0.75 s  ClockTime = 1 s

Time = 0.001

Courant Number mean: 0.0214879 max: 0.377055
[INFO] MatrixAssemblyU: 6.057 [ms]
DILUPBiCGStab:  Solving for Ux, Initial residual = 0.150192, Final residual = 0.00178961, No Iterations 5
DILUPBiCGStab:  Solving for Uy, Initial residual = 0.368435, Final residual = 0.00317079, No Iterations 5
DILUPBiCGStab:  Solving for Uz, Initial residual = 0.98544, Final residual = 0.00898801, No Iterations 5
[INFO] MomentumPredictor: 24.729 [ms]
[INFO] MatrixAssemblyPI: 5.866 [ms]
[INFO] AdjustPhi: 0.23 [ms]
[INFO] ConstrainPressure: 0.001 [ms]
[INFO] MatrixAssemblyPII: 1.568 [ms]
nonePCG:  Solving for p, Initial residual = 0.696084, Final residual = 9.57638e-05, No Iterations 776
[INFO] SolveP: 209.533 [ms]
time step continuity errors : sum local = 3.09553e-08, global = 3.84567e-21, cumulative = 8.83848e-21
[INFO] ContinuityError: 0.404 [ms]
[INFO] CorrectBoundary: 0.191 [ms]
[INFO] PISOStep: 220.394 [ms]
[INFO] MatrixAssemblyPI: 5.631 [ms]
[INFO] AdjustPhi: 0.336 [ms]
[INFO] ConstrainPressure: 0.001 [ms]
[INFO] MatrixAssemblyPII: 1.527 [ms]
nonePCG:  Solving for p, Initial residual = 0.624152, Final residual = 9.9547e-05, No Iterations 773
[INFO] SolveP: 208.729 [ms]
time step continuity errors : sum local = 3.2834e-08, global = -2.50488e-21, cumulative = 6.33359e-21
[INFO] ContinuityError: 0.404 [ms]
[INFO] CorrectBoundary: 0.112 [ms]
[INFO] PISOStep: 219.402 [ms]
[INFO] TimeStep: 471.498 [ms]
ExecutionTime = 1.23 s  ClockTime = 2 s

Time = 0.0015

Courant Number mean: 0.0324492 max: 0.441176
[INFO] MatrixAssemblyU: 5.743 [ms]
DILUPBiCGStab:  Solving for Ux, Initial residual = 0.0531641, Final residual = 0.000573241, No Iterations 5
DILUPBiCGStab:  Solving for Uy, Initial residual = 0.12478, Final residual = 0.000738695, No Iterations 5
DILUPBiCGStab:  Solving for Uz, Initial residual = 0.579899, Final residual = 0.0048937, No Iterations 5
[INFO] MomentumPredictor: 24.985 [ms]
[INFO] MatrixAssemblyPI: 5.626 [ms]
[INFO] AdjustPhi: 0.541 [ms]
[INFO] ConstrainPressure: 0.002 [ms]
[INFO] MatrixAssemblyPII: 1.545 [ms]
nonePCG:  Solving for p, Initial residual = 0.636051, Final residual = 9.749e-05, No Iterations 768
[INFO] SolveP: 208.414 [ms]
time step continuity errors : sum local = 2.25788e-08, global = 2.83923e-21, cumulative = 9.17283e-21
[INFO] ContinuityError: 0.422 [ms]
[INFO] CorrectBoundary: 0.16 [ms]
[INFO] PISOStep: 219.305 [ms]
[INFO] MatrixAssemblyPI: 5.583 [ms]
[INFO] AdjustPhi: 0.424 [ms]
[INFO] ConstrainPressure: 0.002 [ms]
[INFO] MatrixAssemblyPII: 1.569 [ms]
nonePCG:  Solving for p, Initial residual = 0.582746, Final residual = 9.89969e-05, No Iterations 766
[INFO] SolveP: 212.174 [ms]
time step continuity errors : sum local = 2.22952e-08, global = -2.5401e-21, cumulative = 6.63272e-21
[INFO] ContinuityError: 0.397 [ms]
[INFO] CorrectBoundary: 0.12 [ms]
[INFO] PISOStep: 222.894 [ms]
[INFO] TimeStep: 473.789 [ms]
ExecutionTime = 1.7 s  ClockTime = 2 s

Time = 0.002

Courant Number mean: 0.0388472 max: 0.452858
[INFO] MatrixAssemblyU: 5.928 [ms]
DILUPBiCGStab:  Solving for Ux, Initial residual = 0.0319522, Final residual = 0.000309972, No Iterations 5
DILUPBiCGStab:  Solving for Uy, Initial residual = 0.0813862, Final residual = 0.000528939, No Iterations 5
DILUPBiCGStab:  Solving for Uz, Initial residual = 0.280414, Final residual = 0.00197837, No Iterations 5
[INFO] MomentumPredictor: 23.678 [ms]
[INFO] MatrixAssemblyPI: 5.728 [ms]
[INFO] AdjustPhi: 0.421 [ms]
[INFO] ConstrainPressure: 0.002 [ms]
[INFO] MatrixAssemblyPII: 1.722 [ms]
nonePCG:  Solving for p, Initial residual = 0.419906, Final residual = 9.68612e-05, No Iterations 761
[INFO] SolveP: 206.671 [ms]
time step continuity errors : sum local = 1.91866e-08, global = 4.15639e-21, cumulative = 1.07891e-20
[INFO] ContinuityError: 0.403 [ms]
[INFO] CorrectBoundary: 0.053 [ms]
[INFO] PISOStep: 217.85 [ms]
[INFO] MatrixAssemblyPI: 5.427 [ms]
[INFO] AdjustPhi: 0.435 [ms]
[INFO] ConstrainPressure: 0.013 [ms]
[INFO] MatrixAssemblyPII: 1.528 [ms]
nonePCG:  Solving for p, Initial residual = 0.357132, Final residual = 9.68839e-05, No Iterations 758
[INFO] SolveP: 206.44 [ms]
time step continuity errors : sum local = 1.93777e-08, global = 4.68586e-21, cumulative = 1.5475e-20
[INFO] ContinuityError: 0.363 [ms]
[INFO] CorrectBoundary: 0.107 [ms]
[INFO] PISOStep: 217.027 [ms]
[INFO] TimeStep: 465.357 [ms]
ExecutionTime = 2.16 s  ClockTime = 3 s

Time = 0.0025

Courant Number mean: 0.0438994 max: 0.459569
[INFO] MatrixAssemblyU: 5.608 [ms]
DILUPBiCGStab:  Solving for Ux, Initial residual = 0.0235555, Final residual = 0.000203693, No Iterations 5
DILUPBiCGStab:  Solving for Uy, Initial residual = 0.0515655, Final residual = 0.000314342, No Iterations 5
DILUPBiCGStab:  Solving for Uz, Initial residual = 0.101622, Final residual = 0.000728283, No Iterations 5
[INFO] MomentumPredictor: 24.085 [ms]
[INFO] MatrixAssemblyPI: 5.588 [ms]
[INFO] AdjustPhi: 0.497 [ms]
[INFO] ConstrainPressure: 0.001 [ms]
[INFO] MatrixAssemblyPII: 1.791 [ms]
nonePCG:  Solving for p, Initial residual = 0.318921, Final residual = 9.91993e-05, No Iterations 364
[INFO] SolveP: 100.412 [ms]
time step continuity errors : sum local = 1.84921e-08, global = 4.36917e-21, cumulative = 1.98441e-20
[INFO] ContinuityError: 0.448 [ms]
[INFO] CorrectBoundary: 0.291 [ms]
[INFO] PISOStep: 111.439 [ms]
[INFO] MatrixAssemblyPI: 5.606 [ms]
[INFO] AdjustPhi: 0.614 [ms]
[INFO] ConstrainPressure: 0.004 [ms]
[INFO] MatrixAssemblyPII: 1.539 [ms]
nonePCG:  Solving for p, Initial residual = 0.273181, Final residual = 9.63082e-05, No Iterations 357
[INFO] SolveP: 97.161 [ms]
time step continuity errors : sum local = 1.6241e-08, global = 5.35693e-21, cumulative = 2.52011e-20
[INFO] ContinuityError: 0.494 [ms]
[INFO] CorrectBoundary: 0.184 [ms]
[INFO] PISOStep: 108.175 [ms]
[INFO] TimeStep: 250.147 [ms]
ExecutionTime = 2.41 s  ClockTime = 3 s

Time = 0.003

Courant Number mean: 0.0479412 max: 0.463804
[INFO] MatrixAssemblyU: 6.077 [ms]
DILUPBiCGStab:  Solving for Ux, Initial residual = 0.0179263, Final residual = 0.000136868, No Iterations 5
DILUPBiCGStab:  Solving for Uy, Initial residual = 0.0401819, Final residual = 0.00021206, No Iterations 5
DILUPBiCGStab:  Solving for Uz, Initial residual = 0.0879377, Final residual = 0.000645914, No Iterations 5
[INFO] MomentumPredictor: 24.295 [ms]
[INFO] MatrixAssemblyPI: 5.727 [ms]
[INFO] AdjustPhi: 0.392 [ms]
[INFO] ConstrainPressure: 0.001 [ms]
[INFO] MatrixAssemblyPII: 1.561 [ms]
nonePCG:  Solving for p, Initial residual = 0.200696, Final residual = 9.59265e-05, No Iterations 346
[INFO] SolveP: 102.811 [ms]
time step continuity errors : sum local = 1.51325e-08, global = 1.68753e-20, cumulative = 4.20764e-20
[INFO] ContinuityError: 0.359 [ms]
[INFO] CorrectBoundary: 0.08 [ms]
[INFO] PISOStep: 113.628 [ms]
[INFO] MatrixAssemblyPI: 5.538 [ms]
[INFO] AdjustPhi: 0.498 [ms]
[INFO] ConstrainPressure: 0.001 [ms]
[INFO] MatrixAssemblyPII: 1.524 [ms]
nonePCG:  Solving for p, Initial residual = 0.167022, Final residual = 9.17595e-05, No Iterations 345
[INFO] SolveP: 96.009 [ms]
time step continuity errors : sum local = 1.44615e-08, global = 1.88721e-21, cumulative = 4.39636e-20
[INFO] ContinuityError: 0.395 [ms]
[INFO] CorrectBoundary: 0.071 [ms]
[INFO] PISOStep: 106.358 [ms]
[INFO] TimeStep: 251.166 [ms]
ExecutionTime = 2.66 s  ClockTime = 3 s

Time = 0.0035

Courant Number mean: 0.0513522 max: 0.466691
[INFO] MatrixAssemblyU: 6.088 [ms]
DILUPBiCGStab:  Solving for Ux, Initial residual = 0.0146779, Final residual = 9.63413e-05, No Iterations 5
DILUPBiCGStab:  Solving for Uy, Initial residual = 0.0317945, Final residual = 0.000166014, No Iterations 5
DILUPBiCGStab:  Solving for Uz, Initial residual = 0.0597496, Final residual = 0.0004289, No Iterations 5
[INFO] MomentumPredictor: 24.34 [ms]
[INFO] MatrixAssemblyPI: 5.83 [ms]
[INFO] AdjustPhi: 0.198 [ms]
[INFO] ConstrainPressure: 0.002 [ms]
[INFO] MatrixAssemblyPII: 1.585 [ms]
nonePCG:  Solving for p, Initial residual = 0.140434, Final residual = 9.94298e-05, No Iterations 703
[INFO] SolveP: 192.143 [ms]
time step continuity errors : sum local = 1.47441e-08, global = 4.73878e-21, cumulative = 4.87024e-20
[INFO] ContinuityError: 0.386 [ms]
[INFO] CorrectBoundary: 0.093 [ms]
[INFO] PISOStep: 202.844 [ms]
[INFO] MatrixAssemblyPI: 5.606 [ms]
[INFO] AdjustPhi: 0.367 [ms]
[INFO] ConstrainPressure: 0.001 [ms]
[INFO] MatrixAssemblyPII: 1.47 [ms]
nonePCG:  Solving for p, Initial residual = 0.117526, Final residual = 9.84242e-05, No Iterations 701
[INFO] SolveP: 190.667 [ms]
time step continuity errors : sum local = 1.45852e-08, global = -2.1265e-21, cumulative = 4.65759e-20
[INFO] ContinuityError: 0.375 [ms]
[INFO] CorrectBoundary: 0.153 [ms]
[INFO] PISOStep: 201.366 [ms]
[INFO] TimeStep: 435.377 [ms]
ExecutionTime = 3.09 s  ClockTime = 3 s

Time = 0.004

Courant Number mean: 0.054294 max: 0.468902
[INFO] MatrixAssemblyU: 5.768 [ms]
DILUPBiCGStab:  Solving for Ux, Initial residual = 0.01232, Final residual = 7.4163e-05, No Iterations 5
DILUPBiCGStab:  Solving for Uy, Initial residual = 0.0265305, Final residual = 0.000101588, No Iterations 5
DILUPBiCGStab:  Solving for Uz, Initial residual = 0.0520235, Final residual = 0.000311039, No Iterations 5
[INFO] MomentumPredictor: 24.406 [ms]
[INFO] MatrixAssemblyPI: 5.759 [ms]
[INFO] AdjustPhi: 0.336 [ms]
[INFO] ConstrainPressure: 0.003 [ms]
[INFO] MatrixAssemblyPII: 1.552 [ms]
nonePCG:  Solving for p, Initial residual = 0.0923534, Final residual = 9.97165e-05, No Iterations 323
[INFO] SolveP: 90.02 [ms]
time step continuity errors : sum local = 1.50312e-08, global = -1.99406e-21, cumulative = 4.45818e-20
[INFO] ContinuityError: 0.377 [ms]
[INFO] CorrectBoundary: 0.054 [ms]
[INFO] PISOStep: 100.536 [ms]
[INFO] MatrixAssemblyPI: 4.89 [ms]
[INFO] AdjustPhi: 0.354 [ms]
[INFO] ConstrainPressure: 0.002 [ms]
[INFO] MatrixAssemblyPII: 1.529 [ms]
nonePCG:  Solving for p, Initial residual = 0.0765077, Final residual = 9.69234e-05, No Iterations 321
[INFO] SolveP: 88.864 [ms]
time step continuity errors : sum local = 1.42106e-08, global = -3.50828e-21, cumulative = 4.10735e-20
[INFO] ContinuityError: 0.376 [ms]
[INFO] CorrectBoundary: 0.106 [ms]
[INFO] PISOStep: 98.85 [ms]
[INFO] TimeStep: 230.425 [ms]
ExecutionTime = 3.32 s  ClockTime = 4 s

Time = 0.0045

Courant Number mean: 0.0568736 max: 0.470609
[INFO] MatrixAssemblyU: 5.725 [ms]
DILUPBiCGStab:  Solving for Ux, Initial residual = 0.0105612, Final residual = 5.76632e-05, No Iterations 5
DILUPBiCGStab:  Solving for Uy, Initial residual = 0.0226998, Final residual = 8.88322e-05, No Iterations 5
DILUPBiCGStab:  Solving for Uz, Initial residual = 0.0436982, Final residual = 0.000264331, No Iterations 5
[INFO] MomentumPredictor: 25.155 [ms]
[INFO] MatrixAssemblyPI: 5.931 [ms]
[INFO] AdjustPhi: 0.161 [ms]
[INFO] ConstrainPressure: 0.002 [ms]
[INFO] MatrixAssemblyPII: 1.736 [ms]
nonePCG:  Solving for p, Initial residual = 0.0666068, Final residual = 9.8204e-05, No Iterations 317
[INFO] SolveP: 86.504 [ms]
time step continuity errors : sum local = 1.45778e-08, global = 7.52504e-21, cumulative = 4.85986e-20
[INFO] ContinuityError: 0.374 [ms]
[INFO] CorrectBoundary: 0.117 [ms]
[INFO] PISOStep: 97.029 [ms]
[INFO] MatrixAssemblyPI: 4.807 [ms]
[INFO] AdjustPhi: 0.36 [ms]
[INFO] ConstrainPressure: 0.002 [ms]
[INFO] MatrixAssemblyPII: 1.538 [ms]
nonePCG:  Solving for p, Initial residual = 0.0556435, Final residual = 9.8687e-05, No Iterations 315
[INFO] SolveP: 86.176 [ms]
time step continuity errors : sum local = 1.42711e-08, global = 4.68112e-21, cumulative = 5.32797e-20
[INFO] ContinuityError: 0.38 [ms]
[INFO] CorrectBoundary: 0.192 [ms]
[INFO] PISOStep: 95.895 [ms]
[INFO] TimeStep: 224.642 [ms]
ExecutionTime = 3.55 s  ClockTime = 4 s

Time = 0.005

Courant Number mean: 0.0591718 max: 0.472007
[INFO] MatrixAssemblyU: 5.801 [ms]
DILUPBiCGStab:  Solving for Ux, Initial residual = 0.0092437, Final residual = 4.86938e-05, No Iterations 5
DILUPBiCGStab:  Solving for Uy, Initial residual = 0.0197489, Final residual = 7.107e-05, No Iterations 5
DILUPBiCGStab:  Solving for Uz, Initial residual = 0.0387262, Final residual = 0.000208049, No Iterations 5
[INFO] MomentumPredictor: 24.322 [ms]
[INFO] MatrixAssemblyPI: 5.667 [ms]
[INFO] AdjustPhi: 0.283 [ms]
[INFO] ConstrainPressure: 0.002 [ms]
[INFO] MatrixAssemblyPII: 1.558 [ms]
nonePCG:  Solving for p, Initial residual = 0.0447986, Final residual = 9.9134e-05, No Iterations 313
[INFO] SolveP: 87.262 [ms]
time step continuity errors : sum local = 1.44587e-08, global = 3.18269e-21, cumulative = 5.64624e-20
[INFO] ContinuityError: 0.399 [ms]
[INFO] CorrectBoundary: 0.056 [ms]
[INFO] PISOStep: 97.974 [ms]
[INFO] MatrixAssemblyPI: 5.08 [ms]
[INFO] AdjustPhi: 0.949 [ms]
[INFO] ConstrainPressure: 0.001 [ms]
[INFO] MatrixAssemblyPII: 1.604 [ms]
nonePCG:  Solving for p, Initial residual = 0.0378305, Final residual = 9.70321e-05, No Iterations 311
[INFO] SolveP: 82.494 [ms]
time step continuity errors : sum local = 1.3904e-08, global = -2.74944e-21, cumulative = 5.37129e-20
[INFO] ContinuityError: 0.433 [ms]
[INFO] CorrectBoundary: 0.056 [ms]
[INFO] PISOStep: 93.104 [ms]
[INFO] TimeStep: 222.031 [ms]
ExecutionTime = 3.76 s  ClockTime = 4 s

Time = 0.0055

Courant Number mean: 0.061234 max: 0.473157
[INFO] MatrixAssemblyU: 5.216 [ms]
DILUPBiCGStab:  Solving for Ux, Initial residual = 0.00816235, Final residual = 4.06327e-05, No Iterations 5
DILUPBiCGStab:  Solving for Uy, Initial residual = 0.0174654, Final residual = 6.28171e-05, No Iterations 5
DILUPBiCGStab:  Solving for Uz, Initial residual = 0.0344874, Final residual = 0.000183499, No Iterations 5
[INFO] MomentumPredictor: 24.996 [ms]
[INFO] MatrixAssemblyPI: 5.74 [ms]
[INFO] AdjustPhi: 0.441 [ms]
[INFO] ConstrainPressure: 0.001 [ms]
[INFO] MatrixAssemblyPII: 1.49 [ms]
nonePCG:  Solving for p, Initial residual = 0.0346515, Final residual = 9.85491e-05, No Iterations 310
[INFO] SolveP: 86.18 [ms]
time step continuity errors : sum local = 1.44008e-08, global = 1.33215e-21, cumulative = 5.50451e-20
[INFO] ContinuityError: 0.388 [ms]
[INFO] CorrectBoundary: 0.083 [ms]
[INFO] PISOStep: 96.804 [ms]
[INFO] MatrixAssemblyPI: 4.827 [ms]
[INFO] AdjustPhi: 0.418 [ms]
[INFO] ConstrainPressure: 0.001 [ms]
[INFO] MatrixAssemblyPII: 1.527 [ms]
nonePCG:  Solving for p, Initial residual = 0.0294696, Final residual = 9.92748e-05, No Iterations 308
[INFO] SolveP: 82.635 [ms]
time step continuity errors : sum local = 1.42053e-08, global = -2.8698e-21, cumulative = 5.21753e-20
[INFO] ContinuityError: 0.385 [ms]
[INFO] CorrectBoundary: 0.113 [ms]
[INFO] PISOStep: 92.522 [ms]
[INFO] TimeStep: 220.312 [ms]
ExecutionTime = 3.98 s  ClockTime = 4 s

Time = 0.006

Courant Number mean: 0.0631081 max: 0.474137
[INFO] MatrixAssemblyU: 5.879 [ms]
DILUPBiCGStab:  Solving for Ux, Initial residual = 0.00730601, Final residual = 3.56842e-05, No Iterations 5
DILUPBiCGStab:  Solving for Uy, Initial residual = 0.0155901, Final residual = 5.44919e-05, No Iterations 5
DILUPBiCGStab:  Solving for Uz, Initial residual = 0.0310701, Final residual = 0.000156015, No Iterations 5
[INFO] MomentumPredictor: 24.794 [ms]
[INFO] MatrixAssemblyPI: 5.877 [ms]
[INFO] AdjustPhi: 0.284 [ms]
[INFO] ConstrainPressure: 0.001 [ms]
[INFO] MatrixAssemblyPII: 1.673 [ms]
nonePCG:  Solving for p, Initial residual = 0.0249561, Final residual = 9.86181e-05, No Iterations 305
[INFO] SolveP: 86.145 [ms]
time step continuity errors : sum local = 1.41784e-08, global = -5.49673e-21, cumulative = 4.66786e-20
[INFO] ContinuityError: 0.389 [ms]
[INFO] CorrectBoundary: 0.086 [ms]
[INFO] PISOStep: 96.682 [ms]
[INFO] MatrixAssemblyPI: 4.627 [ms]
[INFO] AdjustPhi: 0.534 [ms]
[INFO] ConstrainPressure: 0.002 [ms]
[INFO] MatrixAssemblyPII: 1.436 [ms]
nonePCG:  Solving for p, Initial residual = 0.0217996, Final residual = 9.90574e-05, No Iterations 302
[INFO] SolveP: 80.534 [ms]
time step continuity errors : sum local = 1.41004e-08, global = 8.74537e-22, cumulative = 4.75531e-20
[INFO] ContinuityError: 0.425 [ms]
[INFO] CorrectBoundary: 0.063 [ms]
[INFO] PISOStep: 90.456 [ms]
[INFO] TimeStep: 218.598 [ms]
ExecutionTime = 4.21 s  ClockTime = 5 s

Time = 0.0065

Courant Number mean: 0.0648143 max: 0.474975
[INFO] MatrixAssemblyU: 6.624 [ms]
DILUPBiCGStab:  Solving for Ux, Initial residual = 0.00657586, Final residual = 3.12966e-05, No Iterations 5
DILUPBiCGStab:  Solving for Uy, Initial residual = 0.0140616, Final residual = 4.87318e-05, No Iterations 5
DILUPBiCGStab:  Solving for Uz, Initial residual = 0.0282394, Final residual = 0.000138978, No Iterations 5
[INFO] MomentumPredictor: 23.882 [ms]
[INFO] MatrixAssemblyPI: 5.58 [ms]
[INFO] AdjustPhi: 0.561 [ms]
[INFO] ConstrainPressure: 0.002 [ms]
[INFO] MatrixAssemblyPII: 1.535 [ms]
nonePCG:  Solving for p, Initial residual = 0.0205303, Final residual = 9.66823e-05, No Iterations 303
[INFO] SolveP: 81.398 [ms]
time step continuity errors : sum local = 1.41079e-08, global = -1.84735e-21, cumulative = 4.57057e-20
[INFO] ContinuityError: 0.381 [ms]
[INFO] CorrectBoundary: 0.087 [ms]
[INFO] PISOStep: 91.902 [ms]
[INFO] MatrixAssemblyPI: 4.821 [ms]
[INFO] AdjustPhi: 0.262 [ms]
[INFO] ConstrainPressure: 0.002 [ms]
[INFO] MatrixAssemblyPII: 1.496 [ms]
nonePCG:  Solving for p, Initial residual = 0.0180993, Final residual = 9.8962e-05, No Iterations 297
[INFO] SolveP: 81.312 [ms]
time step continuity errors : sum local = 1.41475e-08, global = -9.02144e-22, cumulative = 4.48036e-20
[INFO] ContinuityError: 0.398 [ms]
[INFO] CorrectBoundary: 0.121 [ms]
[INFO] PISOStep: 91.127 [ms]
[INFO] TimeStep: 214.363 [ms]
ExecutionTime = 4.42 s  ClockTime = 5 s

Time = 0.007

Courant Number mean: 0.0663838 max: 0.475708
[INFO] MatrixAssemblyU: 5.904 [ms]
DILUPBiCGStab:  Solving for Ux, Initial residual = 0.00597352, Final residual = 2.83073e-05, No Iterations 5
DILUPBiCGStab:  Solving for Uy, Initial residual = 0.0127652, Final residual = 4.36553e-05, No Iterations 5
DILUPBiCGStab:  Solving for Uz, Initial residual = 0.0257904, Final residual = 0.000122538, No Iterations 5
[INFO] MomentumPredictor: 24.797 [ms]
[INFO] MatrixAssemblyPI: 5.594 [ms]
[INFO] AdjustPhi: 0.495 [ms]
[INFO] ConstrainPressure: 0.002 [ms]
[INFO] MatrixAssemblyPII: 1.683 [ms]
nonePCG:  Solving for p, Initial residual = 0.015988, Final residual = 9.81826e-05, No Iterations 297
[INFO] SolveP: 82.854 [ms]
time step continuity errors : sum local = 1.39755e-08, global = -2.228e-21, cumulative = 4.25756e-20
[INFO] ContinuityError: 0.36 [ms]
[INFO] CorrectBoundary: 0.14 [ms]
[INFO] PISOStep: 93.522 [ms]
[INFO] MatrixAssemblyPI: 4.816 [ms]
[INFO] AdjustPhi: 0.297 [ms]
[INFO] ConstrainPressure: 0.002 [ms]
[INFO] MatrixAssemblyPII: 1.577 [ms]
nonePCG:  Solving for p, Initial residual = 0.014488, Final residual = 9.97012e-05, No Iterations 293
[INFO] SolveP: 78.759 [ms]
time step continuity errors : sum local = 1.4164e-08, global = 2.0937e-21, cumulative = 4.46693e-20
[INFO] ContinuityError: 0.35 [ms]
[INFO] CorrectBoundary: 0.133 [ms]
[INFO] PISOStep: 88.588 [ms]
[INFO] TimeStep: 213.666 [ms]
ExecutionTime = 4.63 s  ClockTime = 5 s

Time = 0.0075

Courant Number mean: 0.0678326 max: 0.47635
[INFO] MatrixAssemblyU: 6.156 [ms]
DILUPBiCGStab:  Solving for Ux, Initial residual = 0.00544911, Final residual = 2.56086e-05, No Iterations 5
DILUPBiCGStab:  Solving for Uy, Initial residual = 0.011668, Final residual = 3.95529e-05, No Iterations 5
DILUPBiCGStab:  Solving for Uz, Initial residual = 0.0237476, Final residual = 0.000110361, No Iterations 5
[INFO] MomentumPredictor: 24.24 [ms]
[INFO] MatrixAssemblyPI: 5.716 [ms]
[INFO] AdjustPhi: 0.387 [ms]
[INFO] ConstrainPressure: 0.002 [ms]
[INFO] MatrixAssemblyPII: 1.627 [ms]
nonePCG:  Solving for p, Initial residual = 0.0138929, Final residual = 9.97345e-05, No Iterations 296
[INFO] SolveP: 82.379 [ms]
time step continuity errors : sum local = 1.46368e-08, global = -1.4896e-21, cumulative = 4.31797e-20
[INFO] ContinuityError: 0.347 [ms]
[INFO] CorrectBoundary: 0.08 [ms]
[INFO] PISOStep: 92.857 [ms]
[INFO] MatrixAssemblyPI: 4.697 [ms]
[INFO] AdjustPhi: 0.529 [ms]
[INFO] ConstrainPressure: 0.002 [ms]
[INFO] MatrixAssemblyPII: 1.345 [ms]
nonePCG:  Solving for p, Initial residual = 0.0126749, Final residual = 9.78951e-05, No Iterations 293
[INFO] SolveP: 79.752 [ms]
time step continuity errors : sum local = 1.40506e-08, global = -9.09464e-21, cumulative = 3.40851e-20
[INFO] ContinuityError: 0.406 [ms]
[INFO] CorrectBoundary: 0.148 [ms]
[INFO] PISOStep: 89.469 [ms]
[INFO] TimeStep: 213.576 [ms]
ExecutionTime = 4.85 s  ClockTime = 5 s

Time = 0.008

Courant Number mean: 0.0691714 max: 0.476921
[INFO] MatrixAssemblyU: 6.058 [ms]
DILUPBiCGStab:  Solving for Ux, Initial residual = 0.00500153, Final residual = 2.35651e-05, No Iterations 5
DILUPBiCGStab:  Solving for Uy, Initial residual = 0.0107192, Final residual = 3.60343e-05, No Iterations 5
DILUPBiCGStab:  Solving for Uz, Initial residual = 0.0219179, Final residual = 9.96653e-05, No Iterations 5
[INFO] MomentumPredictor: 24.753 [ms]
[INFO] MatrixAssemblyPI: 5.768 [ms]
[INFO] AdjustPhi: 0.301 [ms]
[INFO] ConstrainPressure: 0.041 [ms]
[INFO] MatrixAssemblyPII: 1.565 [ms]
nonePCG:  Solving for p, Initial residual = 0.0118541, Final residual = 9.88566e-05, No Iterations 297
[INFO] SolveP: 83.605 [ms]
time step continuity errors : sum local = 1.38714e-08, global = -7.70638e-21, cumulative = 2.63787e-20
[INFO] ContinuityError: 0.369 [ms]
[INFO] CorrectBoundary: 0.134 [ms]
[INFO] PISOStep: 94.138 [ms]
[INFO] MatrixAssemblyPI: 4.805 [ms]
[INFO] AdjustPhi: 0.219 [ms]
[INFO] ConstrainPressure: 0.002 [ms]
[INFO] MatrixAssemblyPII: 1.529 [ms]
nonePCG:  Solving for p, Initial residual = 0.0110215, Final residual = 9.87131e-05, No Iterations 293
[INFO] SolveP: 79.434 [ms]
time step continuity errors : sum local = 1.39911e-08, global = -2.32857e-21, cumulative = 2.40501e-20
[INFO] ContinuityError: 0.372 [ms]
[INFO] CorrectBoundary: 0.068 [ms]
[INFO] PISOStep: 89.159 [ms]
[INFO] TimeStep: 215.033 [ms]
ExecutionTime = 5.06 s  ClockTime = 5 s

Time = 0.0085

Courant Number mean: 0.0704182 max: 0.47743
[INFO] MatrixAssemblyU: 6.109 [ms]
DILUPBiCGStab:  Solving for Ux, Initial residual = 0.00460801, Final residual = 2.16869e-05, No Iterations 5
DILUPBiCGStab:  Solving for Uy, Initial residual = 0.00989237, Final residual = 3.30342e-05, No Iterations 5
DILUPBiCGStab:  Solving for Uz, Initial residual = 0.020423, Final residual = 9.08332e-05, No Iterations 5
[INFO] MomentumPredictor: 24.088 [ms]
[INFO] MatrixAssemblyPI: 5.759 [ms]
[INFO] AdjustPhi: 0.394 [ms]
[INFO] ConstrainPressure: 0.003 [ms]
[INFO] MatrixAssemblyPII: 1.591 [ms]
nonePCG:  Solving for p, Initial residual = 0.0106387, Final residual = 9.99497e-05, No Iterations 300
[INFO] SolveP: 84.802 [ms]
time step continuity errors : sum local = 1.49347e-08, global = 5.79543e-21, cumulative = 2.98455e-20
[INFO] ContinuityError: 0.395 [ms]
[INFO] CorrectBoundary: 0.053 [ms]
[INFO] PISOStep: 95.447 [ms]
[INFO] MatrixAssemblyPI: 4.866 [ms]
[INFO] AdjustPhi: 0.239 [ms]
[INFO] ConstrainPressure: 0.002 [ms]
[INFO] MatrixAssemblyPII: 1.559 [ms]
nonePCG:  Solving for p, Initial residual = 0.00995581, Final residual = 9.75807e-05, No Iterations 295
[INFO] SolveP: 80.112 [ms]
time step continuity errors : sum local = 1.41139e-08, global = -3.75349e-21, cumulative = 2.60921e-20
[INFO] ContinuityError: 0.404 [ms]
[INFO] CorrectBoundary: 0.051 [ms]
[INFO] PISOStep: 89.94 [ms]
[INFO] TimeStep: 216.445 [ms]
ExecutionTime = 5.28 s  ClockTime = 6 s

Time = 0.009

Courant Number mean: 0.0715827 max: 0.47789
[INFO] MatrixAssemblyU: 5.853 [ms]
DILUPBiCGStab:  Solving for Ux, Initial residual = 0.00426272, Final residual = 2.01461e-05, No Iterations 5
DILUPBiCGStab:  Solving for Uy, Initial residual = 0.00916967, Final residual = 3.04255e-05, No Iterations 5
DILUPBiCGStab:  Solving for Uz, Initial residual = 0.0189901, Final residual = 8.40149e-05, No Iterations 5
[INFO] MomentumPredictor: 23.958 [ms]
[INFO] MatrixAssemblyPI: 5.754 [ms]
[INFO] AdjustPhi: 0.472 [ms]
[INFO] ConstrainPressure: 0.001 [ms]
[INFO] MatrixAssemblyPII: 1.577 [ms]
nonePCG:  Solving for p, Initial residual = 0.00965556, Final residual = 9.73244e-05, No Iterations 300
[INFO] SolveP: 84.095 [ms]
time step continuity errors : sum local = 1.39063e-08, global = 1.0644e-21, cumulative = 2.71565e-20
[INFO] ContinuityError: 0.366 [ms]
[INFO] CorrectBoundary: 0.148 [ms]
[INFO] PISOStep: 94.75 [ms]
[INFO] MatrixAssemblyPI: 4.845 [ms]
[INFO] AdjustPhi: 0.41 [ms]
[INFO] ConstrainPressure: 0.001 [ms]
[INFO] MatrixAssemblyPII: 1.481 [ms]
nonePCG:  Solving for p, Initial residual = 0.00911233, Final residual = 9.68807e-05, No Iterations 295
[INFO] SolveP: 78.373 [ms]
time step continuity errors : sum local = 1.36592e-08, global = -3.11661e-21, cumulative = 2.40398e-20
[INFO] ContinuityError: 0.372 [ms]
[INFO] CorrectBoundary: 0.245 [ms]
[INFO] PISOStep: 88.24 [ms]
[INFO] TimeStep: 213.655 [ms]
ExecutionTime = 5.49 s  ClockTime = 6 s

Time = 0.0095

Courant Number mean: 0.0726707 max: 0.478304
[INFO] MatrixAssemblyU: 5.551 [ms]
DILUPBiCGStab:  Solving for Ux, Initial residual = 0.00395834, Final residual = 1.87073e-05, No Iterations 5
DILUPBiCGStab:  Solving for Uy, Initial residual = 0.00852183, Final residual = 2.81583e-05, No Iterations 5
DILUPBiCGStab:  Solving for Uz, Initial residual = 0.0178696, Final residual = 7.81849e-05, No Iterations 5
[INFO] MomentumPredictor: 24.616 [ms]
[INFO] MatrixAssemblyPI: 5.923 [ms]
[INFO] AdjustPhi: 0.227 [ms]
[INFO] ConstrainPressure: 0.002 [ms]
[INFO] MatrixAssemblyPII: 1.571 [ms]
nonePCG:  Solving for p, Initial residual = 0.00881909, Final residual = 9.54207e-05, No Iterations 304
[INFO] SolveP: 84.746 [ms]
time step continuity errors : sum local = 1.47941e-08, global = -5.30295e-21, cumulative = 1.87369e-20
[INFO] ContinuityError: 0.353 [ms]
[INFO] CorrectBoundary: 0.136 [ms]
[INFO] PISOStep: 95.284 [ms]
[INFO] MatrixAssemblyPI: 4.775 [ms]
[INFO] AdjustPhi: 0.445 [ms]
[INFO] ConstrainPressure: 0.001 [ms]
[INFO] MatrixAssemblyPII: 1.472 [ms]
nonePCG:  Solving for p, Initial residual = 0.00836117, Final residual = 9.7252e-05, No Iterations 295
[INFO] SolveP: 78.489 [ms]
time step continuity errors : sum local = 1.42392e-08, global = 1.59692e-21, cumulative = 2.03338e-20
[INFO] ContinuityError: 0.375 [ms]
[INFO] CorrectBoundary: 0.176 [ms]
[INFO] PISOStep: 88.347 [ms]
[INFO] TimeStep: 214.707 [ms]
ExecutionTime = 5.7 s  ClockTime = 6 s

Time = 0.01

Courant Number mean: 0.0736891 max: 0.478682
[INFO] MatrixAssemblyU: 6.071 [ms]
DILUPBiCGStab:  Solving for Ux, Initial residual = 0.00368324, Final residual = 1.74653e-05, No Iterations 5
DILUPBiCGStab:  Solving for Uy, Initial residual = 0.00795689, Final residual = 2.61428e-05, No Iterations 5
DILUPBiCGStab:  Solving for Uz, Initial residual = 0.0166989, Final residual = 7.54161e-05, No Iterations 5
[INFO] MomentumPredictor: 24.639 [ms]
[INFO] MatrixAssemblyPI: 5.428 [ms]
[INFO] AdjustPhi: 0.639 [ms]
[INFO] ConstrainPressure: 0.002 [ms]
[INFO] MatrixAssemblyPII: 1.591 [ms]
nonePCG:  Solving for p, Initial residual = 0.00822378, Final residual = 9.68392e-05, No Iterations 301
[INFO] SolveP: 85.839 [ms]
time step continuity errors : sum local = 1.44646e-08, global = 3.11051e-21, cumulative = 2.34443e-20
[INFO] ContinuityError: 0.387 [ms]
[INFO] CorrectBoundary: 0.26 [ms]
[INFO] PISOStep: 96.292 [ms]
[INFO] MatrixAssemblyPI: 4.775 [ms]
[INFO] AdjustPhi: 0.363 [ms]
[INFO] ConstrainPressure: 0.001 [ms]
[INFO] MatrixAssemblyPII: 1.559 [ms]
nonePCG:  Solving for p, Initial residual = 0.00781711, Final residual = 9.51472e-05, No Iterations 295
[INFO] SolveP: 78.03 [ms]
time step continuity errors : sum local = 1.33641e-08, global = 2.10835e-21, cumulative = 2.55527e-20
[INFO] ContinuityError: 0.381 [ms]
[INFO] CorrectBoundary: 0.116 [ms]
[INFO] PISOStep: 87.944 [ms]
[INFO] TimeStep: 215.784 [ms]
ExecutionTime = 5.92 s  ClockTime = 6 s

End

Finalising parallel run
