/*---------------------------------------------------------------------------*\
| =========                 |                                                 |
| \\      /  F ield         | OpenFOAM: The Open Source CFD Toolbox           |
|  \\    /   O peration     | Version:  2306                                  |
|   \\  /    A nd           | Website:  www.openfoam.com                      |
|    \\/     M anipulation  |                                                 |
\*---------------------------------------------------------------------------*/
Build  : a6e826bd55-20230630 OPENFOAM=2306 version=v2306
Arch   : "LSB;label=32;scalar=64"
Exec   : simpleFoam -parallel -case /home/greole/data/code/exasim_project/micro_benchmarks/WindsorBody/workspace/d118646cc29067695abd1e238b772a53/case
Date   : Aug 27 2023
Time   : 12:24:16
Host   : nla-gpu2.ianm.kit.edu
PID    : 3066092
I/O    : uncollated
Case   : /home/greole/data/code/exasim_project/micro_benchmarks/WindsorBody/workspace/d118646cc29067695abd1e238b772a53/case
nProcs : 16
Hosts  :
(
    (nla-gpu2.ianm.kit.edu 16)
)
Pstream initialized with:
    floatTransfer      : false
    nProcsSimpleSum    : 0
    nonBlockingExchange: 0 (tuning: 0)
    exchange algorithm : -1
    commsType          : nonBlocking
    polling iterations : 0
trapFpe: Floating point exception trapping enabled (FOAM_SIGFPE).
fileModificationChecking : Monitoring run-time modified files using timeStampMaster (fileModificationSkew 5, maxFileModificationPolls 20)
allowSystemOperations : Allowing user-supplied system call operations

// * * * * * * * * * * * * * * * * * * * * * * * * * * * * * * * * * * * * * //
Create time

--> FOAM Warning : 
    From void* Foam::dlLibraryTable::openLibrary(const Foam::fileName&, bool)
    in file db/dynamicLibrary/dlLibraryTable/dlLibraryTable.C at line 188
    Could not load "libpetscFoam.so"
libpetscFoam.so: cannot open shared object file: No such file or directory
Create mesh for time = 0


SIMPLE: convergence criteria
    field p	 tolerance 1e-08
    field U	 tolerance 1e-08
    field k	 tolerance 1e-08
    field omega	 tolerance 1e-08
    field nuTilda	 tolerance 1e-08

Reading field p

Reading field U

Reading/calculating face flux field phi

Selecting incompressible transport model Newtonian
Selecting turbulence model type RAS
Selecting RAS turbulence model SpalartAllmaras
Selecting patchDistMethod meshWave
ft2 term: inactive
RAS
{
    RASModel        SpalartAllmaras;
    turbulence      on;
    printCoeffs     on;
    sigmaNut        0.66666;
    kappa           0.41;
    Cb1             0.1355;
    Cb2             0.622;
    Cw2             0.3;
    Cw3             2;
    Cv1             7.1;
    Cs              0.3;
    ck              0.07000000000000001;
    ft2             false;
    Ct3             1.2;
    Ct4             0.5;
}

No MRF models present

Creating finite volume options from "system/fvOptions"

Selecting finite volume options type velocityDampingConstraint
    Source: velocityDamping
    - selecting all cells
    - selected 6307136 cell(s) with volume 27.82583051608782

Starting time loop

--> FOAM Warning : 
    From bool Foam::functionObjectList::read()
    in file db/functionObjects/functionObjectList/functionObjectList.C at line 1035
    Reading "system/controlDict" at line 2 to 41
    Entry 'lref' is not a dictionary
--> FOAM Warning : 
    From bool Foam::functionObjectList::read()
    in file db/functionObjects/functionObjectList/functionObjectList.C at line 1035
    Reading "system/controlDict" at line 2 to 41
    Entry 'Aref' is not a dictionary
--> FOAM Warning : 
    From bool Foam::functionObjectList::read()
    in file db/functionObjects/functionObjectList/functionObjectList.C at line 1035
    Reading "system/controlDict" at line 2 to 41
    Entry 'yawAngle' is not a dictionary
--> FOAM Warning : 
    From bool Foam::functionObjectList::read()
    in file db/functionObjects/functionObjectList/functionObjectList.C at line 1035
    Reading "system/controlDict" at line 2 to 41
    Entry 'lDomain' is not a dictionary
--> FOAM Warning : 
    From bool Foam::functionObjectList::read()
    in file db/functionObjects/functionObjectList/functionObjectList.C at line 1035
    Reading "system/controlDict" at line 2 to 41
    Entry 'bDomain' is not a dictionary
--> FOAM Warning : 
    From bool Foam::functionObjectList::read()
    in file db/functionObjects/functionObjectList/functionObjectList.C at line 1035
    Reading "system/controlDict" at line 2 to 41
    Entry 'hDomain' is not a dictionary
--> FOAM Warning : 
    From bool Foam::functionObjectList::read()
    in file db/functionObjects/functionObjectList/functionObjectList.C at line 1035
    Reading "system/controlDict" at line 2 to 41
    Entry 'xCenter' is not a dictionary
--> FOAM Warning : 
    From bool Foam::functionObjectList::read()
    in file db/functionObjects/functionObjectList/functionObjectList.C at line 1035
    Reading "system/controlDict" at line 2 to 41
    Entry 'yCenter' is not a dictionary
--> FOAM Warning : 
    From bool Foam::functionObjectList::read()
    in file db/functionObjects/functionObjectList/functionObjectList.C at line 1035
    Reading "system/controlDict" at line 2 to 41
    Entry 'zCenter' is not a dictionary
--> FOAM Warning : 
    From bool Foam::functionObjectList::read()
    in file db/functionObjects/functionObjectList/functionObjectList.C at line 1035
    Reading "system/controlDict" at line 2 to 41
    Entry 'inletPatch' is not a dictionary
--> FOAM Warning : 
    From bool Foam::functionObjectList::read()
    in file db/functionObjects/functionObjectList/functionObjectList.C at line 1035
    Reading "system/controlDict" at line 2 to 41
    Entry 'outletPatch' is not a dictionary
--> FOAM Warning : 
    From bool Foam::functionObjectList::read()
    in file db/functionObjects/functionObjectList/functionObjectList.C at line 1035
    Reading "system/controlDict" at line 2 to 41
    Entry 'wallPatches' is not a dictionary
--> FOAM Warning : 
    From bool Foam::functionObjectList::read()
    in file db/functionObjects/functionObjectList/functionObjectList.C at line 1035
    Reading "system/controlDict" at line 2 to 41
    Entry 'forcesWallPatches' is not a dictionary
--> FOAM Warning : 
    From bool Foam::functionObjectList::read()
    in file db/functionObjects/functionObjectList/functionObjectList.C at line 1035
    Reading "system/controlDict" at line 2 to 41
    Entry 'symmPatches' is not a dictionary
--> FOAM Warning : 
    From bool Foam::functionObjectList::read()
    in file db/functionObjects/functionObjectList/functionObjectList.C at line 1035
    Reading "system/controlDict" at line 2 to 41
    Entry 'Uinf' is not a dictionary
--> FOAM Warning : 
    From bool Foam::functionObjectList::read()
    in file db/functionObjects/functionObjectList/functionObjectList.C at line 1035
    Reading "system/controlDict" at line 2 to 41
    Entry 'UinfMag' is not a dictionary
--> FOAM Warning : 
    From bool Foam::functionObjectList::read()
    in file db/functionObjects/functionObjectList/functionObjectList.C at line 1035
    Reading "system/controlDict" at line 2 to 41
    Entry 'nu' is not a dictionary
--> FOAM Warning : 
    From bool Foam::functionObjectList::read()
    in file db/functionObjects/functionObjectList/functionObjectList.C at line 1035
    Reading "system/controlDict" at line 2 to 41
    Entry 'pref' is not a dictionary
--> FOAM Warning : 
    From bool Foam::functionObjectList::read()
    in file db/functionObjects/functionObjectList/functionObjectList.C at line 1035
    Reading "system/controlDict" at line 2 to 41
    Entry 'viscRatio' is not a dictionary
--> FOAM Warning : 
    From bool Foam::functionObjectList::read()
    in file db/functionObjects/functionObjectList/functionObjectList.C at line 1035
    Reading "system/controlDict" at line 2 to 41
    Entry 'Tu' is not a dictionary
--> FOAM Warning : 
    From bool Foam::functionObjectList::read()
    in file db/functionObjects/functionObjectList/functionObjectList.C at line 1035
    Reading "system/controlDict" at line 2 to 41
    Entry 'LESturbModel' is not a dictionary
--> FOAM Warning : 
    From bool Foam::functionObjectList::read()
    in file db/functionObjects/functionObjectList/functionObjectList.C at line 1035
    Reading "system/controlDict" at line 2 to 41
    Entry 'RASturbModel' is not a dictionary
--> FOAM Warning : 
    From bool Foam::functionObjectList::read()
    in file db/functionObjects/functionObjectList/functionObjectList.C at line 1035
    Reading "system/controlDict" at line 2 to 41
    Entry 'deltaTurb' is not a dictionary
--> FOAM Warning : 
    From bool Foam::functionObjectList::read()
    in file db/functionObjects/functionObjectList/functionObjectList.C at line 1035
    Reading "system/controlDict" at line 2 to 41
    Entry 'dt' is not a dictionary
--> FOAM Warning : 
    From bool Foam::functionObjectList::read()
    in file db/functionObjects/functionObjectList/functionObjectList.C at line 1035
    Reading "system/controlDict" at line 2 to 41
    Entry 'tAvg' is not a dictionary
--> FOAM Warning : 
    From bool Foam::functionObjectList::read()
    in file db/functionObjects/functionObjectList/functionObjectList.C at line 1035
    Reading "system/controlDict" at line 2 to 41
    Entry 'tEnd' is not a dictionary
--> FOAM Warning : 
    From bool Foam::functionObjectList::read()
    in file db/functionObjects/functionObjectList/functionObjectList.C at line 1035
    Reading "system/controlDict" at line 2 to 41
    Entry 'writeInterval_' is not a dictionary
--> FOAM Warning : 
    From bool Foam::functionObjectList::read()
    in file db/functionObjects/functionObjectList/functionObjectList.C at line 1035
    Reading "system/controlDict" at line 2 to 41
    Entry 'nCores' is not a dictionary
--> FOAM Warning : 
    From bool Foam::functionObjectList::read()
    in file db/functionObjects/functionObjectList/functionObjectList.C at line 1035
    Reading "system/controlDict" at line 2 to 41
    Entry 'interpScheme' is not a dictionary
--> FOAM Warning : 
    From bool Foam::functionObjectList::read()
    in file db/functionObjects/functionObjectList/functionObjectList.C at line 1035
    Reading "system/controlDict" at line 2 to 41
    Entry 'probeField' is not a dictionary
wallShearStress wallShearStress:
    processing wall patches: 
        Windsor_Body
        CFDWT_Floor
        Windsor_Pins
        Windsor_Base

pressure calc_cp:
    Operating mode: staticCoeff
    Not including hydrostatic effects

forceCoeffs forceCoeffsAll:
    rho: rhoInf
    Freestream density (rhoInf) set to 1
    Not including porosity effects
    magUInf: 40
    lRef   : 0.6375
    Aref   : 0.1124
    rhoInf : 1
    Selecting all coefficients
    - Drag force: Cd
    - Drag force front: Cd(f)
    - Drag force rear: Cd(r)
    - Lift force: Cl
    - Lift force front: Cl(f)
    - Lift force rear: Cl(r)
    - Pitch moment: CmPitch
    - Roll moment: CmRoll
    - Yaw moment: CmYaw
    - Side force: Cs
    - Side force front: Cs(f)
    - Side force rear: Cs(r)


forceCoeffs dragCoeffBase:
    rho: rhoInf
    Freestream density (rhoInf) set to 1
    Not including porosity effects
    magUInf: 40
    lRef   : 0.6375
    Aref   : 0.1124
    rhoInf : 1
    Selecting coefficients:
    - Drag force: Cd


Time = 1

velocityDampingConstraint velocityDamping damped 0 (0%) of cells, with max limit 300
[INFO] MatrixAssemblyU: 575.699 [ms]
[OGL LOG][lduLduBase.H:119] Initialising OGL
	OGL commit:  4647ee1+
	Branch: PersistentDeviceIdGuard 
	Build type: Release
	Ginkgo version: 1.5.0 ( develop)
	Ginkgo commit: 4292ffdee
	MPI is GPU aware: 1
	Forces host buffer based communication: 0
	CPU ranks per GPU: 1
	Matrix format: Coo
	End OGL_INFO
[OGL LOG][Proc: 0]: global_index_init: 11.853 [ms]
[OGL LOG][Proc: 0]Ux_local_cols: call_init: 0.039 [ms]
[OGL LOG][Proc: 0]Ux_local_rows: call_init: 0.003 [ms]
[OGL LOG][Proc: 0]Ux_local_ldu_map: call_init: 0.003 [ms]
[OGL LOG][Proc: 0]Ux_local_coeffs: call_init: 0.011 [ms]
[OGL LOG][Proc: 0]Ux_non_local_cols: call_init: 0.003 [ms]
[OGL LOG][Proc: 0]Ux_non_local_rows: call_init: 0.002 [ms]
[OGL LOG][Proc: 0]Ux_non_local_ldu_map: call_init: 0.003 [ms]
[OGL LOG][Proc: 0]Ux_non_local_coeffs: call_init: 0.002 [ms]
[OGL LOG][Proc: 0]Ux: init_local_sparsity_pattern: 84.694 [ms]
[OGL LOG][Proc: 0]Ux: init_non_local_sparsity_pattern: 0.8140000000000001 [ms]
[OGL LOG][Proc: 0]Ux: update_local_matrix_data: 11.351 [ms]
[OGL LOG][Proc: 0]Ux: update_non_local_matrix_data: 0.101 [ms]
[OGL LOG][Proc: 0]device_partition: call_init: 0.321 [ms]
[OGL LOG][Proc: 0]Ux_matrix: call_init: 73.196 [ms]
[OGL LOG][Proc: 0]Ux_rhs: call_init: 3.389 [ms]
[OGL LOG][Proc: 0]Ux_solution: call_init: 1.061 [ms]
[OGL LOG][Preconditioner.H:121] Generate preconditioner BJ MaxBlockSize 1
[OGL LOG][Proc: 0]Ux: init_precond: 5.836 [ms]
[OGL LOG][StoppingCriterion.H:373] Creating stopping criterion with minIter 0 frequency 1
[OGL LOG][Proc: 0]Ux: generate_solver: 0.017 [ms]
[OGL LOG][Proc: 0]Ux: solve: 1362.818 [ms]
[OGL LOG][Proc: 0]Ux: copy_x_back: 1.316 [ms]
[OGL LOG][lduLduBase.H:336] 
Statistics:
	Time per iteration: 56784 [mu s]
	Time per residual norm calculation: 1691.000000 [mu s]
	Time per iteration and DOF: 9.003135 [ns]
	Retrieve results bandwidth 2.897000 [GByte/s]
[OGL LOG][Proc: 0]Ux: solve_multi_gpu: 1448.832 [ms]
BJhipGKOBiCGStab:  Solving for Ux, Initial residual = 0.9999999999999023, Final residual = 0.05874866565020946, No Iterations 24
[OGL LOG][lduLduBase.H:119] Initialising OGL
	OGL commit:  4647ee1+
	Branch: PersistentDeviceIdGuard 
	Build type: Release
	Ginkgo version: 1.5.0 ( develop)
	Ginkgo commit: 4292ffdee
	MPI is GPU aware: 1
	Forces host buffer based communication: 0
	CPU ranks per GPU: 1
	Matrix format: Coo
	End OGL_INFO
[OGL LOG][Proc: 0]: global_index_init: 0.906 [ms]
[OGL LOG][Proc: 0]Uy_local_cols: call_init: 0.007 [ms]
[OGL LOG][Proc: 0]Uy_local_rows: call_init: 0.002 [ms]
[OGL LOG][Proc: 0]Uy_local_ldu_map: call_init: 0.003 [ms]
[OGL LOG][Proc: 0]Uy_local_coeffs: call_init: 0.003 [ms]
[OGL LOG][Proc: 0]Uy_non_local_cols: call_init: 0.002 [ms]
[OGL LOG][Proc: 0]Uy_non_local_rows: call_init: 0.002 [ms]
[OGL LOG][Proc: 0]Uy_non_local_ldu_map: call_init: 0.002 [ms]
[OGL LOG][Proc: 0]Uy_non_local_coeffs: call_init: 0.003 [ms]
[OGL LOG][Proc: 0]Uy: init_local_sparsity_pattern: 88.024 [ms]
[OGL LOG][Proc: 0]Uy: init_non_local_sparsity_pattern: 0.742 [ms]
[OGL LOG][Proc: 0]Uy: update_local_matrix_data: 10.132 [ms]
[OGL LOG][Proc: 0]Uy: update_non_local_matrix_data: 0.083 [ms]
[OGL LOG][Proc: 0]Uy_matrix: call_init: 48.735 [ms]
[OGL LOG][Proc: 0]Uy_rhs: call_init: 3.411 [ms]
[OGL LOG][Proc: 0]Uy_solution: call_init: 0.898 [ms]
[OGL LOG][Preconditioner.H:121] Generate preconditioner BJ MaxBlockSize 1
[OGL LOG][Proc: 0]Uy: init_precond: 0.435 [ms]
[OGL LOG][StoppingCriterion.H:373] Creating stopping criterion with minIter 0 frequency 1
[OGL LOG][Proc: 0]Uy: generate_solver: 0.002 [ms]
[OGL LOG][Proc: 0]Uy: solve: 141.476 [ms]
[OGL LOG][Proc: 0]Uy: copy_x_back: 1.223 [ms]
[OGL LOG][lduLduBase.H:336] 
Statistics:
	Time per iteration: 2720 [mu s]
	Time per residual norm calculation: 272.000000 [mu s]
	Time per iteration and DOF: 0.431258 [ns]
	Retrieve results bandwidth 3.117000 [GByte/s]
[OGL LOG][Proc: 0]Uy: solve_multi_gpu: 197.056 [ms]
BJhipGKOBiCGStab:  Solving for Uy, Initial residual = 1.000000000000004, Final residual = 0.06026226507703172, No Iterations 52
[OGL LOG][lduLduBase.H:119] Initialising OGL
	OGL commit:  4647ee1+
	Branch: PersistentDeviceIdGuard 
	Build type: Release
	Ginkgo version: 1.5.0 ( develop)
	Ginkgo commit: 4292ffdee
	MPI is GPU aware: 1
	Forces host buffer based communication: 0
	CPU ranks per GPU: 1
	Matrix format: Coo
	End OGL_INFO
[OGL LOG][Proc: 0]: global_index_init: 1.049 [ms]
[OGL LOG][Proc: 0]Uz_local_cols: call_init: 0.008 [ms]
[OGL LOG][Proc: 0]Uz_local_rows: call_init: 0.003 [ms]
[OGL LOG][Proc: 0]Uz_local_ldu_map: call_init: 0.003 [ms]
[OGL LOG][Proc: 0]Uz_local_coeffs: call_init: 0.003 [ms]
[OGL LOG][Proc: 0]Uz_non_local_cols: call_init: 0.002 [ms]
[OGL LOG][Proc: 0]Uz_non_local_rows: call_init: 0.002 [ms]
[OGL LOG][Proc: 0]Uz_non_local_ldu_map: call_init: 0.002 [ms]
[OGL LOG][Proc: 0]Uz_non_local_coeffs: call_init: 0.002 [ms]
[OGL LOG][Proc: 0]Uz: init_local_sparsity_pattern: 90.352 [ms]
[OGL LOG][Proc: 0]Uz: init_non_local_sparsity_pattern: 0.743 [ms]
[OGL LOG][Proc: 0]Uz: update_local_matrix_data: 10.424 [ms]
[OGL LOG][Proc: 0]Uz: update_non_local_matrix_data: 0.08799999999999999 [ms]
[OGL LOG][Proc: 0]Uz_matrix: call_init: 44.05 [ms]
[OGL LOG][Proc: 0]Uz_rhs: call_init: 1.956 [ms]
[OGL LOG][Proc: 0]Uz_solution: call_init: 0.909 [ms]
[OGL LOG][Preconditioner.H:121] Generate preconditioner BJ MaxBlockSize 1
[OGL LOG][Proc: 0]Uz: init_precond: 0.364 [ms]
[OGL LOG][StoppingCriterion.H:373] Creating stopping criterion with minIter 0 frequency 1
[OGL LOG][Proc: 0]Uz: generate_solver: 0.002 [ms]
[OGL LOG][Proc: 0]Uz: solve: 46.646 [ms]
[OGL LOG][Proc: 0]Uz: copy_x_back: 1.218 [ms]
[OGL LOG][lduLduBase.H:336] 
Statistics:
	Time per iteration: 46646 [mu s]
	Time per residual norm calculation: 316.000000 [mu s]
	Time per iteration and DOF: 7.395750 [ns]
	Retrieve results bandwidth 3.130000 [GByte/s]
[OGL LOG][Proc: 0]Uz: solve_multi_gpu: 96.027 [ms]
BJhipGKOBiCGStab:  Solving for Uz, Initial residual = 1.000000000000019, Final residual = 0.09952964467305385, No Iterations 1
[INFO] MomentumPredictor: 2337.972 [ms]
[INFO] MatrixAssemblyPI: 85.494 [ms]
[INFO] MatrixAssemblyPII: 45.07 [ms]
DICPCG:  Solving for p, Initial residual = 1, Final residual = 0.009491113835235734, No Iterations 421
[INFO] SolveP: 5065.91 [ms]
time step continuity errors : sum local = 0.003485116847034918, global = 7.155231536613339e-05, cumulative = 7.155231536613339e-05
[INFO] postSolveP: 22.247 [ms]
[OGL LOG][lduLduBase.H:119] Initialising OGL
	OGL commit:  4647ee1+
	Branch: PersistentDeviceIdGuard 
	Build type: Release
	Ginkgo version: 1.5.0 ( develop)
	Ginkgo commit: 4292ffdee
	MPI is GPU aware: 1
	Forces host buffer based communication: 0
	CPU ranks per GPU: 1
	Matrix format: Coo
	End OGL_INFO
[OGL LOG][Proc: 0]: global_index_init: 0.648 [ms]
[OGL LOG][Proc: 0]nuTilda_local_cols: call_init: 0.01 [ms]
[OGL LOG][Proc: 0]nuTilda_local_rows: call_init: 0.003 [ms]
[OGL LOG][Proc: 0]nuTilda_local_ldu_map: call_init: 0.003 [ms]
[OGL LOG][Proc: 0]nuTilda_local_coeffs: call_init: 0.007 [ms]
[OGL LOG][Proc: 0]nuTilda_non_local_cols: call_init: 0.003 [ms]
[OGL LOG][Proc: 0]nuTilda_non_local_rows: call_init: 0.003 [ms]
[OGL LOG][Proc: 0]nuTilda_non_local_ldu_map: call_init: 0.003 [ms]
[OGL LOG][Proc: 0]nuTilda_non_local_coeffs: call_init: 0.002 [ms]
[OGL LOG][Proc: 0]nuTilda: init_local_sparsity_pattern: 85.84 [ms]
[OGL LOG][Proc: 0]nuTilda: init_non_local_sparsity_pattern: 0.76 [ms]
[OGL LOG][Proc: 0]nuTilda: update_local_matrix_data: 12.863 [ms]
[OGL LOG][Proc: 0]nuTilda: update_non_local_matrix_data: 0.093 [ms]
[OGL LOG][Proc: 0]nuTilda_matrix: call_init: 38.842 [ms]
[OGL LOG][Proc: 0]nuTilda_rhs: call_init: 1.577 [ms]
[OGL LOG][Proc: 0]nuTilda_solution: call_init: 0.68 [ms]
[OGL LOG][Preconditioner.H:121] Generate preconditioner BJ MaxBlockSize 1
[OGL LOG][Proc: 0]nuTilda: init_precond: 0.398 [ms]
[OGL LOG][StoppingCriterion.H:373] Creating stopping criterion with minIter 0 frequency 1
[OGL LOG][Proc: 0]nuTilda: generate_solver: 0.002 [ms]
[OGL LOG][Proc: 0]nuTilda: solve: 34.953 [ms]
[OGL LOG][Proc: 0]nuTilda: copy_x_back: 1.26 [ms]
[OGL LOG][lduLduBase.H:336] 
Statistics:
	Time per iteration: 17476 [mu s]
	Time per residual norm calculation: 258.000000 [mu s]
	Time per iteration and DOF: 2.770830 [ns]
	Retrieve results bandwidth 3.026000 [GByte/s]
[OGL LOG][Proc: 0]nuTilda: solve_multi_gpu: 78.626 [ms]
BJhipGKOBiCGStab:  Solving for nuTilda, Initial residual = 0.9999999999971343, Final residual = 0.09384221564192093, No Iterations 2
[INFO] TimeStep: 8597.281999999999 [ms]
ExecutionTime = 17.04 s  ClockTime = 17 s

--> FOAM Warning : 
    From virtual bool Foam::functionObjects::fieldSelection::checkSelection()
    in file functionObjects/fieldSelections/fieldSelection/fieldSelection.C at line 166
    Field k not found
--> FOAM Warning : 
    From virtual bool Foam::functionObjects::fieldSelection::checkSelection()
    in file functionObjects/fieldSelections/fieldSelection/fieldSelection.C at line 166
    Field gammaInt not found
--> FOAM Warning : 
    From virtual bool Foam::functionObjects::fieldSelection::checkSelection()
    in file functionObjects/fieldSelections/fieldSelection/fieldSelection.C at line 166
    Field omega not found
--> FOAM Warning : 
    From virtual bool Foam::functionObjects::fieldSelection::checkSelection()
    in file functionObjects/fieldSelections/fieldSelection/fieldSelection.C at line 166
    Field ReThetat not found
--> FOAM Warning : 
    From virtual bool Foam::functionObjects::fieldSelection::checkSelection()
    in file functionObjects/fieldSelections/fieldSelection/fieldSelection.C at line 166
    Field epsilon not found
--> FOAM Warning : 
    From virtual bool Foam::functionObjects::solverFieldSelection::updateSelection()
    in file functionObjects/fieldSelections/solverFieldSelection/solverFieldSelection.C at line 85
    Valid solver fields are: 3(U nuTilda p)Time = 2

velocityDampingConstraint velocityDamping damped 0 (0%) of cells, with max limit 300
[INFO] MatrixAssemblyU: 539.236 [ms]
[OGL LOG][Proc: 0]: global_index_init: 0.104 [ms]
[OGL LOG][Proc: 0]Ux_local_coeffs: call_update: 0.005 [ms]
[OGL LOG][Proc: 0]Ux_non_local_coeffs: call_update: 0 [ms]
[OGL LOG][Proc: 0]Ux: update_local_matrix_data: 11.116 [ms]
[OGL LOG][Proc: 0]Ux: update_non_local_matrix_data: 0.286 [ms]
[OGL LOG][Proc: 0]Ux_matrix: call_update: 4.01 [ms]
[OGL LOG][Proc: 0]Ux_rhs: call_update: 1.292 [ms]
[OGL LOG][Preconditioner.H:121] Generate preconditioner BJ MaxBlockSize 1
[OGL LOG][Proc: 0]Ux: init_precond: 0.469 [ms]
[OGL LOG][StoppingCriterion.H:373] Creating stopping criterion with minIter 28 frequency 1
[OGL LOG][Proc: 0]Ux: generate_solver: 0.002 [ms]
[OGL LOG][Proc: 0]Ux: solve: 46.412 [ms]
[OGL LOG][Proc: 0]Ux: copy_x_back: 1.271 [ms]
[OGL LOG][lduLduBase.H:336] 
Statistics:
	Time per iteration: 3315 [mu s]
	Time per residual norm calculation: 266.000000 [mu s]
	Time per iteration and DOF: 0.525595 [ns]
	Retrieve results bandwidth 2.999000 [GByte/s]
[OGL LOG][Proc: 0]Ux: solve_multi_gpu: 54.337 [ms]
BJhipGKOBiCGStab:  Solving for Ux, Initial residual = 0.6035889568060314, Final residual = 0.03459128803293571, No Iterations 14
[OGL LOG][Proc: 0]: global_index_init: 0.192 [ms]
[OGL LOG][Proc: 0]Uy_local_coeffs: call_update: 0 [ms]
[OGL LOG][Proc: 0]Uy_non_local_coeffs: call_update: 0 [ms]
[OGL LOG][Proc: 0]Uy: update_local_matrix_data: 11.772 [ms]
[OGL LOG][Proc: 0]Uy: update_non_local_matrix_data: 0.08700000000000001 [ms]
[OGL LOG][Proc: 0]Uy_matrix: call_update: 3.747 [ms]
[OGL LOG][Proc: 0]Uy_rhs: call_update: 1.319 [ms]
[OGL LOG][Preconditioner.H:121] Generate preconditioner BJ MaxBlockSize 1
[OGL LOG][Proc: 0]Uy: init_precond: 0.469 [ms]
[OGL LOG][StoppingCriterion.H:373] Creating stopping criterion with minIter 62 frequency 2
[OGL LOG][Proc: 0]Uy: generate_solver: 0.002 [ms]
[OGL LOG][Proc: 0]Uy: solve: 75.259 [ms]
[OGL LOG][Proc: 0]Uy: copy_x_back: 1.266 [ms]
[OGL LOG][lduLduBase.H:336] 
Statistics:
	Time per iteration: 2427 [mu s]
	Time per residual norm calculation: 284.000000 [mu s]
	Time per iteration and DOF: 0.384802 [ns]
	Retrieve results bandwidth 3.011000 [GByte/s]
[OGL LOG][Proc: 0]Uy: solve_multi_gpu: 82.919 [ms]
BJhipGKOBiCGStab:  Solving for Uy, Initial residual = 0.9969827842123256, Final residual = 0.001610470572407388, No Iterations 31
[OGL LOG][Proc: 0]: global_index_init: 0.173 [ms]
[OGL LOG][Proc: 0]Uz_local_coeffs: call_update: 0 [ms]
[OGL LOG][Proc: 0]Uz_non_local_coeffs: call_update: 0 [ms]
[OGL LOG][Proc: 0]Uz: update_local_matrix_data: 12.733 [ms]
[OGL LOG][Proc: 0]Uz: update_non_local_matrix_data: 0.068 [ms]
[OGL LOG][Proc: 0]Uz_matrix: call_update: 3.49 [ms]
[OGL LOG][Proc: 0]Uz_rhs: call_update: 4.388 [ms]
[OGL LOG][Preconditioner.H:121] Generate preconditioner BJ MaxBlockSize 1
[OGL LOG][Proc: 0]Uz: init_precond: 0.462 [ms]
[OGL LOG][StoppingCriterion.H:373] Creating stopping criterion with minIter 1 frequency 1
[OGL LOG][Proc: 0]Uz: generate_solver: 0.002 [ms]
[OGL LOG][Proc: 0]Uz: solve: 46.934 [ms]
[OGL LOG][Proc: 0]Uz: copy_x_back: 1.245 [ms]
[OGL LOG][lduLduBase.H:336] 
Statistics:
	Time per iteration: 4266 [mu s]
	Time per residual norm calculation: 264.000000 [mu s]
	Time per iteration and DOF: 0.676377 [ns]
	Retrieve results bandwidth 3.062000 [GByte/s]
[OGL LOG][Proc: 0]Uz: solve_multi_gpu: 57.376 [ms]
BJhipGKOBiCGStab:  Solving for Uz, Initial residual = 0.999938225211725, Final residual = 0.07556938560683737, No Iterations 11
[INFO] MomentumPredictor: 272.212 [ms]
[INFO] MatrixAssemblyPI: 82.68600000000001 [ms]
[INFO] MatrixAssemblyPII: 40.29 [ms]
DICPCG:  Solving for p, Initial residual = 0.2217493531418187, Final residual = 0.002207554414154817, No Iterations 338
[INFO] SolveP: 3555.423 [ms]
time step continuity errors : sum local = 0.04553952089657262, global = 0.002092392106143995, cumulative = 0.002163944421510128
[INFO] postSolveP: 21.464 [ms]
[OGL LOG][Proc: 0]: global_index_init: 0.629 [ms]
[OGL LOG][Proc: 0]nuTilda_local_coeffs: call_update: 0 [ms]
[OGL LOG][Proc: 0]nuTilda_non_local_coeffs: call_update: 0 [ms]
[OGL LOG][Proc: 0]nuTilda: update_local_matrix_data: 14.026 [ms]
[OGL LOG][Proc: 0]nuTilda: update_non_local_matrix_data: 0.07200000000000001 [ms]
[OGL LOG][Proc: 0]nuTilda_matrix: call_update: 3.37 [ms]
[OGL LOG][Proc: 0]nuTilda_rhs: call_update: 0.454 [ms]
[OGL LOG][Preconditioner.H:121] Generate preconditioner BJ MaxBlockSize 1
[OGL LOG][Proc: 0]nuTilda: init_precond: 0.381 [ms]
[OGL LOG][StoppingCriterion.H:373] Creating stopping criterion with minIter 3 frequency 1
[OGL LOG][Proc: 0]nuTilda: generate_solver: 0.001 [ms]
[OGL LOG][Proc: 0]nuTilda: solve: 26.695 [ms]
[OGL LOG][Proc: 0]nuTilda: copy_x_back: 1.253 [ms]
[OGL LOG][lduLduBase.H:336] 
Statistics:
	Time per iteration: 13347 [mu s]
	Time per residual norm calculation: 289.000000 [mu s]
	Time per iteration and DOF: 2.116174 [ns]
	Retrieve results bandwidth 3.043000 [GByte/s]
[OGL LOG][Proc: 0]nuTilda: solve_multi_gpu: 33.124 [ms]
BJhipGKOBiCGStab:  Solving for nuTilda, Initial residual = 0.4032913367373289, Final residual = 0.006127163362991147, No Iterations 2
[INFO] TimeStep: 4846.226 [ms]
ExecutionTime = 22.29 s  ClockTime = 22 s

Time = 3

velocityDampingConstraint velocityDamping damped 891 (0.01%) of cells, with max limit 300
[INFO] MatrixAssemblyU: 557.972 [ms]
[OGL LOG][Proc: 0]: global_index_init: 0.081 [ms]
[OGL LOG][Proc: 0]Ux_local_coeffs: call_update: 0 [ms]
[OGL LOG][Proc: 0]Ux_non_local_coeffs: call_update: 0 [ms]
[OGL LOG][Proc: 0]Ux: update_local_matrix_data: 11.258 [ms]
[OGL LOG][Proc: 0]Ux: update_non_local_matrix_data: 0.07100000000000001 [ms]
[OGL LOG][Proc: 0]Ux_matrix: call_update: 3.738 [ms]
[OGL LOG][Proc: 0]Ux_rhs: call_update: 5.337 [ms]
[OGL LOG][Preconditioner.H:121] Generate preconditioner BJ MaxBlockSize 1
[OGL LOG][Proc: 0]Ux: init_precond: 0.451 [ms]
[OGL LOG][StoppingCriterion.H:373] Creating stopping criterion with minIter 17 frequency 1
[OGL LOG][Proc: 0]Ux: generate_solver: 0.002 [ms]
[OGL LOG][Proc: 0]Ux: solve: 48.951 [ms]
[OGL LOG][Proc: 0]Ux: copy_x_back: 1.256 [ms]
[OGL LOG][lduLduBase.H:336] 
Statistics:
	Time per iteration: 3496 [mu s]
	Time per residual norm calculation: 268.000000 [mu s]
	Time per iteration and DOF: 0.554293 [ns]
	Retrieve results bandwidth 3.035000 [GByte/s]
[OGL LOG][Proc: 0]Ux: solve_multi_gpu: 60.613 [ms]
BJhipGKOBiCGStab:  Solving for Ux, Initial residual = 0.1297898548605889, Final residual = 0.006578835920735475, No Iterations 14
[OGL LOG][Proc: 0]: global_index_init: 0.096 [ms]
[OGL LOG][Proc: 0]Uy_local_coeffs: call_update: 0 [ms]
[OGL LOG][Proc: 0]Uy_non_local_coeffs: call_update: 0 [ms]
[OGL LOG][Proc: 0]Uy: update_local_matrix_data: 11.721 [ms]
[OGL LOG][Proc: 0]Uy: update_non_local_matrix_data: 0.078 [ms]
[OGL LOG][Proc: 0]Uy_matrix: call_update: 3.907 [ms]
[OGL LOG][Proc: 0]Uy_rhs: call_update: 0.651 [ms]
[OGL LOG][Preconditioner.H:121] Generate preconditioner BJ MaxBlockSize 1
[OGL LOG][Proc: 0]Uy: init_precond: 0.393 [ms]
[OGL LOG][StoppingCriterion.H:373] Creating stopping criterion with minIter 37 frequency 1
[OGL LOG][Proc: 0]Uy: generate_solver: 0.002 [ms]
[OGL LOG][Proc: 0]Uy: solve: 54.877 [ms]
[OGL LOG][Proc: 0]Uy: copy_x_back: 1.267 [ms]
[OGL LOG][lduLduBase.H:336] 
Statistics:
	Time per iteration: 2888 [mu s]
	Time per residual norm calculation: 275.000000 [mu s]
	Time per iteration and DOF: 0.457894 [ns]
	Retrieve results bandwidth 3.009000 [GByte/s]
[OGL LOG][Proc: 0]Uy: solve_multi_gpu: 62.06 [ms]
BJhipGKOBiCGStab:  Solving for Uy, Initial residual = 0.3018418447272774, Final residual = 0.01317347925453096, No Iterations 19
[OGL LOG][Proc: 0]: global_index_init: 1.125 [ms]
[OGL LOG][Proc: 0]Uz_local_coeffs: call_update: 0 [ms]
[OGL LOG][Proc: 0]Uz_non_local_coeffs: call_update: 0 [ms]
[OGL LOG][Proc: 0]Uz: update_local_matrix_data: 12.852 [ms]
[OGL LOG][Proc: 0]Uz: update_non_local_matrix_data: 0.06900000000000001 [ms]
[OGL LOG][Proc: 0]Uz_matrix: call_update: 3.164 [ms]
[OGL LOG][Proc: 0]Uz_rhs: call_update: 0.409 [ms]
[OGL LOG][Preconditioner.H:121] Generate preconditioner BJ MaxBlockSize 1
[OGL LOG][Proc: 0]Uz: init_precond: 0.376 [ms]
[OGL LOG][StoppingCriterion.H:373] Creating stopping criterion with minIter 13 frequency 1
[OGL LOG][Proc: 0]Uz: generate_solver: 0.001 [ms]
[OGL LOG][Proc: 0]Uz: solve: 44.799 [ms]
[OGL LOG][Proc: 0]Uz: copy_x_back: 1.274 [ms]
[OGL LOG][lduLduBase.H:336] 
Statistics:
	Time per iteration: 4072 [mu s]
	Time per residual norm calculation: 251.000000 [mu s]
	Time per iteration and DOF: 0.645618 [ns]
	Retrieve results bandwidth 2.992000 [GByte/s]
[OGL LOG][Proc: 0]Uz: solve_multi_gpu: 50.876 [ms]
BJhipGKOBiCGStab:  Solving for Uz, Initial residual = 0.2889704907150412, Final residual = 0.02535851893109525, No Iterations 11
[INFO] MomentumPredictor: 250.135 [ms]
[INFO] MatrixAssemblyPI: 86.38200000000001 [ms]
[INFO] MatrixAssemblyPII: 40.343 [ms]
DICPCG:  Solving for p, Initial residual = 0.1501842184173534, Final residual = 0.00149756822825823, No Iterations 310
[INFO] SolveP: 3221.206 [ms]
time step continuity errors : sum local = 0.01635055592910167, global = 0.0007128360417282053, cumulative = 0.002876780463238333
[INFO] postSolveP: 21.792 [ms]
[OGL LOG][Proc: 0]: global_index_init: 0.338 [ms]
[OGL LOG][Proc: 0]nuTilda_local_coeffs: call_update: 0 [ms]
[OGL LOG][Proc: 0]nuTilda_non_local_coeffs: call_update: 0 [ms]
[OGL LOG][Proc: 0]nuTilda: update_local_matrix_data: 14.316 [ms]
[OGL LOG][Proc: 0]nuTilda: update_non_local_matrix_data: 0.07100000000000001 [ms]
[OGL LOG][Proc: 0]nuTilda_matrix: call_update: 3.635 [ms]
[OGL LOG][Proc: 0]nuTilda_rhs: call_update: 0.425 [ms]
[OGL LOG][Preconditioner.H:121] Generate preconditioner BJ MaxBlockSize 1
[OGL LOG][Proc: 0]nuTilda: init_precond: 0.39 [ms]
[OGL LOG][StoppingCriterion.H:373] Creating stopping criterion with minIter 2 frequency 1
[OGL LOG][Proc: 0]nuTilda: generate_solver: 0.001 [ms]
[OGL LOG][Proc: 0]nuTilda: solve: 31.082 [ms]
[OGL LOG][Proc: 0]nuTilda: copy_x_back: 1.262 [ms]
[OGL LOG][lduLduBase.H:336] 
Statistics:
	Time per iteration: 15541 [mu s]
	Time per residual norm calculation: 364.000000 [mu s]
	Time per iteration and DOF: 2.464034 [ns]
	Retrieve results bandwidth 3.021000 [GByte/s]
[OGL LOG][Proc: 0]nuTilda: solve_multi_gpu: 37.656 [ms]
BJhipGKOBiCGStab:  Solving for nuTilda, Initial residual = 0.1865562798248361, Final residual = 0.01389849802731853, No Iterations 2
bounding nuTilda, min: -1.438941448875662e-06 max: 0.0008804843937447705 average: 8.023562264956822e-05
[INFO] TimeStep: 4538.613 [ms]
ExecutionTime = 27.26 s  ClockTime = 27 s

Time = 4

velocityDampingConstraint velocityDamping damped 0 (0%) of cells, with max limit 300
[INFO] MatrixAssemblyU: 563.926 [ms]
[OGL LOG][Proc: 0]: global_index_init: 0.027 [ms]
[OGL LOG][Proc: 0]Ux_local_coeffs: call_update: 0 [ms]
[OGL LOG][Proc: 0]Ux_non_local_coeffs: call_update: 0 [ms]
[OGL LOG][Proc: 0]Ux: update_local_matrix_data: 11.514 [ms]
[OGL LOG][Proc: 0]Ux: update_non_local_matrix_data: 0.08 [ms]
[OGL LOG][Proc: 0]Ux_matrix: call_update: 3.413 [ms]
[OGL LOG][Proc: 0]Ux_rhs: call_update: 1.325 [ms]
[OGL LOG][Preconditioner.H:121] Generate preconditioner BJ MaxBlockSize 1
[OGL LOG][Proc: 0]Ux: init_precond: 0.393 [ms]
[OGL LOG][StoppingCriterion.H:373] Creating stopping criterion with minIter 16 frequency 1
[OGL LOG][Proc: 0]Ux: generate_solver: 0.001 [ms]
[OGL LOG][Proc: 0]Ux: solve: 41.762 [ms]
[OGL LOG][Proc: 0]Ux: copy_x_back: 1.249 [ms]
[OGL LOG][lduLduBase.H:336] 
Statistics:
	Time per iteration: 3796 [mu s]
	Time per residual norm calculation: 301.000000 [mu s]
	Time per iteration and DOF: 0.601858 [ns]
	Retrieve results bandwidth 3.052000 [GByte/s]
[OGL LOG][Proc: 0]Ux: solve_multi_gpu: 48.983 [ms]
BJhipGKOBiCGStab:  Solving for Ux, Initial residual = 0.07357742296279483, Final residual = 0.006524797417359967, No Iterations 11
[OGL LOG][Proc: 0]: global_index_init: 0.142 [ms]
[OGL LOG][Proc: 0]Uy_local_coeffs: call_update: 0 [ms]
[OGL LOG][Proc: 0]Uy_non_local_coeffs: call_update: 0 [ms]
[OGL LOG][Proc: 0]Uy: update_local_matrix_data: 12.101 [ms]
[OGL LOG][Proc: 0]Uy: update_non_local_matrix_data: 0.068 [ms]
[OGL LOG][Proc: 0]Uy_matrix: call_update: 3.425 [ms]
[OGL LOG][Proc: 0]Uy_rhs: call_update: 0.408 [ms]
[OGL LOG][Preconditioner.H:121] Generate preconditioner BJ MaxBlockSize 1
[OGL LOG][Proc: 0]Uy: init_precond: 0.38 [ms]
[OGL LOG][StoppingCriterion.H:373] Creating stopping criterion with minIter 22 frequency 1
[OGL LOG][Proc: 0]Uy: generate_solver: 0.002 [ms]
[OGL LOG][Proc: 0]Uy: solve: 40.495 [ms]
[OGL LOG][Proc: 0]Uy: copy_x_back: 1.26 [ms]
[OGL LOG][lduLduBase.H:336] 
Statistics:
	Time per iteration: 3681 [mu s]
	Time per residual norm calculation: 265.000000 [mu s]
	Time per iteration and DOF: 0.583625 [ns]
	Retrieve results bandwidth 3.026000 [GByte/s]
[OGL LOG][Proc: 0]Uy: solve_multi_gpu: 46.842 [ms]
BJhipGKOBiCGStab:  Solving for Uy, Initial residual = 0.148002450510684, Final residual = 0.01325299634109751, No Iterations 11
[OGL LOG][Proc: 0]: global_index_init: 0.08500000000000001 [ms]
[OGL LOG][Proc: 0]Uz_local_coeffs: call_update: 0 [ms]
[OGL LOG][Proc: 0]Uz_non_local_coeffs: call_update: 0 [ms]
[OGL LOG][Proc: 0]Uz: update_local_matrix_data: 13.157 [ms]
[OGL LOG][Proc: 0]Uz: update_non_local_matrix_data: 0.06900000000000001 [ms]
[OGL LOG][Proc: 0]Uz_matrix: call_update: 4.746 [ms]
[OGL LOG][Proc: 0]Uz_rhs: call_update: 3.549 [ms]
[OGL LOG][Preconditioner.H:121] Generate preconditioner BJ MaxBlockSize 1
[OGL LOG][Proc: 0]Uz: init_precond: 0.461 [ms]
[OGL LOG][StoppingCriterion.H:373] Creating stopping criterion with minIter 13 frequency 1
[OGL LOG][Proc: 0]Uz: generate_solver: 0.002 [ms]
[OGL LOG][Proc: 0]Uz: solve: 55.163 [ms]
[OGL LOG][Proc: 0]Uz: copy_x_back: 1.276 [ms]
[OGL LOG][lduLduBase.H:336] 
Statistics:
	Time per iteration: 4243 [mu s]
	Time per residual norm calculation: 266.000000 [mu s]
	Time per iteration and DOF: 0.672730 [ns]
	Retrieve results bandwidth 2.988000 [GByte/s]
[OGL LOG][Proc: 0]Uz: solve_multi_gpu: 66.023 [ms]
BJhipGKOBiCGStab:  Solving for Uz, Initial residual = 0.1571988253276762, Final residual = 0.01141248141215467, No Iterations 13
[INFO] MomentumPredictor: 238.403 [ms]
[INFO] MatrixAssemblyPI: 82.67400000000001 [ms]
[INFO] MatrixAssemblyPII: 40.293 [ms]
DICPCG:  Solving for p, Initial residual = 0.1270159291908514, Final residual = 0.001241359762096627, No Iterations 119
[INFO] SolveP: 1273.011 [ms]
time step continuity errors : sum local = 0.01403214611180149, global = -0.003079255930084433, cumulative = -0.0002024754668461001
[INFO] postSolveP: 21.303 [ms]
[OGL LOG][Proc: 0]: global_index_init: 1.432 [ms]
[OGL LOG][Proc: 0]nuTilda_local_coeffs: call_update: 0 [ms]
[OGL LOG][Proc: 0]nuTilda_non_local_coeffs: call_update: 0 [ms]
[OGL LOG][Proc: 0]nuTilda: update_local_matrix_data: 12.055 [ms]
[OGL LOG][Proc: 0]nuTilda: update_non_local_matrix_data: 0.077 [ms]
[OGL LOG][Proc: 0]nuTilda_matrix: call_update: 4.231 [ms]
[OGL LOG][Proc: 0]nuTilda_rhs: call_update: 1.586 [ms]
[OGL LOG][Preconditioner.H:121] Generate preconditioner BJ MaxBlockSize 1
[OGL LOG][Proc: 0]nuTilda: init_precond: 0.374 [ms]
[OGL LOG][StoppingCriterion.H:373] Creating stopping criterion with minIter 2 frequency 1
[OGL LOG][Proc: 0]nuTilda: generate_solver: 0.002 [ms]
[OGL LOG][Proc: 0]nuTilda: solve: 27.444 [ms]
[OGL LOG][Proc: 0]nuTilda: copy_x_back: 1.268 [ms]
[OGL LOG][lduLduBase.H:336] 
Statistics:
	Time per iteration: 13722 [mu s]
	Time per residual norm calculation: 271.000000 [mu s]
	Time per iteration and DOF: 2.175631 [ns]
	Retrieve results bandwidth 3.007000 [GByte/s]
[OGL LOG][Proc: 0]nuTilda: solve_multi_gpu: 35.774 [ms]
BJhipGKOBiCGStab:  Solving for nuTilda, Initial residual = 0.1070052053754812, Final residual = 0.009680564784137573, No Iterations 2
bounding nuTilda, min: -4.16702554973007e-06 max: 0.001024370185726095 average: 8.548441195694421e-05
[INFO] TimeStep: 2571.768 [ms]
ExecutionTime = 30.27 s  ClockTime = 30 s

Time = 5

velocityDampingConstraint velocityDamping damped 83 (0%) of cells, with max limit 300
[INFO] MatrixAssemblyU: 557.37 [ms]
[OGL LOG][Proc: 0]: global_index_init: 0.056 [ms]
[OGL LOG][Proc: 0]Ux_local_coeffs: call_update: 0 [ms]
[OGL LOG][Proc: 0]Ux_non_local_coeffs: call_update: 0 [ms]
[OGL LOG][Proc: 0]Ux: update_local_matrix_data: 11.196 [ms]
[OGL LOG][Proc: 0]Ux: update_non_local_matrix_data: 0.06900000000000001 [ms]
[OGL LOG][Proc: 0]Ux_matrix: call_update: 3.627 [ms]
[OGL LOG][Proc: 0]Ux_rhs: call_update: 1.653 [ms]
[OGL LOG][Preconditioner.H:121] Generate preconditioner BJ MaxBlockSize 1
[OGL LOG][Proc: 0]Ux: init_precond: 0.375 [ms]
[OGL LOG][StoppingCriterion.H:373] Creating stopping criterion with minIter 13 frequency 1
[OGL LOG][Proc: 0]Ux: generate_solver: 0.001 [ms]
[OGL LOG][Proc: 0]Ux: solve: 47.751 [ms]
[OGL LOG][Proc: 0]Ux: copy_x_back: 1.248 [ms]
[OGL LOG][lduLduBase.H:336] 
Statistics:
	Time per iteration: 3979 [mu s]
	Time per residual norm calculation: 270.000000 [mu s]
	Time per iteration and DOF: 0.630873 [ns]
	Retrieve results bandwidth 3.055000 [GByte/s]
[OGL LOG][Proc: 0]Ux: solve_multi_gpu: 55.478 [ms]
BJhipGKOBiCGStab:  Solving for Ux, Initial residual = 0.05057332445322058, Final residual = 0.003664936356846628, No Iterations 12
[OGL LOG][Proc: 0]: global_index_init: 0.102 [ms]
[OGL LOG][Proc: 0]Uy_local_coeffs: call_update: 0 [ms]
[OGL LOG][Proc: 0]Uy_non_local_coeffs: call_update: 0 [ms]
[OGL LOG][Proc: 0]Uy: update_local_matrix_data: 11.037 [ms]
[OGL LOG][Proc: 0]Uy: update_non_local_matrix_data: 0.073 [ms]
[OGL LOG][Proc: 0]Uy_matrix: call_update: 3.691 [ms]
[OGL LOG][Proc: 0]Uy_rhs: call_update: 2.142 [ms]
[OGL LOG][Preconditioner.H:121] Generate preconditioner BJ MaxBlockSize 1
[OGL LOG][Proc: 0]Uy: init_precond: 0.372 [ms]
[OGL LOG][StoppingCriterion.H:373] Creating stopping criterion with minIter 13 frequency 1
[OGL LOG][Proc: 0]Uy: generate_solver: 0.001 [ms]
[OGL LOG][Proc: 0]Uy: solve: 43.985 [ms]
[OGL LOG][Proc: 0]Uy: copy_x_back: 1.253 [ms]
[OGL LOG][lduLduBase.H:336] 
Statistics:
	Time per iteration: 4398 [mu s]
	Time per residual norm calculation: 256.000000 [mu s]
	Time per iteration and DOF: 0.697305 [ns]
	Retrieve results bandwidth 3.043000 [GByte/s]
[OGL LOG][Proc: 0]Uy: solve_multi_gpu: 52.293 [ms]
BJhipGKOBiCGStab:  Solving for Uy, Initial residual = 0.1063656707859677, Final residual = 0.01013372869728046, No Iterations 10
[OGL LOG][Proc: 0]: global_index_init: 0.08799999999999999 [ms]
[OGL LOG][Proc: 0]Uz_local_coeffs: call_update: 0 [ms]
[OGL LOG][Proc: 0]Uz_non_local_coeffs: call_update: 0 [ms]
[OGL LOG][Proc: 0]Uz: update_local_matrix_data: 11.455 [ms]
[OGL LOG][Proc: 0]Uz: update_non_local_matrix_data: 0.082 [ms]
[OGL LOG][Proc: 0]Uz_matrix: call_update: 3.9 [ms]
[OGL LOG][Proc: 0]Uz_rhs: call_update: 3.882 [ms]
[OGL LOG][Preconditioner.H:121] Generate preconditioner BJ MaxBlockSize 1
[OGL LOG][Proc: 0]Uz: init_precond: 0.402 [ms]
[OGL LOG][StoppingCriterion.H:373] Creating stopping criterion with minIter 15 frequency 1
[OGL LOG][Proc: 0]Uz: generate_solver: 0.002 [ms]
[OGL LOG][Proc: 0]Uz: solve: 40.901 [ms]
[OGL LOG][Proc: 0]Uz: copy_x_back: 1.265 [ms]
[OGL LOG][lduLduBase.H:336] 
Statistics:
	Time per iteration: 4090 [mu s]
	Time per residual norm calculation: 253.000000 [mu s]
	Time per iteration and DOF: 0.648472 [ns]
	Retrieve results bandwidth 3.014000 [GByte/s]
[OGL LOG][Proc: 0]Uz: solve_multi_gpu: 51.182 [ms]
BJhipGKOBiCGStab:  Solving for Uz, Initial residual = 0.1376749586865189, Final residual = 0.01304206573647384, No Iterations 10
[INFO] MomentumPredictor: 232.601 [ms]
[INFO] MatrixAssemblyPI: 82.977 [ms]
[INFO] MatrixAssemblyPII: 40.249 [ms]
DICPCG:  Solving for p, Initial residual = 0.09051030315582864, Final residual = 0.0008783038076346708, No Iterations 283
[INFO] SolveP: 2969.557 [ms]
time step continuity errors : sum local = 0.008009381012297874, global = -0.0003237958567410274, cumulative = -0.0005262713235871275
[INFO] postSolveP: 22.312 [ms]
[OGL LOG][Proc: 0]: global_index_init: 1.386 [ms]
[OGL LOG][Proc: 0]nuTilda_local_coeffs: call_update: 0 [ms]
[OGL LOG][Proc: 0]nuTilda_non_local_coeffs: call_update: 0 [ms]
[OGL LOG][Proc: 0]nuTilda: update_local_matrix_data: 14.432 [ms]
[OGL LOG][Proc: 0]nuTilda: update_non_local_matrix_data: 0.07000000000000001 [ms]
[OGL LOG][Proc: 0]nuTilda_matrix: call_update: 3.668 [ms]
[OGL LOG][Proc: 0]nuTilda_rhs: call_update: 0.466 [ms]
[OGL LOG][Preconditioner.H:121] Generate preconditioner BJ MaxBlockSize 1
[OGL LOG][Proc: 0]nuTilda: init_precond: 0.386 [ms]
[OGL LOG][StoppingCriterion.H:373] Creating stopping criterion with minIter 2 frequency 1
[OGL LOG][Proc: 0]nuTilda: generate_solver: 0.001 [ms]
[OGL LOG][Proc: 0]nuTilda: solve: 28.838 [ms]
[OGL LOG][Proc: 0]nuTilda: copy_x_back: 1.266 [ms]
[OGL LOG][lduLduBase.H:336] 
Statistics:
	Time per iteration: 14419 [mu s]
	Time per residual norm calculation: 256.000000 [mu s]
	Time per iteration and DOF: 2.286141 [ns]
	Retrieve results bandwidth 3.011000 [GByte/s]
[OGL LOG][Proc: 0]nuTilda: solve_multi_gpu: 35.479 [ms]
BJhipGKOBiCGStab:  Solving for nuTilda, Initial residual = 0.05908489826234983, Final residual = 0.00267100499220711, No Iterations 2
[INFO] TimeStep: 4242.925 [ms]
ExecutionTime = 34.95 s  ClockTime = 35 s

Time = 6

velocityDampingConstraint velocityDamping damped 0 (0%) of cells, with max limit 300
[INFO] MatrixAssemblyU: 549.42 [ms]
[OGL LOG][Proc: 0]: global_index_init: 0.08400000000000001 [ms]
[OGL LOG][Proc: 0]Ux_local_coeffs: call_update: 0 [ms]
[OGL LOG][Proc: 0]Ux_non_local_coeffs: call_update: 0 [ms]
[OGL LOG][Proc: 0]Ux: update_local_matrix_data: 11.083 [ms]
[OGL LOG][Proc: 0]Ux: update_non_local_matrix_data: 0.082 [ms]
[OGL LOG][Proc: 0]Ux_matrix: call_update: 6.625 [ms]
[OGL LOG][Proc: 0]Ux_rhs: call_update: 1.094 [ms]
[OGL LOG][Preconditioner.H:121] Generate preconditioner BJ MaxBlockSize 1
[OGL LOG][Proc: 0]Ux: init_precond: 0.398 [ms]
[OGL LOG][StoppingCriterion.H:373] Creating stopping criterion with minIter 14 frequency 1
[OGL LOG][Proc: 0]Ux: generate_solver: 0.002 [ms]
[OGL LOG][Proc: 0]Ux: solve: 52.246 [ms]
[OGL LOG][Proc: 0]Ux: copy_x_back: 1.261 [ms]
[OGL LOG][lduLduBase.H:336] 
Statistics:
	Time per iteration: 4018 [mu s]
	Time per residual norm calculation: 267.000000 [mu s]
	Time per iteration and DOF: 0.637056 [ns]
	Retrieve results bandwidth 3.023000 [GByte/s]
[OGL LOG][Proc: 0]Ux: solve_multi_gpu: 62.484 [ms]
BJhipGKOBiCGStab:  Solving for Ux, Initial residual = 0.03081483955877453, Final residual = 0.002320943063486606, No Iterations 13
[OGL LOG][Proc: 0]: global_index_init: 0.089 [ms]
[OGL LOG][Proc: 0]Uy_local_coeffs: call_update: 0 [ms]
[OGL LOG][Proc: 0]Uy_non_local_coeffs: call_update: 0 [ms]
[OGL LOG][Proc: 0]Uy: update_local_matrix_data: 11.555 [ms]
[OGL LOG][Proc: 0]Uy: update_non_local_matrix_data: 0.066 [ms]
[OGL LOG][Proc: 0]Uy_matrix: call_update: 3.689 [ms]
[OGL LOG][Proc: 0]Uy_rhs: call_update: 0.9440000000000001 [ms]
[OGL LOG][Preconditioner.H:121] Generate preconditioner BJ MaxBlockSize 1
[OGL LOG][Proc: 0]Uy: init_precond: 0.373 [ms]
[OGL LOG][StoppingCriterion.H:373] Creating stopping criterion with minIter 12 frequency 1
[OGL LOG][Proc: 0]Uy: generate_solver: 0.001 [ms]
[OGL LOG][Proc: 0]Uy: solve: 44.738 [ms]
[OGL LOG][Proc: 0]Uy: copy_x_back: 1.257 [ms]
[OGL LOG][lduLduBase.H:336] 
Statistics:
	Time per iteration: 4067 [mu s]
	Time per residual norm calculation: 252.000000 [mu s]
	Time per iteration and DOF: 0.644825 [ns]
	Retrieve results bandwidth 3.033000 [GByte/s]
[OGL LOG][Proc: 0]Uy: solve_multi_gpu: 51.858 [ms]
BJhipGKOBiCGStab:  Solving for Uy, Initial residual = 0.07654183104327478, Final residual = 0.007246384617848631, No Iterations 11
[OGL LOG][Proc: 0]: global_index_init: 0.098 [ms]
[OGL LOG][Proc: 0]Uz_local_coeffs: call_update: 0 [ms]
[OGL LOG][Proc: 0]Uz_non_local_coeffs: call_update: 0 [ms]
[OGL LOG][Proc: 0]Uz: update_local_matrix_data: 13.215 [ms]
[OGL LOG][Proc: 0]Uz: update_non_local_matrix_data: 0.066 [ms]
[OGL LOG][Proc: 0]Uz_matrix: call_update: 5.601 [ms]
[OGL LOG][Proc: 0]Uz_rhs: call_update: 0.732 [ms]
[OGL LOG][Preconditioner.H:121] Generate preconditioner BJ MaxBlockSize 1
[OGL LOG][Proc: 0]Uz: init_precond: 0.374 [ms]
[OGL LOG][StoppingCriterion.H:373] Creating stopping criterion with minIter 12 frequency 1
[OGL LOG][Proc: 0]Uz: generate_solver: 0.001 [ms]
[OGL LOG][Proc: 0]Uz: solve: 48.389 [ms]
[OGL LOG][Proc: 0]Uz: copy_x_back: 1.264 [ms]
[OGL LOG][lduLduBase.H:336] 
Statistics:
	Time per iteration: 3722 [mu s]
	Time per residual norm calculation: 266.000000 [mu s]
	Time per iteration and DOF: 0.590125 [ns]
	Retrieve results bandwidth 3.016000 [GByte/s]
[OGL LOG][Proc: 0]Uz: solve_multi_gpu: 57.211 [ms]
BJhipGKOBiCGStab:  Solving for Uz, Initial residual = 0.08347437582223567, Final residual = 0.00608793144449697, No Iterations 13
[INFO] MomentumPredictor: 250.419 [ms]
[INFO] MatrixAssemblyPI: 83.05800000000001 [ms]
[INFO] MatrixAssemblyPII: 40.216 [ms]
DICPCG:  Solving for p, Initial residual = 0.1022135333275486, Final residual = 0.001019815786166719, No Iterations 133
[INFO] SolveP: 1387.684 [ms]
time step continuity errors : sum local = 0.007588601947127393, global = 0.001195357925966788, cumulative = 0.000669086602379661
[INFO] postSolveP: 21.366 [ms]
[OGL LOG][Proc: 0]: global_index_init: 2.04 [ms]
[OGL LOG][Proc: 0]nuTilda_local_coeffs: call_update: 0 [ms]
[OGL LOG][Proc: 0]nuTilda_non_local_coeffs: call_update: 0 [ms]
[OGL LOG][Proc: 0]nuTilda: update_local_matrix_data: 11.702 [ms]
[OGL LOG][Proc: 0]nuTilda: update_non_local_matrix_data: 0.079 [ms]
[OGL LOG][Proc: 0]nuTilda_matrix: call_update: 3.777 [ms]
[OGL LOG][Proc: 0]nuTilda_rhs: call_update: 0.986 [ms]
[OGL LOG][Preconditioner.H:121] Generate preconditioner BJ MaxBlockSize 1
[OGL LOG][Proc: 0]nuTilda: init_precond: 0.47 [ms]
[OGL LOG][StoppingCriterion.H:373] Creating stopping criterion with minIter 3 frequency 1
[OGL LOG][Proc: 0]nuTilda: generate_solver: 0.001 [ms]
[OGL LOG][Proc: 0]nuTilda: solve: 27.172 [ms]
[OGL LOG][Proc: 0]nuTilda: copy_x_back: 1.277 [ms]
[OGL LOG][lduLduBase.H:336] 
Statistics:
	Time per iteration: 13586 [mu s]
	Time per residual norm calculation: 274.000000 [mu s]
	Time per iteration and DOF: 2.154068 [ns]
	Retrieve results bandwidth 2.985000 [GByte/s]
[OGL LOG][Proc: 0]nuTilda: solve_multi_gpu: 34.556 [ms]
BJhipGKOBiCGStab:  Solving for nuTilda, Initial residual = 0.05968575420566281, Final residual = 0.004775640697340847, No Iterations 2
[INFO] TimeStep: 2664.185 [ms]
ExecutionTime = 38.04 s  ClockTime = 38 s

Time = 7

velocityDampingConstraint velocityDamping damped 8 (0%) of cells, with max limit 300
[INFO] MatrixAssemblyU: 556.413 [ms]
[OGL LOG][Proc: 0]: global_index_init: 0.027 [ms]
[OGL LOG][Proc: 0]Ux_local_coeffs: call_update: 0 [ms]
[OGL LOG][Proc: 0]Ux_non_local_coeffs: call_update: 0 [ms]
[OGL LOG][Proc: 0]Ux: update_local_matrix_data: 11.324 [ms]
[OGL LOG][Proc: 0]Ux: update_non_local_matrix_data: 0.06900000000000001 [ms]
[OGL LOG][Proc: 0]Ux_matrix: call_update: 3.786 [ms]
[OGL LOG][Proc: 0]Ux_rhs: call_update: 1.154 [ms]
[OGL LOG][Preconditioner.H:121] Generate preconditioner BJ MaxBlockSize 1
[OGL LOG][Proc: 0]Ux: init_precond: 0.457 [ms]
[OGL LOG][StoppingCriterion.H:373] Creating stopping criterion with minIter 15 frequency 1
[OGL LOG][Proc: 0]Ux: generate_solver: 0.001 [ms]
[OGL LOG][Proc: 0]Ux: solve: 43.834 [ms]
[OGL LOG][Proc: 0]Ux: copy_x_back: 1.256 [ms]
[OGL LOG][lduLduBase.H:336] 
Statistics:
	Time per iteration: 3652 [mu s]
	Time per residual norm calculation: 270.000000 [mu s]
	Time per iteration and DOF: 0.579027 [ns]
	Retrieve results bandwidth 3.035000 [GByte/s]
[OGL LOG][Proc: 0]Ux: solve_multi_gpu: 51.303 [ms]
BJhipGKOBiCGStab:  Solving for Ux, Initial residual = 0.02617542282541497, Final residual = 0.002247893889312882, No Iterations 12
[OGL LOG][Proc: 0]: global_index_init: 0.091 [ms]
[OGL LOG][Proc: 0]Uy_local_coeffs: call_update: 0 [ms]
[OGL LOG][Proc: 0]Uy_non_local_coeffs: call_update: 0 [ms]
[OGL LOG][Proc: 0]Uy: update_local_matrix_data: 11.179 [ms]
[OGL LOG][Proc: 0]Uy: update_non_local_matrix_data: 0.08700000000000001 [ms]
[OGL LOG][Proc: 0]Uy_matrix: call_update: 3.786 [ms]
[OGL LOG][Proc: 0]Uy_rhs: call_update: 1.015 [ms]
[OGL LOG][Preconditioner.H:121] Generate preconditioner BJ MaxBlockSize 1
[OGL LOG][Proc: 0]Uy: init_precond: 0.369 [ms]
[OGL LOG][StoppingCriterion.H:373] Creating stopping criterion with minIter 13 frequency 1
[OGL LOG][Proc: 0]Uy: generate_solver: 0.002 [ms]
[OGL LOG][Proc: 0]Uy: solve: 45.797 [ms]
[OGL LOG][Proc: 0]Uy: copy_x_back: 1.256 [ms]
[OGL LOG][lduLduBase.H:336] 
Statistics:
	Time per iteration: 4579 [mu s]
	Time per residual norm calculation: 253.000000 [mu s]
	Time per iteration and DOF: 0.726003 [ns]
	Retrieve results bandwidth 3.035000 [GByte/s]
[OGL LOG][Proc: 0]Uy: solve_multi_gpu: 53.081 [ms]
BJhipGKOBiCGStab:  Solving for Uy, Initial residual = 0.06069514422308076, Final residual = 0.006011639095941088, No Iterations 10
[OGL LOG][Proc: 0]: global_index_init: 0.16 [ms]
[OGL LOG][Proc: 0]Uz_local_coeffs: call_update: 0 [ms]
[OGL LOG][Proc: 0]Uz_non_local_coeffs: call_update: 0 [ms]
[OGL LOG][Proc: 0]Uz: update_local_matrix_data: 11.811 [ms]
[OGL LOG][Proc: 0]Uz: update_non_local_matrix_data: 0.081 [ms]
[OGL LOG][Proc: 0]Uz_matrix: call_update: 3.302 [ms]
[OGL LOG][Proc: 0]Uz_rhs: call_update: 1.431 [ms]
[OGL LOG][Preconditioner.H:121] Generate preconditioner BJ MaxBlockSize 1
[OGL LOG][Proc: 0]Uz: init_precond: 0.372 [ms]
[OGL LOG][StoppingCriterion.H:373] Creating stopping criterion with minIter 15 frequency 1
[OGL LOG][Proc: 0]Uz: generate_solver: 0.002 [ms]
[OGL LOG][Proc: 0]Uz: solve: 42.834 [ms]
[OGL LOG][Proc: 0]Uz: copy_x_back: 1.281 [ms]
[OGL LOG][lduLduBase.H:336] 
Statistics:
	Time per iteration: 3894 [mu s]
	Time per residual norm calculation: 254.000000 [mu s]
	Time per iteration and DOF: 0.617396 [ns]
	Retrieve results bandwidth 2.976000 [GByte/s]
[OGL LOG][Proc: 0]Uz: solve_multi_gpu: 50.058 [ms]
BJhipGKOBiCGStab:  Solving for Uz, Initial residual = 0.06304818830286534, Final residual = 0.005998567026849846, No Iterations 11
[INFO] MomentumPredictor: 228.889 [ms]
[INFO] MatrixAssemblyPI: 82.82299999999999 [ms]
[INFO] MatrixAssemblyPII: 40.358 [ms]
DICPCG:  Solving for p, Initial residual = 0.09206841104027123, Final residual = 0.0009179498297364974, No Iterations 271
[INFO] SolveP: 2819.424 [ms]
time step continuity errors : sum local = 0.006738031664671065, global = -4.952702690801965e-05, cumulative = 0.0006195595754716413
[INFO] postSolveP: 21.896 [ms]
[OGL LOG][Proc: 0]: global_index_init: 2.418 [ms]
[OGL LOG][Proc: 0]nuTilda_local_coeffs: call_update: 0 [ms]
[OGL LOG][Proc: 0]nuTilda_non_local_coeffs: call_update: 0 [ms]
[OGL LOG][Proc: 0]nuTilda: update_local_matrix_data: 11.731 [ms]
[OGL LOG][Proc: 0]nuTilda: update_non_local_matrix_data: 0.073 [ms]
[OGL LOG][Proc: 0]nuTilda_matrix: call_update: 4.281 [ms]
[OGL LOG][Proc: 0]nuTilda_rhs: call_update: 0.846 [ms]
[OGL LOG][Preconditioner.H:121] Generate preconditioner BJ MaxBlockSize 1
[OGL LOG][Proc: 0]nuTilda: init_precond: 0.369 [ms]
[OGL LOG][StoppingCriterion.H:373] Creating stopping criterion with minIter 2 frequency 1
[OGL LOG][Proc: 0]nuTilda: generate_solver: 0.002 [ms]
[OGL LOG][Proc: 0]nuTilda: solve: 27.282 [ms]
[OGL LOG][Proc: 0]nuTilda: copy_x_back: 1.27 [ms]
[OGL LOG][lduLduBase.H:336] 
Statistics:
	Time per iteration: 13641 [mu s]
	Time per residual norm calculation: 270.000000 [mu s]
	Time per iteration and DOF: 2.162788 [ns]
	Retrieve results bandwidth 3.002000 [GByte/s]
[OGL LOG][Proc: 0]nuTilda: solve_multi_gpu: 34.897 [ms]
BJhipGKOBiCGStab:  Solving for nuTilda, Initial residual = 0.04639679051854916, Final residual = 0.004363523769667473, No Iterations 2
[INFO] TimeStep: 4083.042 [ms]
ExecutionTime = 42.55 s  ClockTime = 42 s

Time = 8

velocityDampingConstraint velocityDamping damped 0 (0%) of cells, with max limit 300
[INFO] MatrixAssemblyU: 551.908 [ms]
[OGL LOG][Proc: 0]: global_index_init: 0.073 [ms]
[OGL LOG][Proc: 0]Ux_local_coeffs: call_update: 0 [ms]
[OGL LOG][Proc: 0]Ux_non_local_coeffs: call_update: 0 [ms]
[OGL LOG][Proc: 0]Ux: update_local_matrix_data: 11.106 [ms]
[OGL LOG][Proc: 0]Ux: update_non_local_matrix_data: 0.091 [ms]
[OGL LOG][Proc: 0]Ux_matrix: call_update: 13.162 [ms]
[OGL LOG][Proc: 0]Ux_rhs: call_update: 0.51 [ms]
[OGL LOG][Preconditioner.H:121] Generate preconditioner BJ MaxBlockSize 1
[OGL LOG][Proc: 0]Ux: init_precond: 0.374 [ms]
[OGL LOG][StoppingCriterion.H:373] Creating stopping criterion with minIter 14 frequency 1
[OGL LOG][Proc: 0]Ux: generate_solver: 0.001 [ms]
[OGL LOG][Proc: 0]Ux: solve: 47.481 [ms]
[OGL LOG][Proc: 0]Ux: copy_x_back: 1.285 [ms]
[OGL LOG][lduLduBase.H:336] 
Statistics:
	Time per iteration: 4316 [mu s]
	Time per residual norm calculation: 253.000000 [mu s]
	Time per iteration and DOF: 0.684304 [ns]
	Retrieve results bandwidth 2.967000 [GByte/s]
[OGL LOG][Proc: 0]Ux: solve_multi_gpu: 63.664 [ms]
BJhipGKOBiCGStab:  Solving for Ux, Initial residual = 0.0231989576210209, Final residual = 0.002075026195303768, No Iterations 11
[OGL LOG][Proc: 0]: global_index_init: 0.08 [ms]
[OGL LOG][Proc: 0]Uy_local_coeffs: call_update: 0 [ms]
[OGL LOG][Proc: 0]Uy_non_local_coeffs: call_update: 0 [ms]
[OGL LOG][Proc: 0]Uy: update_local_matrix_data: 11.067 [ms]
[OGL LOG][Proc: 0]Uy: update_non_local_matrix_data: 0.08400000000000001 [ms]
[OGL LOG][Proc: 0]Uy_matrix: call_update: 3.905 [ms]
[OGL LOG][Proc: 0]Uy_rhs: call_update: 0.8 [ms]
[OGL LOG][Preconditioner.H:121] Generate preconditioner BJ MaxBlockSize 1
[OGL LOG][Proc: 0]Uy: init_precond: 0.42 [ms]
[OGL LOG][StoppingCriterion.H:373] Creating stopping criterion with minIter 12 frequency 1
[OGL LOG][Proc: 0]Uy: generate_solver: 0.001 [ms]
[OGL LOG][Proc: 0]Uy: solve: 43.612 [ms]
[OGL LOG][Proc: 0]Uy: copy_x_back: 1.246 [ms]
[OGL LOG][lduLduBase.H:336] 
Statistics:
	Time per iteration: 3964 [mu s]
	Time per residual norm calculation: 252.000000 [mu s]
	Time per iteration and DOF: 0.628494 [ns]
	Retrieve results bandwidth 3.060000 [GByte/s]
[OGL LOG][Proc: 0]Uy: solve_multi_gpu: 50.845 [ms]
BJhipGKOBiCGStab:  Solving for Uy, Initial residual = 0.05315453261866349, Final residual = 0.00510995786198512, No Iterations 11
[OGL LOG][Proc: 0]: global_index_init: 0.1 [ms]
[OGL LOG][Proc: 0]Uz_local_coeffs: call_update: 0 [ms]
[OGL LOG][Proc: 0]Uz_non_local_coeffs: call_update: 0 [ms]
[OGL LOG][Proc: 0]Uz: update_local_matrix_data: 11.33 [ms]
[OGL LOG][Proc: 0]Uz: update_non_local_matrix_data: 0.06900000000000001 [ms]
[OGL LOG][Proc: 0]Uz_matrix: call_update: 3.705 [ms]
[OGL LOG][Proc: 0]Uz_rhs: call_update: 1.677 [ms]
[OGL LOG][Preconditioner.H:121] Generate preconditioner BJ MaxBlockSize 1
[OGL LOG][Proc: 0]Uz: init_precond: 0.379 [ms]
[OGL LOG][StoppingCriterion.H:373] Creating stopping criterion with minIter 13 frequency 1
[OGL LOG][Proc: 0]Uz: generate_solver: 0.001 [ms]
[OGL LOG][Proc: 0]Uz: solve: 45.456 [ms]
[OGL LOG][Proc: 0]Uz: copy_x_back: 1.252 [ms]
[OGL LOG][lduLduBase.H:336] 
Statistics:
	Time per iteration: 3788 [mu s]
	Time per residual norm calculation: 253.000000 [mu s]
	Time per iteration and DOF: 0.600590 [ns]
	Retrieve results bandwidth 3.045000 [GByte/s]
[OGL LOG][Proc: 0]Uz: solve_multi_gpu: 53.307 [ms]
BJhipGKOBiCGStab:  Solving for Uz, Initial residual = 0.05538861613649803, Final residual = 0.005217288530322535, No Iterations 12
[INFO] MomentumPredictor: 241.359 [ms]
[INFO] MatrixAssemblyPI: 83.422 [ms]
[INFO] MatrixAssemblyPII: 40.089 [ms]
DICPCG:  Solving for p, Initial residual = 0.06822517801315024, Final residual = 0.0006734176596319064, No Iterations 120
[INFO] SolveP: 1283.8 [ms]
time step continuity errors : sum local = 0.005657174968762018, global = -0.0004778766535914702, cumulative = 0.0001416829218801711
[INFO] postSolveP: 22.053 [ms]
[OGL LOG][Proc: 0]: global_index_init: 2.258 [ms]
[OGL LOG][Proc: 0]nuTilda_local_coeffs: call_update: 0 [ms]
[OGL LOG][Proc: 0]nuTilda_non_local_coeffs: call_update: 0 [ms]
[OGL LOG][Proc: 0]nuTilda: update_local_matrix_data: 11.533 [ms]
[OGL LOG][Proc: 0]nuTilda: update_non_local_matrix_data: 0.076 [ms]
[OGL LOG][Proc: 0]nuTilda_matrix: call_update: 3.534 [ms]
[OGL LOG][Proc: 0]nuTilda_rhs: call_update: 1.991 [ms]
[OGL LOG][Preconditioner.H:121] Generate preconditioner BJ MaxBlockSize 1
[OGL LOG][Proc: 0]nuTilda: init_precond: 0.383 [ms]
[OGL LOG][StoppingCriterion.H:373] Creating stopping criterion with minIter 2 frequency 1
[OGL LOG][Proc: 0]nuTilda: generate_solver: 0.002 [ms]
[OGL LOG][Proc: 0]nuTilda: solve: 28.355 [ms]
[OGL LOG][Proc: 0]nuTilda: copy_x_back: 1.263 [ms]
[OGL LOG][lduLduBase.H:336] 
Statistics:
	Time per iteration: 14177 [mu s]
	Time per residual norm calculation: 253.000000 [mu s]
	Time per iteration and DOF: 2.247771 [ns]
	Retrieve results bandwidth 3.018000 [GByte/s]
[OGL LOG][Proc: 0]nuTilda: solve_multi_gpu: 36.384 [ms]
BJhipGKOBiCGStab:  Solving for nuTilda, Initial residual = 0.05437107610771138, Final residual = 0.002728081391669455, No Iterations 2
[INFO] TimeStep: 2554.878 [ms]
ExecutionTime = 45.53 s  ClockTime = 45 s

Time = 9

velocityDampingConstraint velocityDamping damped 0 (0%) of cells, with max limit 300
[INFO] MatrixAssemblyU: 542.956 [ms]
[OGL LOG][Proc: 0]: global_index_init: 0.08500000000000001 [ms]
[OGL LOG][Proc: 0]Ux_local_coeffs: call_update: 0 [ms]
[OGL LOG][Proc: 0]Ux_non_local_coeffs: call_update: 0 [ms]
[OGL LOG][Proc: 0]Ux: update_local_matrix_data: 11.605 [ms]
[OGL LOG][Proc: 0]Ux: update_non_local_matrix_data: 0.098 [ms]
[OGL LOG][Proc: 0]Ux_matrix: call_update: 3.567 [ms]
[OGL LOG][Proc: 0]Ux_rhs: call_update: 0.985 [ms]
[OGL LOG][Preconditioner.H:121] Generate preconditioner BJ MaxBlockSize 1
[OGL LOG][Proc: 0]Ux: init_precond: 0.379 [ms]
[OGL LOG][StoppingCriterion.H:373] Creating stopping criterion with minIter 13 frequency 1
[OGL LOG][Proc: 0]Ux: generate_solver: 0.001 [ms]
[OGL LOG][Proc: 0]Ux: solve: 40.767 [ms]
[OGL LOG][Proc: 0]Ux: copy_x_back: 1.262 [ms]
[OGL LOG][lduLduBase.H:336] 
Statistics:
	Time per iteration: 3706 [mu s]
	Time per residual norm calculation: 270.000000 [mu s]
	Time per iteration and DOF: 0.587588 [ns]
	Retrieve results bandwidth 3.021000 [GByte/s]
[OGL LOG][Proc: 0]Ux: solve_multi_gpu: 47.809 [ms]
BJhipGKOBiCGStab:  Solving for Ux, Initial residual = 0.01640013511128692, Final residual = 0.001451304191734026, No Iterations 11
[OGL LOG][Proc: 0]: global_index_init: 0.099 [ms]
[OGL LOG][Proc: 0]Uy_local_coeffs: call_update: 0 [ms]
[OGL LOG][Proc: 0]Uy_non_local_coeffs: call_update: 0 [ms]
[OGL LOG][Proc: 0]Uy: update_local_matrix_data: 11.82 [ms]
[OGL LOG][Proc: 0]Uy: update_non_local_matrix_data: 0.083 [ms]
[OGL LOG][Proc: 0]Uy_matrix: call_update: 3.455 [ms]
[OGL LOG][Proc: 0]Uy_rhs: call_update: 1.122 [ms]
[OGL LOG][Preconditioner.H:121] Generate preconditioner BJ MaxBlockSize 1
[OGL LOG][Proc: 0]Uy: init_precond: 0.398 [ms]
[OGL LOG][StoppingCriterion.H:373] Creating stopping criterion with minIter 13 frequency 1
[OGL LOG][Proc: 0]Uy: generate_solver: 0.001 [ms]
[OGL LOG][Proc: 0]Uy: solve: 45.101 [ms]
[OGL LOG][Proc: 0]Uy: copy_x_back: 1.262 [ms]
[OGL LOG][lduLduBase.H:336] 
Statistics:
	Time per iteration: 3758 [mu s]
	Time per residual norm calculation: 271.000000 [mu s]
	Time per iteration and DOF: 0.595833 [ns]
	Retrieve results bandwidth 3.021000 [GByte/s]
[OGL LOG][Proc: 0]Uy: solve_multi_gpu: 52.295 [ms]
BJhipGKOBiCGStab:  Solving for Uy, Initial residual = 0.04427659664910268, Final residual = 0.00318906765174451, No Iterations 12
[OGL LOG][Proc: 0]: global_index_init: 0.101 [ms]
[OGL LOG][Proc: 0]Uz_local_coeffs: call_update: 0 [ms]
[OGL LOG][Proc: 0]Uz_non_local_coeffs: call_update: 0 [ms]
[OGL LOG][Proc: 0]Uz: update_local_matrix_data: 13.103 [ms]
[OGL LOG][Proc: 0]Uz: update_non_local_matrix_data: 0.082 [ms]
[OGL LOG][Proc: 0]Uz_matrix: call_update: 4.396 [ms]
[OGL LOG][Proc: 0]Uz_rhs: call_update: 1.322 [ms]
[OGL LOG][Preconditioner.H:121] Generate preconditioner BJ MaxBlockSize 1
[OGL LOG][Proc: 0]Uz: init_precond: 0.396 [ms]
[OGL LOG][StoppingCriterion.H:373] Creating stopping criterion with minIter 15 frequency 1
[OGL LOG][Proc: 0]Uz: generate_solver: 0.001 [ms]
[OGL LOG][Proc: 0]Uz: solve: 47.766 [ms]
[OGL LOG][Proc: 0]Uz: copy_x_back: 1.272 [ms]
[OGL LOG][lduLduBase.H:336] 
Statistics:
	Time per iteration: 4342 [mu s]
	Time per residual norm calculation: 254.000000 [mu s]
	Time per iteration and DOF: 0.688427 [ns]
	Retrieve results bandwidth 2.997000 [GByte/s]
[OGL LOG][Proc: 0]Uz: solve_multi_gpu: 56.012 [ms]
BJhipGKOBiCGStab:  Solving for Uz, Initial residual = 0.04351751355845093, Final residual = 0.004215290628851981, No Iterations 11
[INFO] MomentumPredictor: 235.297 [ms]
[INFO] MatrixAssemblyPI: 84.60599999999999 [ms]
[INFO] MatrixAssemblyPII: 40.194 [ms]
DICPCG:  Solving for p, Initial residual = 0.06873187378575274, Final residual = 0.0006788319893528039, No Iterations 109
[INFO] SolveP: 1263.175 [ms]
time step continuity errors : sum local = 0.005600764692943738, global = -0.0006934225887685636, cumulative = -0.0005517396668883925
[INFO] postSolveP: 21.215 [ms]
[OGL LOG][Proc: 0]: global_index_init: 0.496 [ms]
[OGL LOG][Proc: 0]nuTilda_local_coeffs: call_update: 0 [ms]
[OGL LOG][Proc: 0]nuTilda_non_local_coeffs: call_update: 0 [ms]
[OGL LOG][Proc: 0]nuTilda: update_local_matrix_data: 14.196 [ms]
[OGL LOG][Proc: 0]nuTilda: update_non_local_matrix_data: 0.06900000000000001 [ms]
[OGL LOG][Proc: 0]nuTilda_matrix: call_update: 3.527 [ms]
[OGL LOG][Proc: 0]nuTilda_rhs: call_update: 0.456 [ms]
[OGL LOG][Preconditioner.H:121] Generate preconditioner BJ MaxBlockSize 1
[OGL LOG][Proc: 0]nuTilda: init_precond: 0.392 [ms]
[OGL LOG][StoppingCriterion.H:373] Creating stopping criterion with minIter 3 frequency 1
[OGL LOG][Proc: 0]nuTilda: generate_solver: 0.002 [ms]
[OGL LOG][Proc: 0]nuTilda: solve: 27.736 [ms]
[OGL LOG][Proc: 0]nuTilda: copy_x_back: 1.267 [ms]
[OGL LOG][lduLduBase.H:336] 
Statistics:
	Time per iteration: 13868 [mu s]
	Time per residual norm calculation: 275.000000 [mu s]
	Time per iteration and DOF: 2.198779 [ns]
	Retrieve results bandwidth 3.009000 [GByte/s]
[OGL LOG][Proc: 0]nuTilda: solve_multi_gpu: 34.237 [ms]
BJhipGKOBiCGStab:  Solving for nuTilda, Initial residual = 0.04129233327416036, Final residual = 0.00342230837168633, No Iterations 2
[INFO] TimeStep: 2519.18 [ms]
ExecutionTime = 48.48 s  ClockTime = 48 s

Time = 10

velocityDampingConstraint velocityDamping damped 0 (0%) of cells, with max limit 300
[INFO] MatrixAssemblyU: 542.6079999999999 [ms]
[OGL LOG][Proc: 0]: global_index_init: 0.098 [ms]
[OGL LOG][Proc: 0]Ux_local_coeffs: call_update: 0 [ms]
[OGL LOG][Proc: 0]Ux_non_local_coeffs: call_update: 0 [ms]
[OGL LOG][Proc: 0]Ux: update_local_matrix_data: 11.142 [ms]
[OGL LOG][Proc: 0]Ux: update_non_local_matrix_data: 0.083 [ms]
[OGL LOG][Proc: 0]Ux_matrix: call_update: 5.899 [ms]
[OGL LOG][Proc: 0]Ux_rhs: call_update: 0.999 [ms]
[OGL LOG][Preconditioner.H:121] Generate preconditioner BJ MaxBlockSize 1
[OGL LOG][Proc: 0]Ux: init_precond: 0.374 [ms]
[OGL LOG][StoppingCriterion.H:373] Creating stopping criterion with minIter 13 frequency 1
[OGL LOG][Proc: 0]Ux: generate_solver: 0.002 [ms]
[OGL LOG][Proc: 0]Ux: solve: 47.152 [ms]
[OGL LOG][Proc: 0]Ux: copy_x_back: 1.243 [ms]
[OGL LOG][lduLduBase.H:336] 
Statistics:
	Time per iteration: 4715 [mu s]
	Time per residual norm calculation: 267.000000 [mu s]
	Time per iteration and DOF: 0.747566 [ns]
	Retrieve results bandwidth 3.067000 [GByte/s]
[OGL LOG][Proc: 0]Ux: solve_multi_gpu: 56.492 [ms]
BJhipGKOBiCGStab:  Solving for Ux, Initial residual = 0.01457641866708585, Final residual = 0.001316950669278904, No Iterations 10
[OGL LOG][Proc: 0]: global_index_init: 0.08799999999999999 [ms]
[OGL LOG][Proc: 0]Uy_local_coeffs: call_update: 0 [ms]
[OGL LOG][Proc: 0]Uy_non_local_coeffs: call_update: 0 [ms]
[OGL LOG][Proc: 0]Uy: update_local_matrix_data: 11.087 [ms]
[OGL LOG][Proc: 0]Uy: update_non_local_matrix_data: 0.08 [ms]
[OGL LOG][Proc: 0]Uy_matrix: call_update: 3.778 [ms]
[OGL LOG][Proc: 0]Uy_rhs: call_update: 0.892 [ms]
[OGL LOG][Preconditioner.H:121] Generate preconditioner BJ MaxBlockSize 1
[OGL LOG][Proc: 0]Uy: init_precond: 0.37 [ms]
[OGL LOG][StoppingCriterion.H:373] Creating stopping criterion with minIter 14 frequency 1
[OGL LOG][Proc: 0]Uy: generate_solver: 0.002 [ms]
[OGL LOG][Proc: 0]Uy: solve: 47.594 [ms]
[OGL LOG][Proc: 0]Uy: copy_x_back: 1.272 [ms]
[OGL LOG][lduLduBase.H:336] 
Statistics:
	Time per iteration: 3661 [mu s]
	Time per residual norm calculation: 312.000000 [mu s]
	Time per iteration and DOF: 0.580454 [ns]
	Retrieve results bandwidth 2.997000 [GByte/s]
[OGL LOG][Proc: 0]Uy: solve_multi_gpu: 54.751 [ms]
BJhipGKOBiCGStab:  Solving for Uy, Initial residual = 0.07846418373124138, Final residual = 0.004636876283881128, No Iterations 13
[OGL LOG][Proc: 0]: global_index_init: 0.09 [ms]
[OGL LOG][Proc: 0]Uz_local_coeffs: call_update: 0 [ms]
[OGL LOG][Proc: 0]Uz_non_local_coeffs: call_update: 0 [ms]
[OGL LOG][Proc: 0]Uz: update_local_matrix_data: 11.358 [ms]
[OGL LOG][Proc: 0]Uz: update_non_local_matrix_data: 0.08600000000000001 [ms]
[OGL LOG][Proc: 0]Uz_matrix: call_update: 3.696 [ms]
[OGL LOG][Proc: 0]Uz_rhs: call_update: 1.14 [ms]
[OGL LOG][Preconditioner.H:121] Generate preconditioner BJ MaxBlockSize 1
[OGL LOG][Proc: 0]Uz: init_precond: 0.445 [ms]
[OGL LOG][StoppingCriterion.H:373] Creating stopping criterion with minIter 13 frequency 1
[OGL LOG][Proc: 0]Uz: generate_solver: 0.002 [ms]
[OGL LOG][Proc: 0]Uz: solve: 42.886 [ms]
[OGL LOG][Proc: 0]Uz: copy_x_back: 1.254 [ms]
[OGL LOG][lduLduBase.H:336] 
Statistics:
	Time per iteration: 3898 [mu s]
	Time per residual norm calculation: 264.000000 [mu s]
	Time per iteration and DOF: 0.618030 [ns]
	Retrieve results bandwidth 3.040000 [GByte/s]
[OGL LOG][Proc: 0]Uz: solve_multi_gpu: 50.256 [ms]
BJhipGKOBiCGStab:  Solving for Uz, Initial residual = 0.04067601160028039, Final residual = 0.003863559581083242, No Iterations 11
[INFO] MomentumPredictor: 235.026 [ms]
[INFO] MatrixAssemblyPI: 82.81699999999999 [ms]
[INFO] MatrixAssemblyPII: 44.288 [ms]
DICPCG:  Solving for p, Initial residual = 0.06068968561810926, Final residual = 0.0006013908353219164, No Iterations 110
[INFO] SolveP: 1180.312 [ms]
time step continuity errors : sum local = 0.004882039098322551, global = -0.0008771547587114582, cumulative = -0.001428894425599851
[INFO] postSolveP: 22.062 [ms]
[OGL LOG][Proc: 0]: global_index_init: 0.046 [ms]
[OGL LOG][Proc: 0]nuTilda_local_coeffs: call_update: 0 [ms]
[OGL LOG][Proc: 0]nuTilda_non_local_coeffs: call_update: 0 [ms]
[OGL LOG][Proc: 0]nuTilda: update_local_matrix_data: 11.783 [ms]
[OGL LOG][Proc: 0]nuTilda: update_non_local_matrix_data: 0.076 [ms]
[OGL LOG][Proc: 0]nuTilda_matrix: call_update: 3.817 [ms]
[OGL LOG][Proc: 0]nuTilda_rhs: call_update: 1.156 [ms]
[OGL LOG][Preconditioner.H:121] Generate preconditioner BJ MaxBlockSize 1
[OGL LOG][Proc: 0]nuTilda: init_precond: 0.397 [ms]
[OGL LOG][StoppingCriterion.H:373] Creating stopping criterion with minIter 2 frequency 1
[OGL LOG][Proc: 0]nuTilda: generate_solver: 0.002 [ms]
[OGL LOG][Proc: 0]nuTilda: solve: 28.959 [ms]
[OGL LOG][Proc: 0]nuTilda: copy_x_back: 1.269 [ms]
[OGL LOG][lduLduBase.H:336] 
Statistics:
	Time per iteration: 14479 [mu s]
	Time per residual norm calculation: 271.000000 [mu s]
	Time per iteration and DOF: 2.295654 [ns]
	Retrieve results bandwidth 3.004000 [GByte/s]
[OGL LOG][Proc: 0]nuTilda: solve_multi_gpu: 36.445 [ms]
BJhipGKOBiCGStab:  Solving for nuTilda, Initial residual = 0.0603285827037584, Final residual = 0.00562556298086291, No Iterations 2
[INFO] TimeStep: 2441.646 [ms]
ExecutionTime = 51.35 s  ClockTime = 51 s

Time = 11

velocityDampingConstraint velocityDamping damped 0 (0%) of cells, with max limit 300
[INFO] MatrixAssemblyU: 539.103 [ms]
[OGL LOG][Proc: 0]: global_index_init: 0.095 [ms]
[OGL LOG][Proc: 0]Ux_local_coeffs: call_update: 0 [ms]
[OGL LOG][Proc: 0]Ux_non_local_coeffs: call_update: 0 [ms]
[OGL LOG][Proc: 0]Ux: update_local_matrix_data: 10.933 [ms]
[OGL LOG][Proc: 0]Ux: update_non_local_matrix_data: 0.06900000000000001 [ms]
[OGL LOG][Proc: 0]Ux_matrix: call_update: 3.922 [ms]
[OGL LOG][Proc: 0]Ux_rhs: call_update: 1.287 [ms]
[OGL LOG][Preconditioner.H:121] Generate preconditioner BJ MaxBlockSize 1
[OGL LOG][Proc: 0]Ux: init_precond: 0.396 [ms]
[OGL LOG][StoppingCriterion.H:373] Creating stopping criterion with minIter 12 frequency 1
[OGL LOG][Proc: 0]Ux: generate_solver: 0.001 [ms]
[OGL LOG][Proc: 0]Ux: solve: 43.069 [ms]
[OGL LOG][Proc: 0]Ux: copy_x_back: 1.247 [ms]
[OGL LOG][lduLduBase.H:336] 
Statistics:
	Time per iteration: 3915 [mu s]
	Time per residual norm calculation: 268.000000 [mu s]
	Time per iteration and DOF: 0.620725 [ns]
	Retrieve results bandwidth 3.057000 [GByte/s]
[OGL LOG][Proc: 0]Ux: solve_multi_gpu: 50.758 [ms]
BJhipGKOBiCGStab:  Solving for Ux, Initial residual = 0.01350352934031271, Final residual = 0.0009719577632060323, No Iterations 11
[OGL LOG][Proc: 0]: global_index_init: 0.119 [ms]
[OGL LOG][Proc: 0]Uy_local_coeffs: call_update: 0 [ms]
[OGL LOG][Proc: 0]Uy_non_local_coeffs: call_update: 0 [ms]
[OGL LOG][Proc: 0]Uy: update_local_matrix_data: 11.102 [ms]
[OGL LOG][Proc: 0]Uy: update_non_local_matrix_data: 0.08 [ms]
[OGL LOG][Proc: 0]Uy_matrix: call_update: 3.907 [ms]
[OGL LOG][Proc: 0]Uy_rhs: call_update: 0.997 [ms]
[OGL LOG][Preconditioner.H:121] Generate preconditioner BJ MaxBlockSize 1
[OGL LOG][Proc: 0]Uy: init_precond: 0.368 [ms]
[OGL LOG][StoppingCriterion.H:373] Creating stopping criterion with minIter 15 frequency 1
[OGL LOG][Proc: 0]Uy: generate_solver: 0.002 [ms]
[OGL LOG][Proc: 0]Uy: solve: 45.79 [ms]
[OGL LOG][Proc: 0]Uy: copy_x_back: 1.252 [ms]
[OGL LOG][lduLduBase.H:336] 
Statistics:
	Time per iteration: 3815 [mu s]
	Time per residual norm calculation: 328.000000 [mu s]
	Time per iteration and DOF: 0.604870 [ns]
	Retrieve results bandwidth 3.045000 [GByte/s]
[OGL LOG][Proc: 0]Uy: solve_multi_gpu: 53.164 [ms]
BJhipGKOBiCGStab:  Solving for Uy, Initial residual = 0.04463436066861451, Final residual = 0.003460360618526948, No Iterations 12
[OGL LOG][Proc: 0]: global_index_init: 0.092 [ms]
[OGL LOG][Proc: 0]Uz_local_coeffs: call_update: 0 [ms]
[OGL LOG][Proc: 0]Uz_non_local_coeffs: call_update: 0 [ms]
[OGL LOG][Proc: 0]Uz: update_local_matrix_data: 11.232 [ms]
[OGL LOG][Proc: 0]Uz: update_non_local_matrix_data: 0.068 [ms]
[OGL LOG][Proc: 0]Uz_matrix: call_update: 5.836 [ms]
[OGL LOG][Proc: 0]Uz_rhs: call_update: 1.244 [ms]
[OGL LOG][Preconditioner.H:121] Generate preconditioner BJ MaxBlockSize 1
[OGL LOG][Proc: 0]Uz: init_precond: 0.398 [ms]
[OGL LOG][StoppingCriterion.H:373] Creating stopping criterion with minIter 13 frequency 1
[OGL LOG][Proc: 0]Uz: generate_solver: 0.001 [ms]
[OGL LOG][Proc: 0]Uz: solve: 47.09 [ms]
[OGL LOG][Proc: 0]Uz: copy_x_back: 1.275 [ms]
[OGL LOG][lduLduBase.H:336] 
Statistics:
	Time per iteration: 4280 [mu s]
	Time per residual norm calculation: 256.000000 [mu s]
	Time per iteration and DOF: 0.678596 [ns]
	Retrieve results bandwidth 2.990000 [GByte/s]
[OGL LOG][Proc: 0]Uz: solve_multi_gpu: 56.675 [ms]
BJhipGKOBiCGStab:  Solving for Uz, Initial residual = 0.03951261238788245, Final residual = 0.003574751026518645, No Iterations 11
[INFO] MomentumPredictor: 233.706 [ms]
[INFO] MatrixAssemblyPI: 82.377 [ms]
[INFO] MatrixAssemblyPII: 40.189 [ms]
DICPCG:  Solving for p, Initial residual = 0.05563511840219857, Final residual = 0.0005550270125217119, No Iterations 115
[INFO] SolveP: 1234.913 [ms]
time step continuity errors : sum local = 0.004444819614424739, global = -0.0007942605232286799, cumulative = -0.002223154948828531
[INFO] postSolveP: 21.492 [ms]
[OGL LOG][Proc: 0]: global_index_init: 0.437 [ms]
[OGL LOG][Proc: 0]nuTilda_local_coeffs: call_update: 0 [ms]
[OGL LOG][Proc: 0]nuTilda_non_local_coeffs: call_update: 0 [ms]
[OGL LOG][Proc: 0]nuTilda: update_local_matrix_data: 11.905 [ms]
[OGL LOG][Proc: 0]nuTilda: update_non_local_matrix_data: 0.094 [ms]
[OGL LOG][Proc: 0]nuTilda_matrix: call_update: 3.55 [ms]
[OGL LOG][Proc: 0]nuTilda_rhs: call_update: 1.651 [ms]
[OGL LOG][Preconditioner.H:121] Generate preconditioner BJ MaxBlockSize 1
[OGL LOG][Proc: 0]nuTilda: init_precond: 0.419 [ms]
[OGL LOG][StoppingCriterion.H:373] Creating stopping criterion with minIter 2 frequency 1
[OGL LOG][Proc: 0]nuTilda: generate_solver: 0.002 [ms]
[OGL LOG][Proc: 0]nuTilda: solve: 28.581 [ms]
[OGL LOG][Proc: 0]nuTilda: copy_x_back: 1.249 [ms]
[OGL LOG][lduLduBase.H:336] 
Statistics:
	Time per iteration: 14290 [mu s]
	Time per residual norm calculation: 253.000000 [mu s]
	Time per iteration and DOF: 2.265688 [ns]
	Retrieve results bandwidth 3.052000 [GByte/s]
[OGL LOG][Proc: 0]nuTilda: solve_multi_gpu: 36.293 [ms]
BJhipGKOBiCGStab:  Solving for nuTilda, Initial residual = 0.03728819389565927, Final residual = 0.002072142805238704, No Iterations 2
[INFO] TimeStep: 2482.472 [ms]
ExecutionTime = 54.25 s  ClockTime = 54 s

Time = 12

velocityDampingConstraint velocityDamping damped 0 (0%) of cells, with max limit 300
[INFO] MatrixAssemblyU: 536.722 [ms]
[OGL LOG][Proc: 0]: global_index_init: 0.092 [ms]
[OGL LOG][Proc: 0]Ux_local_coeffs: call_update: 0 [ms]
[OGL LOG][Proc: 0]Ux_non_local_coeffs: call_update: 0 [ms]
[OGL LOG][Proc: 0]Ux: update_local_matrix_data: 11.037 [ms]
[OGL LOG][Proc: 0]Ux: update_non_local_matrix_data: 0.068 [ms]
[OGL LOG][Proc: 0]Ux_matrix: call_update: 4.204 [ms]
[OGL LOG][Proc: 0]Ux_rhs: call_update: 0.742 [ms]
[OGL LOG][Preconditioner.H:121] Generate preconditioner BJ MaxBlockSize 1
[OGL LOG][Proc: 0]Ux: init_precond: 0.433 [ms]
[OGL LOG][StoppingCriterion.H:373] Creating stopping criterion with minIter 13 frequency 1
[OGL LOG][Proc: 0]Ux: generate_solver: 0.002 [ms]
[OGL LOG][Proc: 0]Ux: solve: 40.711 [ms]
[OGL LOG][Proc: 0]Ux: copy_x_back: 1.276 [ms]
[OGL LOG][lduLduBase.H:336] 
Statistics:
	Time per iteration: 4071 [mu s]
	Time per residual norm calculation: 268.000000 [mu s]
	Time per iteration and DOF: 0.645459 [ns]
	Retrieve results bandwidth 2.988000 [GByte/s]
[OGL LOG][Proc: 0]Ux: solve_multi_gpu: 48.202 [ms]
BJhipGKOBiCGStab:  Solving for Ux, Initial residual = 0.01276583001928318, Final residual = 0.001265329061880299, No Iterations 10
[OGL LOG][Proc: 0]: global_index_init: 0.091 [ms]
[OGL LOG][Proc: 0]Uy_local_coeffs: call_update: 0 [ms]
[OGL LOG][Proc: 0]Uy_non_local_coeffs: call_update: 0 [ms]
[OGL LOG][Proc: 0]Uy: update_local_matrix_data: 11.169 [ms]
[OGL LOG][Proc: 0]Uy: update_non_local_matrix_data: 0.073 [ms]
[OGL LOG][Proc: 0]Uy_matrix: call_update: 4.469 [ms]
[OGL LOG][Proc: 0]Uy_rhs: call_update: 0.613 [ms]
[OGL LOG][Preconditioner.H:121] Generate preconditioner BJ MaxBlockSize 1
[OGL LOG][Proc: 0]Uy: init_precond: 0.375 [ms]
[OGL LOG][StoppingCriterion.H:373] Creating stopping criterion with minIter 14 frequency 1
[OGL LOG][Proc: 0]Uy: generate_solver: 0.001 [ms]
[OGL LOG][Proc: 0]Uy: solve: 44.174 [ms]
[OGL LOG][Proc: 0]Uy: copy_x_back: 1.252 [ms]
[OGL LOG][lduLduBase.H:336] 
Statistics:
	Time per iteration: 4015 [mu s]
	Time per residual norm calculation: 267.000000 [mu s]
	Time per iteration and DOF: 0.636581 [ns]
	Retrieve results bandwidth 3.045000 [GByte/s]
[OGL LOG][Proc: 0]Uy: solve_multi_gpu: 51.749 [ms]
BJhipGKOBiCGStab:  Solving for Uy, Initial residual = 0.04032587395507401, Final residual = 0.003242702907235488, No Iterations 11
[OGL LOG][Proc: 0]: global_index_init: 0.093 [ms]
[OGL LOG][Proc: 0]Uz_local_coeffs: call_update: 0 [ms]
[OGL LOG][Proc: 0]Uz_non_local_coeffs: call_update: 0 [ms]
[OGL LOG][Proc: 0]Uz: update_local_matrix_data: 11.013 [ms]
[OGL LOG][Proc: 0]Uz: update_non_local_matrix_data: 0.06900000000000001 [ms]
[OGL LOG][Proc: 0]Uz_matrix: call_update: 4.144 [ms]
[OGL LOG][Proc: 0]Uz_rhs: call_update: 4.64 [ms]
[OGL LOG][Preconditioner.H:121] Generate preconditioner BJ MaxBlockSize 1
[OGL LOG][Proc: 0]Uz: init_precond: 0.45 [ms]
[OGL LOG][StoppingCriterion.H:373] Creating stopping criterion with minIter 13 frequency 1
[OGL LOG][Proc: 0]Uz: generate_solver: 0.002 [ms]
[OGL LOG][Proc: 0]Uz: solve: 44.512 [ms]
[OGL LOG][Proc: 0]Uz: copy_x_back: 1.259 [ms]
[OGL LOG][lduLduBase.H:336] 
Statistics:
	Time per iteration: 4451 [mu s]
	Time per residual norm calculation: 252.000000 [mu s]
	Time per iteration and DOF: 0.705709 [ns]
	Retrieve results bandwidth 3.028000 [GByte/s]
[OGL LOG][Proc: 0]Uz: solve_multi_gpu: 55.849 [ms]
BJhipGKOBiCGStab:  Solving for Uz, Initial residual = 0.03641747680554633, Final residual = 0.003566649926952513, No Iterations 10
[INFO] MomentumPredictor: 228.826 [ms]
[INFO] MatrixAssemblyPI: 82.684 [ms]
[INFO] MatrixAssemblyPII: 40.323 [ms]
DICPCG:  Solving for p, Initial residual = 0.05235167049122524, Final residual = 0.0005200972286204303, No Iterations 102
[INFO] SolveP: 1145.564 [ms]
time step continuity errors : sum local = 0.004129509079614666, global = -0.0005540136214569649, cumulative = -0.002777168570285495
[INFO] postSolveP: 21.059 [ms]
[OGL LOG][Proc: 0]: global_index_init: 0.178 [ms]
[OGL LOG][Proc: 0]nuTilda_local_coeffs: call_update: 0 [ms]
[OGL LOG][Proc: 0]nuTilda_non_local_coeffs: call_update: 0 [ms]
[OGL LOG][Proc: 0]nuTilda: update_local_matrix_data: 11.884 [ms]
[OGL LOG][Proc: 0]nuTilda: update_non_local_matrix_data: 0.079 [ms]
[OGL LOG][Proc: 0]nuTilda_matrix: call_update: 4.208 [ms]
[OGL LOG][Proc: 0]nuTilda_rhs: call_update: 1.672 [ms]
[OGL LOG][Preconditioner.H:121] Generate preconditioner BJ MaxBlockSize 1
[OGL LOG][Proc: 0]nuTilda: init_precond: 0.372 [ms]
[OGL LOG][StoppingCriterion.H:373] Creating stopping criterion with minIter 3 frequency 1
[OGL LOG][Proc: 0]nuTilda: generate_solver: 0.001 [ms]
[OGL LOG][Proc: 0]nuTilda: solve: 32.433 [ms]
[OGL LOG][Proc: 0]nuTilda: copy_x_back: 1.267 [ms]
[OGL LOG][lduLduBase.H:336] 
Statistics:
	Time per iteration: 16216 [mu s]
	Time per residual norm calculation: 270.000000 [mu s]
	Time per iteration and DOF: 2.571056 [ns]
	Retrieve results bandwidth 3.009000 [GByte/s]
[OGL LOG][Proc: 0]nuTilda: solve_multi_gpu: 40.796 [ms]
BJhipGKOBiCGStab:  Solving for nuTilda, Initial residual = 0.06011226945252091, Final residual = 0.004640203645463511, No Iterations 2
[INFO] TimeStep: 2393.31 [ms]
ExecutionTime = 57.07 s  ClockTime = 57 s

Time = 13

velocityDampingConstraint velocityDamping damped 0 (0%) of cells, with max limit 300
[INFO] MatrixAssemblyU: 535.0069999999999 [ms]
[OGL LOG][Proc: 0]: global_index_init: 0.08600000000000001 [ms]
[OGL LOG][Proc: 0]Ux_local_coeffs: call_update: 0 [ms]
[...]
[OGL LOG][Proc: 0]Uy_rhs: call_update: 1.326 [ms]
[OGL LOG][Preconditioner.H:121] Generate preconditioner BJ MaxBlockSize 1
[OGL LOG][Proc: 0]Uy: init_precond: 0.376 [ms]
[OGL LOG][StoppingCriterion.H:373] Creating stopping criterion with minIter 13 frequency 1
[OGL LOG][Proc: 0]Uy: generate_solver: 0.003 [ms]
[OGL LOG][Proc: 0]Uy: solve: 47.128 [ms]
[OGL LOG][Proc: 0]Uy: copy_x_back: 1.282 [ms]
[OGL LOG][lduLduBase.H:336] 
Statistics:
	Time per iteration: 4712 [mu s]
	Time per residual norm calculation: 254.000000 [mu s]
	Time per iteration and DOF: 0.747090 [ns]
	Retrieve results bandwidth 2.974000 [GByte/s]
[OGL LOG][Proc: 0]Uy: solve_multi_gpu: 55.067 [ms]
BJhipGKOBiCGStab:  Solving for Uy, Initial residual = 0.06163350715754713, Final residual = 0.006116864785637699, No Iterations 10
[OGL LOG][Proc: 0]: global_index_init: 0.091 [ms]
[OGL LOG][Proc: 0]Uz_local_coeffs: call_update: 0 [ms]
[OGL LOG][Proc: 0]Uz_non_local_coeffs: call_update: 0 [ms]
[OGL LOG][Proc: 0]Uz: update_local_matrix_data: 11.164 [ms]
[OGL LOG][Proc: 0]Uz: update_non_local_matrix_data: 0.09 [ms]
[OGL LOG][Proc: 0]Uz_matrix: call_update: 3.723 [ms]
[OGL LOG][Proc: 0]Uz_rhs: call_update: 2.606 [ms]
[OGL LOG][Preconditioner.H:121] Generate preconditioner BJ MaxBlockSize 1
[OGL LOG][Proc: 0]Uz: init_precond: 0.394 [ms]
[OGL LOG][StoppingCriterion.H:373] Creating stopping criterion with minIter 13 frequency 1
[OGL LOG][Proc: 0]Uz: generate_solver: 0.002 [ms]
[OGL LOG][Proc: 0]Uz: solve: 46.262 [ms]
[OGL LOG][Proc: 0]Uz: copy_x_back: 1.28 [ms]
[OGL LOG][lduLduBase.H:336] 
Statistics:
	Time per iteration: 4205 [mu s]
	Time per residual norm calculation: 268.000000 [mu s]
	Time per iteration and DOF: 0.666705 [ns]
	Retrieve results bandwidth 2.978000 [GByte/s]
[OGL LOG][Proc: 0]Uz: solve_multi_gpu: 55.172 [ms]
BJhipGKOBiCGStab:  Solving for Uz, Initial residual = 0.06208652780426115, Final residual = 0.006078231406842478, No Iterations 11
[INFO] MomentumPredictor: 235.102 [ms]
[INFO] MatrixAssemblyPI: 84.88800000000001 [ms]
[INFO] MatrixAssemblyPII: 40.422 [ms]
DICPCG:  Solving for p, Initial residual = 0.05418651763665811, Final residual = 0.0005406748983473062, No Iterations 121
[INFO] SolveP: 1279.493 [ms]
time step continuity errors : sum local = 0.005799007185356622, global = -0.001098051939465727, cumulative = 0.01549047534352058
[INFO] postSolveP: 21.322 [ms]
[OGL LOG][Proc: 0]: global_index_init: 0.733 [ms]
[OGL LOG][Proc: 0]nuTilda_local_coeffs: call_update: 0 [ms]
[OGL LOG][Proc: 0]nuTilda_non_local_coeffs: call_update: 0 [ms]
[OGL LOG][Proc: 0]nuTilda: update_local_matrix_data: 11.847 [ms]
[OGL LOG][Proc: 0]nuTilda: update_non_local_matrix_data: 0.07200000000000001 [ms]
[OGL LOG][Proc: 0]nuTilda_matrix: call_update: 3.703 [ms]
[OGL LOG][Proc: 0]nuTilda_rhs: call_update: 2.022 [ms]
[OGL LOG][Preconditioner.H:121] Generate preconditioner BJ MaxBlockSize 1
[OGL LOG][Proc: 0]nuTilda: init_precond: 0.413 [ms]
[OGL LOG][StoppingCriterion.H:373] Creating stopping criterion with minIter 2 frequency 1
[OGL LOG][Proc: 0]nuTilda: generate_solver: 0.002 [ms]
[OGL LOG][Proc: 0]nuTilda: solve: 28.947 [ms]
[OGL LOG][Proc: 0]nuTilda: copy_x_back: 1.267 [ms]
[OGL LOG][lduLduBase.H:336] 
Statistics:
	Time per iteration: 14473 [mu s]
	Time per residual norm calculation: 268.000000 [mu s]
	Time per iteration and DOF: 2.294702 [ns]
	Retrieve results bandwidth 3.009000 [GByte/s]
[OGL LOG][Proc: 0]nuTilda: solve_multi_gpu: 37.25 [ms]
BJhipGKOBiCGStab:  Solving for nuTilda, Initial residual = 0.01143312264845619, Final residual = 0.0008435031505162824, No Iterations 2
bounding nuTilda, min: -7.862476601614744e-05 max: 0.006889941475446942 average: 0.0003469420875422105
[INFO] TimeStep: 2533.94 [ms]
ExecutionTime = 151.15 s  ClockTime = 152 s

Time = 48

velocityDampingConstraint velocityDamping damped 0 (0%) of cells, with max limit 300
[INFO] MatrixAssemblyU: 526.481 [ms]
[OGL LOG][Proc: 0]: global_index_init: 0.025 [ms]
[OGL LOG][Proc: 0]Ux_local_coeffs: call_update: 0 [ms]
[OGL LOG][Proc: 0]Ux_non_local_coeffs: call_update: 0 [ms]
[OGL LOG][Proc: 0]Ux: update_local_matrix_data: 11.396 [ms]
[OGL LOG][Proc: 0]Ux: update_non_local_matrix_data: 0.08799999999999999 [ms]
[OGL LOG][Proc: 0]Ux_matrix: call_update: 3.998 [ms]
[OGL LOG][Proc: 0]Ux_rhs: call_update: 0.987 [ms]
[OGL LOG][Preconditioner.H:121] Generate preconditioner BJ MaxBlockSize 1
[OGL LOG][Proc: 0]Ux: init_precond: 0.371 [ms]
[OGL LOG][StoppingCriterion.H:373] Creating stopping criterion with minIter 13 frequency 1
[OGL LOG][Proc: 0]Ux: generate_solver: 0.002 [ms]
[OGL LOG][Proc: 0]Ux: solve: 43.79 [ms]
[OGL LOG][Proc: 0]Ux: copy_x_back: 1.258 [ms]
[OGL LOG][lduLduBase.H:336] 
Statistics:
	Time per iteration: 3980 [mu s]
	Time per residual norm calculation: 248.000000 [mu s]
	Time per iteration and DOF: 0.631031 [ns]
	Retrieve results bandwidth 3.030000 [GByte/s]
[OGL LOG][Proc: 0]Ux: solve_multi_gpu: 51.264 [ms]
BJhipGKOBiCGStab:  Solving for Ux, Initial residual = 0.01163288267898334, Final residual = 0.001048875820179816, No Iterations 11
[OGL LOG][Proc: 0]: global_index_init: 0.092 [ms]
[OGL LOG][Proc: 0]Uy_local_coeffs: call_update: 0 [ms]
[OGL LOG][Proc: 0]Uy_non_local_coeffs: call_update: 0 [ms]
[OGL LOG][Proc: 0]Uy: update_local_matrix_data: 11.838 [ms]
[OGL LOG][Proc: 0]Uy: update_non_local_matrix_data: 0.08799999999999999 [ms]
[OGL LOG][Proc: 0]Uy_matrix: call_update: 3.557 [ms]
[OGL LOG][Proc: 0]Uy_rhs: call_update: 0.834 [ms]
[OGL LOG][Preconditioner.H:121] Generate preconditioner BJ MaxBlockSize 1
[OGL LOG][Proc: 0]Uy: init_precond: 0.371 [ms]
[OGL LOG][StoppingCriterion.H:373] Creating stopping criterion with minIter 12 frequency 1
[OGL LOG][Proc: 0]Uy: generate_solver: 0.002 [ms]
[OGL LOG][Proc: 0]Uy: solve: 42.775 [ms]
[OGL LOG][Proc: 0]Uy: copy_x_back: 1.288 [ms]
[OGL LOG][lduLduBase.H:336] 
Statistics:
	Time per iteration: 3888 [mu s]
	Time per residual norm calculation: 310.000000 [mu s]
	Time per iteration and DOF: 0.616445 [ns]
	Retrieve results bandwidth 2.960000 [GByte/s]
[OGL LOG][Proc: 0]Uy: solve_multi_gpu: 49.712 [ms]
BJhipGKOBiCGStab:  Solving for Uy, Initial residual = 0.05759555959595693, Final residual = 0.004637191305778935, No Iterations 11
[OGL LOG][Proc: 0]: global_index_init: 0.091 [ms]
[OGL LOG][Proc: 0]Uz_local_coeffs: call_update: 0 [ms]
[OGL LOG][Proc: 0]Uz_non_local_coeffs: call_update: 0 [ms]
[OGL LOG][Proc: 0]Uz: update_local_matrix_data: 13.193 [ms]
[OGL LOG][Proc: 0]Uz: update_non_local_matrix_data: 0.076 [ms]
[OGL LOG][Proc: 0]Uz_matrix: call_update: 3.271 [ms]
[OGL LOG][Proc: 0]Uz_rhs: call_update: 0.466 [ms]
[OGL LOG][Preconditioner.H:121] Generate preconditioner BJ MaxBlockSize 1
[OGL LOG][Proc: 0]Uz: init_precond: 0.371 [ms]
[OGL LOG][StoppingCriterion.H:373] Creating stopping criterion with minIter 13 frequency 1
[OGL LOG][Proc: 0]Uz: generate_solver: 0.002 [ms]
[OGL LOG][Proc: 0]Uz: solve: 49.073 [ms]
[OGL LOG][Proc: 0]Uz: copy_x_back: 1.29 [ms]
[OGL LOG][lduLduBase.H:336] 
Statistics:
	Time per iteration: 3774 [mu s]
	Time per residual norm calculation: 269.000000 [mu s]
	Time per iteration and DOF: 0.598370 [ns]
	Retrieve results bandwidth 2.955000 [GByte/s]
[OGL LOG][Proc: 0]Uz: solve_multi_gpu: 55.357 [ms]
BJhipGKOBiCGStab:  Solving for Uz, Initial residual = 0.06139015890783819, Final residual = 0.003721152416971448, No Iterations 13
[INFO] MomentumPredictor: 233.124 [ms]
[INFO] MatrixAssemblyPI: 83.871 [ms]
[INFO] MatrixAssemblyPII: 40.303 [ms]
DICPCG:  Solving for p, Initial residual = 0.0594693559459044, Final residual = 0.0005863188292011177, No Iterations 200
[INFO] SolveP: 2080.03 [ms]
time step continuity errors : sum local = 0.006210375351901844, global = -0.0005292978800948919, cumulative = 0.01496117746342568
[INFO] postSolveP: 21.683 [ms]
[OGL LOG][Proc: 0]: global_index_init: 0.321 [ms]
[OGL LOG][Proc: 0]nuTilda_local_coeffs: call_update: 0 [ms]
[OGL LOG][Proc: 0]nuTilda_non_local_coeffs: call_update: 0 [ms]
[OGL LOG][Proc: 0]nuTilda: update_local_matrix_data: 14.379 [ms]
[OGL LOG][Proc: 0]nuTilda: update_non_local_matrix_data: 0.068 [ms]
[OGL LOG][Proc: 0]nuTilda_matrix: call_update: 3.317 [ms]
[OGL LOG][Proc: 0]nuTilda_rhs: call_update: 0.437 [ms]
[OGL LOG][Preconditioner.H:121] Generate preconditioner BJ MaxBlockSize 1
[OGL LOG][Proc: 0]nuTilda: init_precond: 0.38 [ms]
[OGL LOG][StoppingCriterion.H:373] Creating stopping criterion with minIter 3 frequency 1
[OGL LOG][Proc: 0]nuTilda: generate_solver: 0.002 [ms]
[OGL LOG][Proc: 0]nuTilda: solve: 28.696 [ms]
[OGL LOG][Proc: 0]nuTilda: copy_x_back: 1.285 [ms]
[OGL LOG][lduLduBase.H:336] 
Statistics:
	Time per iteration: 14348 [mu s]
	Time per residual norm calculation: 255.000000 [mu s]
	Time per iteration and DOF: 2.274884 [ns]
	Retrieve results bandwidth 2.967000 [GByte/s]
[OGL LOG][Proc: 0]nuTilda: solve_multi_gpu: 35.013 [ms]
BJhipGKOBiCGStab:  Solving for nuTilda, Initial residual = 0.01526048385765673, Final residual = 0.0009035421363452702, No Iterations 2
bounding nuTilda, min: -8.182169755177572e-05 max: 0.006935003474689323 average: 0.000355655453028613
[INFO] TimeStep: 3328.775 [ms]
ExecutionTime = 154.89 s  ClockTime = 155 s

Time = 49

velocityDampingConstraint velocityDamping damped 0 (0%) of cells, with max limit 300
[INFO] MatrixAssemblyU: 526.848 [ms]
[OGL LOG][Proc: 0]: global_index_init: 0.07100000000000001 [ms]
[OGL LOG][Proc: 0]Ux_local_coeffs: call_update: 0 [ms]
[OGL LOG][Proc: 0]Ux_non_local_coeffs: call_update: 0 [ms]
[OGL LOG][Proc: 0]Ux: update_local_matrix_data: 10.963 [ms]
[OGL LOG][Proc: 0]Ux: update_non_local_matrix_data: 0.07100000000000001 [ms]
[OGL LOG][Proc: 0]Ux_matrix: call_update: 3.859 [ms]
[OGL LOG][Proc: 0]Ux_rhs: call_update: 1.229 [ms]
[OGL LOG][Preconditioner.H:121] Generate preconditioner BJ MaxBlockSize 1
[OGL LOG][Proc: 0]Ux: init_precond: 0.466 [ms]
[OGL LOG][StoppingCriterion.H:373] Creating stopping criterion with minIter 13 frequency 1
[OGL LOG][Proc: 0]Ux: generate_solver: 0.002 [ms]
[OGL LOG][Proc: 0]Ux: solve: 44.272 [ms]
[OGL LOG][Proc: 0]Ux: copy_x_back: 1.29 [ms]
[OGL LOG][lduLduBase.H:336] 
Statistics:
	Time per iteration: 3689 [mu s]
	Time per residual norm calculation: 268.000000 [mu s]
	Time per iteration and DOF: 0.584893 [ns]
	Retrieve results bandwidth 2.955000 [GByte/s]
[OGL LOG][Proc: 0]Ux: solve_multi_gpu: 52.023 [ms]
BJhipGKOBiCGStab:  Solving for Ux, Initial residual = 0.01176476887113901, Final residual = 0.0006325535854199105, No Iterations 12
[OGL LOG][Proc: 0]: global_index_init: 0.091 [ms]
[OGL LOG][Proc: 0]Uy_local_coeffs: call_update: 0 [ms]
[OGL LOG][Proc: 0]Uy_non_local_coeffs: call_update: 0 [ms]
[OGL LOG][Proc: 0]Uy: update_local_matrix_data: 11.178 [ms]
[OGL LOG][Proc: 0]Uy: update_non_local_matrix_data: 0.07200000000000001 [ms]
[OGL LOG][Proc: 0]Uy_matrix: call_update: 3.931 [ms]
[OGL LOG][Proc: 0]Uy_rhs: call_update: 0.9510000000000001 [ms]
[OGL LOG][Preconditioner.H:121] Generate preconditioner BJ MaxBlockSize 1
[OGL LOG][Proc: 0]Uy: init_precond: 0.37 [ms]
[OGL LOG][StoppingCriterion.H:373] Creating stopping criterion with minIter 13 frequency 1
[OGL LOG][Proc: 0]Uy: generate_solver: 0.002 [ms]
[OGL LOG][Proc: 0]Uy: solve: 52.232 [ms]
[OGL LOG][Proc: 0]Uy: copy_x_back: 1.292 [ms]
[OGL LOG][lduLduBase.H:336] 
Statistics:
	Time per iteration: 3730 [mu s]
	Time per residual norm calculation: 266.000000 [mu s]
	Time per iteration and DOF: 0.591394 [ns]
	Retrieve results bandwidth 2.951000 [GByte/s]
[OGL LOG][Proc: 0]Uy: solve_multi_gpu: 59.65 [ms]
BJhipGKOBiCGStab:  Solving for Uy, Initial residual = 0.06225366379976353, Final residual = 0.004371836727926226, No Iterations 14
[OGL LOG][Proc: 0]: global_index_init: 0.097 [ms]
[OGL LOG][Proc: 0]Uz_local_coeffs: call_update: 0 [ms]
[OGL LOG][Proc: 0]Uz_non_local_coeffs: call_update: 0 [ms]
[OGL LOG][Proc: 0]Uz: update_local_matrix_data: 11.068 [ms]
[OGL LOG][Proc: 0]Uz: update_non_local_matrix_data: 0.08400000000000001 [ms]
[OGL LOG][Proc: 0]Uz_matrix: call_update: 4.083 [ms]
[OGL LOG][Proc: 0]Uz_rhs: call_update: 5.125 [ms]
[OGL LOG][Preconditioner.H:121] Generate preconditioner BJ MaxBlockSize 1
[OGL LOG][Proc: 0]Uz: init_precond: 0.398 [ms]
[OGL LOG][StoppingCriterion.H:373] Creating stopping criterion with minIter 15 frequency 1
[OGL LOG][Proc: 0]Uz: generate_solver: 0.002 [ms]
[OGL LOG][Proc: 0]Uz: solve: 41.902 [ms]
[OGL LOG][Proc: 0]Uz: copy_x_back: 1.272 [ms]
[OGL LOG][lduLduBase.H:336] 
Statistics:
	Time per iteration: 3809 [mu s]
	Time per residual norm calculation: 266.000000 [mu s]
	Time per iteration and DOF: 0.603919 [ns]
	Retrieve results bandwidth 2.997000 [GByte/s]
[OGL LOG][Proc: 0]Uz: solve_multi_gpu: 53.662 [ms]
BJhipGKOBiCGStab:  Solving for Uz, Initial residual = 0.07497844622252466, Final residual = 0.006785994785501903, No Iterations 11
[INFO] MomentumPredictor: 238.913 [ms]
[INFO] MatrixAssemblyPI: 83.605 [ms]
[INFO] MatrixAssemblyPII: 40.418 [ms]
DICPCG:  Solving for p, Initial residual = 0.06320320415682072, Final residual = 0.00061844177454686, No Iterations 97
[INFO] SolveP: 1019.715 [ms]
time step continuity errors : sum local = 0.006305303929963411, global = 0.0001828599759559665, cumulative = 0.01514403743938165
[INFO] postSolveP: 21.129 [ms]
[OGL LOG][Proc: 0]: global_index_init: 0.906 [ms]
[OGL LOG][Proc: 0]nuTilda_local_coeffs: call_update: 0 [ms]
[OGL LOG][Proc: 0]nuTilda_non_local_coeffs: call_update: 0 [ms]
[OGL LOG][Proc: 0]nuTilda: update_local_matrix_data: 12.027 [ms]
[OGL LOG][Proc: 0]nuTilda: update_non_local_matrix_data: 0.073 [ms]
[OGL LOG][Proc: 0]nuTilda_matrix: call_update: 3.601 [ms]
[OGL LOG][Proc: 0]nuTilda_rhs: call_update: 2.025 [ms]
[OGL LOG][Preconditioner.H:121] Generate preconditioner BJ MaxBlockSize 1
[OGL LOG][Proc: 0]nuTilda: init_precond: 0.374 [ms]
[OGL LOG][StoppingCriterion.H:373] Creating stopping criterion with minIter 3 frequency 1
[OGL LOG][Proc: 0]nuTilda: generate_solver: 0.003 [ms]
[OGL LOG][Proc: 0]nuTilda: solve: 28.752 [ms]
[OGL LOG][Proc: 0]nuTilda: copy_x_back: 1.349 [ms]
[OGL LOG][lduLduBase.H:336] 
Statistics:
	Time per iteration: 14376 [mu s]
	Time per residual norm calculation: 256.000000 [mu s]
	Time per iteration and DOF: 2.279323 [ns]
	Retrieve results bandwidth 2.826000 [GByte/s]
[OGL LOG][Proc: 0]nuTilda: solve_multi_gpu: 37.019 [ms]
BJhipGKOBiCGStab:  Solving for nuTilda, Initial residual = 0.010884184448771, Final residual = 0.0007093413033816796, No Iterations 2
bounding nuTilda, min: -4.320493695947173e-05 max: 0.006980958551730361 average: 0.0003653542940297557
[INFO] TimeStep: 2271.307 [ms]
ExecutionTime = 157.57 s  ClockTime = 158 s

Time = 50

velocityDampingConstraint velocityDamping damped 0 (0%) of cells, with max limit 300
[INFO] MatrixAssemblyU: 527.4400000000001 [ms]
[OGL LOG][Proc: 0]: global_index_init: 0.08 [ms]
[OGL LOG][Proc: 0]Ux_local_coeffs: call_update: 0 [ms]
[OGL LOG][Proc: 0]Ux_non_local_coeffs: call_update: 0 [ms]
[OGL LOG][Proc: 0]Ux: update_local_matrix_data: 11.071 [ms]
[OGL LOG][Proc: 0]Ux: update_non_local_matrix_data: 0.105 [ms]
[OGL LOG][Proc: 0]Ux_matrix: call_update: 3.712 [ms]
[OGL LOG][Proc: 0]Ux_rhs: call_update: 1.046 [ms]
[OGL LOG][Preconditioner.H:121] Generate preconditioner BJ MaxBlockSize 1
[OGL LOG][Proc: 0]Ux: init_precond: 0.38 [ms]
[OGL LOG][StoppingCriterion.H:373] Creating stopping criterion with minIter 14 frequency 1
[OGL LOG][Proc: 0]Ux: generate_solver: 0.002 [ms]
[OGL LOG][Proc: 0]Ux: solve: 43.957 [ms]
[OGL LOG][Proc: 0]Ux: copy_x_back: 1.257 [ms]
[OGL LOG][lduLduBase.H:336] 
Statistics:
	Time per iteration: 3663 [mu s]
	Time per residual norm calculation: 277.000000 [mu s]
	Time per iteration and DOF: 0.580771 [ns]
	Retrieve results bandwidth 3.033000 [GByte/s]
[OGL LOG][Proc: 0]Ux: solve_multi_gpu: 51.212 [ms]
BJhipGKOBiCGStab:  Solving for Ux, Initial residual = 0.01189815944607031, Final residual = 0.0008572739144232102, No Iterations 12
[OGL LOG][Proc: 0]: global_index_init: 0.092 [ms]
[OGL LOG][Proc: 0]Uy_local_coeffs: call_update: 0 [ms]
[OGL LOG][Proc: 0]Uy_non_local_coeffs: call_update: 0 [ms]
[OGL LOG][Proc: 0]Uy: update_local_matrix_data: 11.129 [ms]
[OGL LOG][Proc: 0]Uy: update_non_local_matrix_data: 0.077 [ms]
[OGL LOG][Proc: 0]Uy_matrix: call_update: 4.134 [ms]
[OGL LOG][Proc: 0]Uy_rhs: call_update: 1.121 [ms]
[OGL LOG][Preconditioner.H:121] Generate preconditioner BJ MaxBlockSize 1
[OGL LOG][Proc: 0]Uy: init_precond: 0.381 [ms]
[OGL LOG][StoppingCriterion.H:373] Creating stopping criterion with minIter 16 frequency 1
[OGL LOG][Proc: 0]Uy: generate_solver: 0.002 [ms]
[OGL LOG][Proc: 0]Uy: solve: 44.624 [ms]
[OGL LOG][Proc: 0]Uy: copy_x_back: 1.323 [ms]
[OGL LOG][lduLduBase.H:336] 
Statistics:
	Time per iteration: 4056 [mu s]
	Time per residual norm calculation: 265.000000 [mu s]
	Time per iteration and DOF: 0.643081 [ns]
	Retrieve results bandwidth 2.882000 [GByte/s]
[OGL LOG][Proc: 0]Uy: solve_multi_gpu: 52.495 [ms]
BJhipGKOBiCGStab:  Solving for Uy, Initial residual = 0.07100262765167706, Final residual = 0.006094805543241742, No Iterations 11
[OGL LOG][Proc: 0]: global_index_init: 0.094 [ms]
[OGL LOG][Proc: 0]Uz_local_coeffs: call_update: 0 [ms]
[OGL LOG][Proc: 0]Uz_non_local_coeffs: call_update: 0 [ms]
[OGL LOG][Proc: 0]Uz: update_local_matrix_data: 11.514 [ms]
[OGL LOG][Proc: 0]Uz: update_non_local_matrix_data: 0.095 [ms]
[OGL LOG][Proc: 0]Uz_matrix: call_update: 3.438 [ms]
[OGL LOG][Proc: 0]Uz_rhs: call_update: 1.19 [ms]
[OGL LOG][Preconditioner.H:121] Generate preconditioner BJ MaxBlockSize 1
[OGL LOG][Proc: 0]Uz: init_precond: 0.372 [ms]
[OGL LOG][StoppingCriterion.H:373] Creating stopping criterion with minIter 13 frequency 1
[OGL LOG][Proc: 0]Uz: generate_solver: 0.002 [ms]
[OGL LOG][Proc: 0]Uz: solve: 42.148 [ms]
[OGL LOG][Proc: 0]Uz: copy_x_back: 1.294 [ms]
[OGL LOG][lduLduBase.H:336] 
Statistics:
	Time per iteration: 4214 [mu s]
	Time per residual norm calculation: 252.000000 [mu s]
	Time per iteration and DOF: 0.668132 [ns]
	Retrieve results bandwidth 2.946000 [GByte/s]
[OGL LOG][Proc: 0]Uz: solve_multi_gpu: 49.329 [ms]
BJhipGKOBiCGStab:  Solving for Uz, Initial residual = 0.06447616945005655, Final residual = 0.005915903875588281, No Iterations 10
[INFO] MomentumPredictor: 226.875 [ms]
[INFO] MatrixAssemblyPI: 82.80200000000001 [ms]
[INFO] MatrixAssemblyPII: 40.258 [ms]
DICPCG:  Solving for p, Initial residual = 0.06141789701409602, Final residual = 0.0006049972803969866, No Iterations 95
[INFO] SolveP: 995.559 [ms]
time step continuity errors : sum local = 0.006138121809028794, global = 0.0006192456531677792, cumulative = 0.01576328309254943
[INFO] postSolveP: 20.964 [ms]
[OGL LOG][Proc: 0]: global_index_init: 0.336 [ms]
[OGL LOG][Proc: 0]nuTilda_local_coeffs: call_update: 0 [ms]
[OGL LOG][Proc: 0]nuTilda_non_local_coeffs: call_update: 0 [ms]
[OGL LOG][Proc: 0]nuTilda: update_local_matrix_data: 11.65 [ms]
[OGL LOG][Proc: 0]nuTilda: update_non_local_matrix_data: 0.07000000000000001 [ms]
[OGL LOG][Proc: 0]nuTilda_matrix: call_update: 3.865 [ms]
[OGL LOG][Proc: 0]nuTilda_rhs: call_update: 1.262 [ms]
[OGL LOG][Preconditioner.H:121] Generate preconditioner BJ MaxBlockSize 1
[OGL LOG][Proc: 0]nuTilda: init_precond: 0.408 [ms]
[OGL LOG][StoppingCriterion.H:373] Creating stopping criterion with minIter 3 frequency 1
[OGL LOG][Proc: 0]nuTilda: generate_solver: 0.002 [ms]
[OGL LOG][Proc: 0]nuTilda: solve: 33.681 [ms]
[OGL LOG][Proc: 0]nuTilda: copy_x_back: 1.283 [ms]
[OGL LOG][lduLduBase.H:336] 
Statistics:
	Time per iteration: 16840 [mu s]
	Time per residual norm calculation: 273.000000 [mu s]
	Time per iteration and DOF: 2.669992 [ns]
	Retrieve results bandwidth 2.971000 [GByte/s]
[OGL LOG][Proc: 0]nuTilda: solve_multi_gpu: 41.418 [ms]
BJhipGKOBiCGStab:  Solving for nuTilda, Initial residual = 0.01501140392828949, Final residual = 0.001409398807596422, No Iterations 2
bounding nuTilda, min: -0.0002010324683202877 max: 0.007016931131836777 average: 0.0003727014076495432
[INFO] TimeStep: 2247.908 [ms]
ExecutionTime = 160.23 s  ClockTime = 161 s

End

Finalising parallel run
