/*---------------------------------------------------------------------------*\
| =========                 |                                                 |
| \\      /  F ield         | OpenFOAM: The Open Source CFD Toolbox           |
|  \\    /   O peration     | Version:  2306                                  |
|   \\  /    A nd           | Website:  www.openfoam.com                      |
|    \\/     M anipulation  |                                                 |
\*---------------------------------------------------------------------------*/
Build  : a6e826bd55-20230630 OPENFOAM=2306 version=v2306
Arch   : "LSB;label=32;scalar=64"
Exec   : icoFoam -parallel
Date   : Jul 06 2023
Time   : 09:09:14
Host   : nla-gpu2.ianm.kit.edu
PID    : 5177
I/O    : uncollated
Case   : /home/greole/data/code/exasim_project/micro_benchmarks/LidDrivenCavity3D/view/base/400_400_400/decompose/simple_32/linear_solver/GKOCGnonehip/case
nProcs : 32
Hosts  :
(
    (nla-gpu2.ianm.kit.edu 32)
)
Pstream initialized with:
    floatTransfer      : false
    nProcsSimpleSum    : 0
    nonBlockingExchange: 0 (tuning: 0)
    exchange algorithm : -1
    commsType          : nonBlocking
    polling iterations : 0
trapFpe: Floating point exception trapping enabled (FOAM_SIGFPE).
fileModificationChecking : Monitoring run-time modified files using timeStampMaster (fileModificationSkew 5, maxFileModificationPolls 20)
allowSystemOperations : Allowing user-supplied system call operations

// * * * * * * * * * * * * * * * * * * * * * * * * * * * * * * * * * * * * * //
Create time

--> FOAM Warning : 
    From void* Foam::dlLibraryTable::openLibrary(const Foam::fileName&, bool)
    in file db/dynamicLibrary/dlLibraryTable/dlLibraryTable.C at line 188
    Could not load "libpetscFoam.so"
libpetscFoam.so: cannot open shared object file: No such file or directory
Create mesh for time = 0


PISO: Operating solver in PISO mode

Reading transportProperties

Reading field p

Reading field U

Reading/calculating face flux field phi


Starting time loop

Time = 0.000125

Courant Number mean: 8.02505e-18 max: 4.85723e-14
[INFO] MatrixAssemblyU: 567.188 [ms]
DILUPBiCGStab:  Solving for Ux, Initial residual = 1, Final residual = 0.0215184, No Iterations 5
DILUPBiCGStab:  Solving for Uy:  solution singularity
DILUPBiCGStab:  Solving for Uz:  solution singularity
[INFO] MomentumPredictor: 2060.05 [ms]
[INFO] MatrixAssemblyPI: 591.237 [ms]
[INFO] AdjustPhi: 25.423 [ms]
[INFO] ConstrainPressure: 0.018 [ms]
[INFO] MatrixAssemblyPII: 166.821 [ms]
[OGL LOG][lduLduBase.H:122] Initialising OGL
	OGL commit:  13e9788+
	Branch: device_guard 
	Build type: Release
	Ginkgo version: 1.5.0 ( develop)
	Ginkgo commit: 4292ffdee
	MPI is GPU aware: 1
	Forces host buffer based communication: 0
	CPU ranks per GPU: 1
	Matrix format: Coo
	End OGL_INFO
[OGL LOG][Proc: 0]: global_index_init: 2.832 [ms]
[OGL LOG][Proc: 0]p_local_cols: call_init: 0.552 [ms]
[OGL LOG][Proc: 0]p_local_rows: call_init: 0.33 [ms]
[OGL LOG][Proc: 0]p_local_ldu_map: call_init: 0.157 [ms]
[OGL LOG][Proc: 0]p_local_coeffs: call_init: 0.303 [ms]
[OGL LOG][Proc: 0]p_non_local_cols: call_init: 0.29 [ms]
[OGL LOG][Proc: 0]p_non_local_rows: call_init: 0.249 [ms]
[OGL LOG][Proc: 0]p_non_local_ldu_map: call_init: 0.219 [ms]
[OGL LOG][Proc: 0]p_non_local_coeffs: call_init: 0.164 [ms]
[OGL LOG][Proc: 0]p: init_local_sparsity_pattern: 487.067 [ms]
[OGL LOG][Proc: 0]p: init_non_local_sparsity_pattern: 91.878 [ms]
[OGL LOG][Proc: 0]p: update_local_matrix_data: 49.559 [ms]
[OGL LOG][Proc: 0]p: update_non_local_matrix_data: 0.258 [ms]
[OGL LOG][Proc: 0]device_partition: call_init: 30.42 [ms]
[OGL LOG][Proc: 0]p_matrix: call_init: 353.224 [ms]
[OGL LOG][Proc: 0]p_rhs: call_init: 19.446 [ms]
[OGL LOG][Proc: 0]p_solution: call_init: 6.154 [ms]
[OGL LOG][Proc: 0]p: init_precond: 0.517 [ms]
[OGL LOG][StoppingCriterion.H:372] Creating stopping criterion with minIter 0 frequency 1
[OGL LOG][Proc: 0]p: generate_solver: 0.032 [ms]
[OGL LOG][Proc: 0]p: solve: 15546.2 [ms]
[OGL LOG][Proc: 0]p: copy_x_back: 11.669 [ms]
[OGL LOG][lduLduBase.H:339] 
Statistics:
	Time per iteration: 4780 [mu s]
	Time per residual norm calculation: 2493.000000 [mu s]
	Time per iteration and DOF: 0.074688 [ns]
	Retrieve results bandwidth 1.371000 [GByte/s]
[OGL LOG][Proc: 0]p: solve_multi_gpu: 15968.9 [ms]
nonehipGKOCG:  Solving for p, Initial residual = 1, Final residual = 9.90333e-05, No Iterations 3252
[INFO] SolveP: 17041 [ms]
time step continuity errors : sum local = 2.51223e-09, global = 8.14469e-22, cumulative = 8.14469e-22
[INFO] ContinuityError: 61.123 [ms]
[INFO] CorrectBoundary: 4.014 [ms]
[INFO] PISOStep: 18075.2 [ms]
[INFO] MatrixAssemblyPI: 553.795 [ms]
[INFO] AdjustPhi: 27.934 [ms]
[INFO] ConstrainPressure: 0.002 [ms]
[INFO] MatrixAssemblyPII: 166.763 [ms]
[OGL LOG][Proc: 0]: global_index_init: 0.114 [ms]
[OGL LOG][Proc: 0]p_local_coeffs: call_update: 0 [ms]
[OGL LOG][Proc: 0]p_non_local_coeffs: call_update: 0 [ms]
[OGL LOG][Proc: 0]p: update_local_matrix_data: 90.863 [ms]
[OGL LOG][Proc: 0]p: update_non_local_matrix_data: 0.297 [ms]
[OGL LOG][Proc: 0]p_matrix: call_update: 53.482 [ms]
[OGL LOG][Proc: 0]p_rhs: call_update: 9.845 [ms]
[OGL LOG][Proc: 0]p: init_precond: 0.067 [ms]
[OGL LOG][StoppingCriterion.H:372] Creating stopping criterion with minIter 1951 frequency 36
[OGL LOG][Proc: 0]p: generate_solver: 0.002 [ms]
[OGL LOG][Proc: 0]p: solve: 12487.7 [ms]
[OGL LOG][Proc: 0]p: copy_x_back: 9.434 [ms]
[OGL LOG][lduLduBase.H:339] 
Statistics:
	Time per iteration: 3853 [mu s]
	Time per residual norm calculation: 393.000000 [mu s]
	Time per iteration and DOF: 0.060203 [ns]
	Retrieve results bandwidth 1.695000 [GByte/s]
[OGL LOG][Proc: 0]p: solve_multi_gpu: 12561.7 [ms]
nonehipGKOCG:  Solving for p, Initial residual = 0.822079, Final residual = 9.3783e-05, No Iterations 3241
[INFO] SolveP: 12671.7 [ms]
time step continuity errors : sum local = 2.86633e-09, global = 2.23706e-22, cumulative = 1.03817e-21
[INFO] ContinuityError: 62.021 [ms]
[INFO] CorrectBoundary: 1.635 [ms]
[INFO] PISOStep: 13671 [ms]
[INFO] TimeStep: 34435.8 [ms]
ExecutionTime = 50.91 s  ClockTime = 49 s

Time = 0.00025

Courant Number mean: 0.0108529 max: 0.437705
[INFO] MatrixAssemblyU: 507.536 [ms]
DILUPBiCGStab:  Solving for Ux, Initial residual = 0.108168, Final residual = 0.0135461, No Iterations 5
DILUPBiCGStab:  Solving for Uy, Initial residual = 0.484635, Final residual = 0.0533658, No Iterations 5
DILUPBiCGStab:  Solving for Uz, Initial residual = 0.990101, Final residual = 0.120237, No Iterations 5
[INFO] MomentumPredictor: 3949.98 [ms]
[INFO] MatrixAssemblyPI: 575.006 [ms]
[INFO] AdjustPhi: 25.672 [ms]
[INFO] ConstrainPressure: 0.005 [ms]
[INFO] MatrixAssemblyPII: 166.097 [ms]
[OGL LOG][Proc: 0]: global_index_init: 0.213 [ms]
[OGL LOG][Proc: 0]p_local_coeffs: call_update: 0 [ms]
[OGL LOG][Proc: 0]p_non_local_coeffs: call_update: 0 [ms]
[OGL LOG][Proc: 0]p: update_local_matrix_data: 91.417 [ms]
[OGL LOG][Proc: 0]p: update_non_local_matrix_data: 0.285 [ms]
[OGL LOG][Proc: 0]p_matrix: call_update: 52.815 [ms]
[OGL LOG][Proc: 0]p_rhs: call_update: 10.988 [ms]
[OGL LOG][Proc: 0]p: init_precond: 0.044 [ms]
[OGL LOG][StoppingCriterion.H:372] Creating stopping criterion with minIter 1944 frequency 12
[OGL LOG][Proc: 0]p: generate_solver: 0.002 [ms]
[OGL LOG][Proc: 0]p: solve: 12120.9 [ms]
[OGL LOG][Proc: 0]p: copy_x_back: 10.583 [ms]
[OGL LOG][lduLduBase.H:339] 
Statistics:
	Time per iteration: 3796 [mu s]
	Time per residual norm calculation: 390.000000 [mu s]
	Time per iteration and DOF: 0.059312 [ns]
	Retrieve results bandwidth 1.511000 [GByte/s]
[OGL LOG][Proc: 0]p: solve_multi_gpu: 12196.8 [ms]
nonehipGKOCG:  Solving for p, Initial residual = 0.908273, Final residual = 9.05351e-05, No Iterations 3193
[INFO] SolveP: 12307.9 [ms]
time step continuity errors : sum local = 6.49804e-09, global = 7.32523e-22, cumulative = 1.7707e-21
[INFO] ContinuityError: 67.333 [ms]
[INFO] CorrectBoundary: 3.184 [ms]
[INFO] PISOStep: 13328.6 [ms]
[INFO] MatrixAssemblyPI: 555.077 [ms]
[INFO] AdjustPhi: 27.804 [ms]
[INFO] ConstrainPressure: 0.003 [ms]
[INFO] MatrixAssemblyPII: 165.544 [ms]
[OGL LOG][Proc: 0]: global_index_init: 0.03 [ms]
[OGL LOG][Proc: 0]p_local_coeffs: call_update: 0 [ms]
[OGL LOG][Proc: 0]p_non_local_coeffs: call_update: 0 [ms]
[OGL LOG][Proc: 0]p: update_local_matrix_data: 90.347 [ms]
[OGL LOG][Proc: 0]p: update_non_local_matrix_data: 0.506 [ms]
[OGL LOG][Proc: 0]p_matrix: call_update: 37.319 [ms]
[OGL LOG][Proc: 0]p_rhs: call_update: 14.382 [ms]
[OGL LOG][Proc: 0]p: init_precond: 0.043 [ms]
[OGL LOG][StoppingCriterion.H:372] Creating stopping criterion with minIter 1915 frequency 11
[OGL LOG][Proc: 0]p: generate_solver: 0.002 [ms]
[OGL LOG][Proc: 0]p: solve: 12700.1 [ms]
[OGL LOG][Proc: 0]p: copy_x_back: 11.756 [ms]
[OGL LOG][lduLduBase.H:339] 
Statistics:
	Time per iteration: 3979 [mu s]
	Time per residual norm calculation: 388.000000 [mu s]
	Time per iteration and DOF: 0.062172 [ns]
	Retrieve results bandwidth 1.361000 [GByte/s]
[OGL LOG][Proc: 0]p: solve_multi_gpu: 12764.7 [ms]
nonehipGKOCG:  Solving for p, Initial residual = 0.859113, Final residual = 8.56979e-05, No Iterations 3191
[INFO] SolveP: 12874.4 [ms]
time step continuity errors : sum local = 6.26759e-09, global = 9.08102e-22, cumulative = 2.6788e-21
[INFO] ContinuityError: 64.202 [ms]
[INFO] CorrectBoundary: 3.264 [ms]
[INFO] PISOStep: 13874.6 [ms]
[INFO] TimeStep: 31721.8 [ms]
ExecutionTime = 86.52 s  ClockTime = 80 s

Time = 0.000375

Courant Number mean: 0.0169392 max: 0.511586
[INFO] MatrixAssemblyU: 507.572 [ms]
DILUPBiCGStab:  Solving for Ux, Initial residual = 0.053685, Final residual = 0.0054871, No Iterations 5
DILUPBiCGStab:  Solving for Uy, Initial residual = 0.261922, Final residual = 0.0267089, No Iterations 5
DILUPBiCGStab:  Solving for Uz, Initial residual = 0.870023, Final residual = 0.0866929, No Iterations 5
[INFO] MomentumPredictor: 3965.72 [ms]
[INFO] MatrixAssemblyPI: 571.546 [ms]
[INFO] AdjustPhi: 28.269 [ms]
[INFO] ConstrainPressure: 0.003 [ms]
[INFO] MatrixAssemblyPII: 166.961 [ms]
[OGL LOG][Proc: 0]: global_index_init: 0.068 [ms]
[OGL LOG][Proc: 0]p_local_coeffs: call_update: 0 [ms]
[OGL LOG][Proc: 0]p_non_local_coeffs: call_update: 0 [ms]
[OGL LOG][Proc: 0]p: update_local_matrix_data: 90.694 [ms]
[OGL LOG][Proc: 0]p: update_non_local_matrix_data: 0.417 [ms]
[OGL LOG][Proc: 0]p_matrix: call_update: 34.669 [ms]
[OGL LOG][Proc: 0]p_rhs: call_update: 19.137 [ms]
[OGL LOG][Proc: 0]p: init_precond: 0.054 [ms]
[OGL LOG][StoppingCriterion.H:372] Creating stopping criterion with minIter 1914 frequency 11
[OGL LOG][Proc: 0]p: generate_solver: 0.002 [ms]
[OGL LOG][Proc: 0]p: solve: 7349.63 [ms]
[OGL LOG][Proc: 0]p: copy_x_back: 10.958 [ms]
[OGL LOG][lduLduBase.H:339] 
Statistics:
	Time per iteration: 3837 [mu s]
	Time per residual norm calculation: 410.000000 [mu s]
	Time per iteration and DOF: 0.059953 [ns]
	Retrieve results bandwidth 1.460000 [GByte/s]
[OGL LOG][Proc: 0]p: solve_multi_gpu: 7415.6 [ms]
nonehipGKOCG:  Solving for p, Initial residual = 0.94147, Final residual = 3.79257e-05, No Iterations 1915
[INFO] SolveP: 7527.02 [ms]
time step continuity errors : sum local = 3.61594e-09, global = 5.51019e-22, cumulative = 3.22982e-21
[INFO] ContinuityError: 65.22 [ms]
[INFO] CorrectBoundary: 2.11 [ms]
[INFO] PISOStep: 8544.86 [ms]
[INFO] MatrixAssemblyPI: 555.112 [ms]
[INFO] AdjustPhi: 28.649 [ms]
[INFO] ConstrainPressure: 0.002 [ms]
[INFO] MatrixAssemblyPII: 166.686 [ms]
[OGL LOG][Proc: 0]: global_index_init: 0.058 [ms]
[OGL LOG][Proc: 0]p_local_coeffs: call_update: 0 [ms]
[OGL LOG][Proc: 0]p_non_local_coeffs: call_update: 0 [ms]
[OGL LOG][Proc: 0]p: update_local_matrix_data: 91.035 [ms]
[OGL LOG][Proc: 0]p: update_non_local_matrix_data: 0.286 [ms]
[OGL LOG][Proc: 0]p_matrix: call_update: 43.912 [ms]
[OGL LOG][Proc: 0]p_rhs: call_update: 7.377 [ms]
[OGL LOG][Proc: 0]p: init_precond: 0.054 [ms]
[OGL LOG][StoppingCriterion.H:372] Creating stopping criterion with minIter 1149 frequency 9
[OGL LOG][Proc: 0]p: generate_solver: 0.002 [ms]
[OGL LOG][Proc: 0]p: solve: 5972.54 [ms]
[OGL LOG][Proc: 0]p: copy_x_back: 8.952 [ms]
[OGL LOG][lduLduBase.H:339] 
Statistics:
	Time per iteration: 3878 [mu s]
	Time per residual norm calculation: 375.000000 [mu s]
	Time per iteration and DOF: 0.060594 [ns]
	Retrieve results bandwidth 1.787000 [GByte/s]
[OGL LOG][Proc: 0]p: solve_multi_gpu: 6033.93 [ms]
nonehipGKOCG:  Solving for p, Initial residual = 0.90893, Final residual = 9.091e-05, No Iterations 1540
[INFO] SolveP: 6145.7 [ms]
time step continuity errors : sum local = 8.13251e-09, global = 3.54602e-22, cumulative = 3.58442e-21
[INFO] ContinuityError: 61.977 [ms]
[INFO] CorrectBoundary: 3.955 [ms]
[INFO] PISOStep: 7145.17 [ms]
[INFO] TimeStep: 20224.4 [ms]
ExecutionTime = 108.84 s  ClockTime = 101 s

Time = 0.0005

Courant Number mean: 0.0205469 max: 0.477563
[INFO] MatrixAssemblyU: 502.739 [ms]
DILUPBiCGStab:  Solving for Ux, Initial residual = 0.0416261, Final residual = 0.00507888, No Iterations 5
DILUPBiCGStab:  Solving for Uy, Initial residual = 0.213999, Final residual = 0.0244207, No Iterations 5
DILUPBiCGStab:  Solving for Uz, Initial residual = 0.783117, Final residual = 0.064106, No Iterations 5
[INFO] MomentumPredictor: 3955.91 [ms]
[INFO] MatrixAssemblyPI: 563.987 [ms]
[INFO] AdjustPhi: 36.237 [ms]
[INFO] ConstrainPressure: 0.003 [ms]
[INFO] MatrixAssemblyPII: 167.137 [ms]
[OGL LOG][Proc: 0]: global_index_init: 0.448 [ms]
[OGL LOG][Proc: 0]p_local_coeffs: call_update: 0 [ms]
[OGL LOG][Proc: 0]p_non_local_coeffs: call_update: 0 [ms]
[OGL LOG][Proc: 0]p: update_local_matrix_data: 90.543 [ms]
[OGL LOG][Proc: 0]p: update_non_local_matrix_data: 0.421 [ms]
[OGL LOG][Proc: 0]p_matrix: call_update: 48.329 [ms]
[OGL LOG][Proc: 0]p_rhs: call_update: 7.746 [ms]
[OGL LOG][Proc: 0]p: init_precond: 0.053 [ms]
[OGL LOG][StoppingCriterion.H:372] Creating stopping criterion with minIter 924 frequency 7
[OGL LOG][Proc: 0]p: generate_solver: 0.002 [ms]
[OGL LOG][Proc: 0]p: solve: 5993.71 [ms]
[OGL LOG][Proc: 0]p: copy_x_back: 10.94 [ms]
[OGL LOG][lduLduBase.H:339] 
Statistics:
	Time per iteration: 3907 [mu s]
	Time per residual norm calculation: 401.000000 [mu s]
	Time per iteration and DOF: 0.061047 [ns]
	Retrieve results bandwidth 1.462000 [GByte/s]
[OGL LOG][Proc: 0]p: solve_multi_gpu: 6062.05 [ms]
nonehipGKOCG:  Solving for p, Initial residual = 0.938264, Final residual = 8.96168e-05, No Iterations 1534
[INFO] SolveP: 6171.76 [ms]
time step continuity errors : sum local = 1.02519e-08, global = 4.68701e-22, cumulative = 4.05312e-21
[INFO] ContinuityError: 60.594 [ms]
[INFO] CorrectBoundary: 3.994 [ms]
[INFO] PISOStep: 7187.66 [ms]
[INFO] MatrixAssemblyPI: 559.418 [ms]
[INFO] AdjustPhi: 23.943 [ms]
[INFO] ConstrainPressure: 0.004 [ms]
[INFO] MatrixAssemblyPII: 164.754 [ms]
[OGL LOG][Proc: 0]: global_index_init: 0.034 [ms]
[OGL LOG][Proc: 0]p_local_coeffs: call_update: 0 [ms]
[OGL LOG][Proc: 0]p_non_local_coeffs: call_update: 0 [ms]
[OGL LOG][Proc: 0]p: update_local_matrix_data: 90.771 [ms]
[OGL LOG][Proc: 0]p: update_non_local_matrix_data: 0.352 [ms]
[OGL LOG][Proc: 0]p_matrix: call_update: 28.315 [ms]
[OGL LOG][Proc: 0]p_rhs: call_update: 26.383 [ms]
[OGL LOG][Proc: 0]p: init_precond: 0.049 [ms]
[OGL LOG][StoppingCriterion.H:372] Creating stopping criterion with minIter 920 frequency 8
[OGL LOG][Proc: 0]p: generate_solver: 0.002 [ms]
[OGL LOG][Proc: 0]p: solve: 5960.83 [ms]
[OGL LOG][Proc: 0]p: copy_x_back: 11.266 [ms]
[OGL LOG][lduLduBase.H:339] 
Statistics:
	Time per iteration: 3939 [mu s]
	Time per residual norm calculation: 381.000000 [mu s]
	Time per iteration and DOF: 0.061547 [ns]
	Retrieve results bandwidth 1.420000 [GByte/s]
[OGL LOG][Proc: 0]p: solve_multi_gpu: 6027.91 [ms]
nonehipGKOCG:  Solving for p, Initial residual = 0.880429, Final residual = 9.27249e-05, No Iterations 1513
[INFO] SolveP: 6139.48 [ms]
time step continuity errors : sum local = 1.0454e-08, global = 2.57699e-22, cumulative = 4.31082e-21
[INFO] ContinuityError: 60.476 [ms]
[INFO] CorrectBoundary: 1.065 [ms]
[INFO] PISOStep: 7139.15 [ms]
[INFO] TimeStep: 18846.4 [ms]
ExecutionTime = 129.49 s  ClockTime = 119 s

Time = 0.000625

Courant Number mean: 0.0236169 max: 0.556184
[INFO] MatrixAssemblyU: 504.226 [ms]
DILUPBiCGStab:  Solving for Ux, Initial residual = 0.0376303, Final residual = 0.00462272, No Iterations 5
DILUPBiCGStab:  Solving for Uy, Initial residual = 0.1849, Final residual = 0.0203101, No Iterations 5
DILUPBiCGStab:  Solving for Uz, Initial residual = 0.755543, Final residual = 0.0559033, No Iterations 5
[INFO] MomentumPredictor: 3948.86 [ms]
[INFO] MatrixAssemblyPI: 574.045 [ms]
[INFO] AdjustPhi: 26.859 [ms]
[INFO] ConstrainPressure: 0.003 [ms]
[INFO] MatrixAssemblyPII: 164.286 [ms]
[OGL LOG][Proc: 0]: global_index_init: 0.062 [ms]
[OGL LOG][Proc: 0]p_local_coeffs: call_update: 0 [ms]
[OGL LOG][Proc: 0]p_non_local_coeffs: call_update: 0 [ms]
[OGL LOG][Proc: 0]p: update_local_matrix_data: 89.76 [ms]
[OGL LOG][Proc: 0]p: update_non_local_matrix_data: 0.483 [ms]
[OGL LOG][Proc: 0]p_matrix: call_update: 26.198 [ms]
[OGL LOG][Proc: 0]p_rhs: call_update: 36.944 [ms]
[OGL LOG][Proc: 0]p: init_precond: 0.042 [ms]
[OGL LOG][StoppingCriterion.H:372] Creating stopping criterion with minIter 907 frequency 7
[OGL LOG][Proc: 0]p: generate_solver: 0.002 [ms]
[OGL LOG][Proc: 0]p: solve: 12074.5 [ms]
[OGL LOG][Proc: 0]p: copy_x_back: 10.898 [ms]
[OGL LOG][lduLduBase.H:339] 
Statistics:
	Time per iteration: 3883 [mu s]
	Time per residual norm calculation: 390.000000 [mu s]
	Time per iteration and DOF: 0.060672 [ns]
	Retrieve results bandwidth 1.468000 [GByte/s]
[OGL LOG][Proc: 0]p: solve_multi_gpu: 12149.8 [ms]
nonehipGKOCG:  Solving for p, Initial residual = 0.954416, Final residual = 9.97887e-05, No Iterations 3109
[INFO] SolveP: 12260.1 [ms]
time step continuity errors : sum local = 1.25078e-08, global = 5.44579e-22, cumulative = 4.8554e-21
[INFO] ContinuityError: 60.756 [ms]
[INFO] CorrectBoundary: 1.105 [ms]
[INFO] PISOStep: 13278.4 [ms]
[INFO] MatrixAssemblyPI: 555.06 [ms]
[INFO] AdjustPhi: 28.48 [ms]
[INFO] ConstrainPressure: 0.003 [ms]
[INFO] MatrixAssemblyPII: 167.319 [ms]
[OGL LOG][Proc: 0]: global_index_init: 0.05 [ms]
[OGL LOG][Proc: 0]p_local_coeffs: call_update: 0 [ms]
[OGL LOG][Proc: 0]p_non_local_coeffs: call_update: 0 [ms]
[OGL LOG][Proc: 0]p: update_local_matrix_data: 90.233 [ms]
[OGL LOG][Proc: 0]p: update_non_local_matrix_data: 0.449 [ms]
[OGL LOG][Proc: 0]p_matrix: call_update: 30.772 [ms]
[OGL LOG][Proc: 0]p_rhs: call_update: 12.115 [ms]
[OGL LOG][Proc: 0]p: init_precond: 0.049 [ms]
[OGL LOG][StoppingCriterion.H:372] Creating stopping criterion with minIter 1865 frequency 11
[OGL LOG][Proc: 0]p: generate_solver: 0.002 [ms]
[OGL LOG][Proc: 0]p: solve: 12693.7 [ms]
[OGL LOG][Proc: 0]p: copy_x_back: 10.863 [ms]
[OGL LOG][lduLduBase.H:339] 
Statistics:
	Time per iteration: 4090 [mu s]
	Time per residual norm calculation: 372.000000 [mu s]
	Time per iteration and DOF: 0.063906 [ns]
	Retrieve results bandwidth 1.472000 [GByte/s]
[OGL LOG][Proc: 0]p: solve_multi_gpu: 12748.7 [ms]
nonehipGKOCG:  Solving for p, Initial residual = 0.915194, Final residual = 9.69768e-05, No Iterations 3103
[INFO] SolveP: 12858.4 [ms]
time step continuity errors : sum local = 1.20829e-08, global = -2.70511e-22, cumulative = 4.58489e-21
[INFO] ContinuityError: 62.692 [ms]
[INFO] CorrectBoundary: 1.043 [ms]
[INFO] PISOStep: 13860.4 [ms]
[INFO] TimeStep: 31653 [ms]
ExecutionTime = 164.86 s  ClockTime = 151 s

Time = 0.00075

Courant Number mean: 0.0259525 max: 0.483353
[INFO] MatrixAssemblyU: 507.419 [ms]
DILUPBiCGStab:  Solving for Ux, Initial residual = 0.0353909, Final residual = 0.00439445, No Iterations 5
DILUPBiCGStab:  Solving for Uy, Initial residual = 0.171552, Final residual = 0.0174384, No Iterations 5
DILUPBiCGStab:  Solving for Uz, Initial residual = 0.697094, Final residual = 0.0467677, No Iterations 5
[INFO] MomentumPredictor: 3948.54 [ms]
[INFO] MatrixAssemblyPI: 575.905 [ms]
[INFO] AdjustPhi: 25.342 [ms]
[INFO] ConstrainPressure: 0.003 [ms]
[INFO] MatrixAssemblyPII: 166.752 [ms]
[OGL LOG][Proc: 0]: global_index_init: 0.048 [ms]
[OGL LOG][Proc: 0]p_local_coeffs: call_update: 0 [ms]
[OGL LOG][Proc: 0]p_non_local_coeffs: call_update: 0 [ms]
[OGL LOG][Proc: 0]p: update_local_matrix_data: 91.389 [ms]
[OGL LOG][Proc: 0]p: update_non_local_matrix_data: 0.251 [ms]
[OGL LOG][Proc: 0]p_matrix: call_update: 28.833 [ms]
[OGL LOG][Proc: 0]p_rhs: call_update: 8.696 [ms]
[OGL LOG][Proc: 0]p: init_precond: 0.053 [ms]
[OGL LOG][StoppingCriterion.H:372] Creating stopping criterion with minIter 1861 frequency 11
[OGL LOG][Proc: 0]p: generate_solver: 0.002 [ms]
[OGL LOG][Proc: 0]p: solve: 12437.8 [ms]
[OGL LOG][Proc: 0]p: copy_x_back: 10.926 [ms]
[OGL LOG][lduLduBase.H:339] 
Statistics:
	Time per iteration: 4008 [mu s]
	Time per residual norm calculation: 382.000000 [mu s]
	Time per iteration and DOF: 0.062625 [ns]
	Retrieve results bandwidth 1.464000 [GByte/s]
[OGL LOG][Proc: 0]p: solve_multi_gpu: 12487.4 [ms]
nonehipGKOCG:  Solving for p, Initial residual = 0.951506, Final residual = 9.39096e-05, No Iterations 3103
[INFO] SolveP: 12598 [ms]
time step continuity errors : sum local = 1.36151e-08, global = 3.84112e-22, cumulative = 4.969e-21
[INFO] ContinuityError: 62.275 [ms]
[INFO] CorrectBoundary: 1.028 [ms]
[INFO] PISOStep: 13618 [ms]
[INFO] MatrixAssemblyPI: 558.581 [ms]
[INFO] AdjustPhi: 24.541 [ms]
[INFO] ConstrainPressure: 0.004 [ms]
[INFO] MatrixAssemblyPII: 167.492 [ms]
[OGL LOG][Proc: 0]: global_index_init: 0.079 [ms]
[OGL LOG][Proc: 0]p_local_coeffs: call_update: 0 [ms]
[OGL LOG][Proc: 0]p_non_local_coeffs: call_update: 0 [ms]
[OGL LOG][Proc: 0]p: update_local_matrix_data: 91.111 [ms]
[OGL LOG][Proc: 0]p: update_non_local_matrix_data: 0.307 [ms]
[OGL LOG][Proc: 0]p_matrix: call_update: 29.413 [ms]
[OGL LOG][Proc: 0]p_rhs: call_update: 12.932 [ms]
[OGL LOG][Proc: 0]p: init_precond: 0.05 [ms]
[OGL LOG][StoppingCriterion.H:372] Creating stopping criterion with minIter 1861 frequency 11
[OGL LOG][Proc: 0]p: generate_solver: 0.002 [ms]
[OGL LOG][Proc: 0]p: solve: 12853 [ms]
[OGL LOG][Proc: 0]p: copy_x_back: 10.802 [ms]
[OGL LOG][lduLduBase.H:339] 
Statistics:
	Time per iteration: 4156 [mu s]
	Time per residual norm calculation: 384.000000 [mu s]
	Time per iteration and DOF: 0.064937 [ns]
	Retrieve results bandwidth 1.481000 [GByte/s]
[OGL LOG][Proc: 0]p: solve_multi_gpu: 12907.4 [ms]
nonehipGKOCG:  Solving for p, Initial residual = 0.891316, Final residual = 9.85112e-05, No Iterations 3092
[INFO] SolveP: 13019.7 [ms]
time step continuity errors : sum local = 1.45077e-08, global = -4.65144e-22, cumulative = 4.50386e-21
[INFO] ContinuityError: 58.982 [ms]
[INFO] CorrectBoundary: 1.284 [ms]
[INFO] PISOStep: 14019.7 [ms]
[INFO] TimeStep: 32157.3 [ms]
ExecutionTime = 200.76 s  ClockTime = 183 s

Time = 0.000875

Courant Number mean: 0.0281461 max: 0.612453
[INFO] MatrixAssemblyU: 500.615 [ms]
DILUPBiCGStab:  Solving for Ux, Initial residual = 0.0350544, Final residual = 0.004176, No Iterations 5
DILUPBiCGStab:  Solving for Uy, Initial residual = 0.176406, Final residual = 0.0165555, No Iterations 5
DILUPBiCGStab:  Solving for Uz, Initial residual = 0.694695, Final residual = 0.0422775, No Iterations 5
[INFO] MomentumPredictor: 3951.28 [ms]
[INFO] MatrixAssemblyPI: 576.453 [ms]
[INFO] AdjustPhi: 24.703 [ms]
[INFO] ConstrainPressure: 0.005 [ms]
[INFO] MatrixAssemblyPII: 164.757 [ms]
[OGL LOG][Proc: 0]: global_index_init: 0.073 [ms]
[OGL LOG][Proc: 0]p_local_coeffs: call_update: 0 [ms]
[OGL LOG][Proc: 0]p_non_local_coeffs: call_update: 0 [ms]
[OGL LOG][Proc: 0]p: update_local_matrix_data: 90.901 [ms]
[OGL LOG][Proc: 0]p: update_non_local_matrix_data: 0.376 [ms]
[OGL LOG][Proc: 0]p_matrix: call_update: 26.789 [ms]
[OGL LOG][Proc: 0]p_rhs: call_update: 12.517 [ms]
[OGL LOG][Proc: 0]p: init_precond: 0.06 [ms]
[OGL LOG][StoppingCriterion.H:372] Creating stopping criterion with minIter 1855 frequency 11
[OGL LOG][Proc: 0]p: generate_solver: 0.001 [ms]
[OGL LOG][Proc: 0]p: solve: 12164.4 [ms]
[OGL LOG][Proc: 0]p: copy_x_back: 12.02 [ms]
[OGL LOG][lduLduBase.H:339] 
Statistics:
	Time per iteration: 3934 [mu s]
	Time per residual norm calculation: 396.000000 [mu s]
	Time per iteration and DOF: 0.061469 [ns]
	Retrieve results bandwidth 1.331000 [GByte/s]
[OGL LOG][Proc: 0]p: solve_multi_gpu: 12216.9 [ms]
nonehipGKOCG:  Solving for p, Initial residual = 0.962326, Final residual = 8.78208e-05, No Iterations 3092
[INFO] SolveP: 12327.1 [ms]
time step continuity errors : sum local = 1.43938e-08, global = 8.03864e-22, cumulative = 5.30772e-21
[INFO] ContinuityError: 65.773 [ms]
[INFO] CorrectBoundary: 1.023 [ms]
[INFO] PISOStep: 13344.9 [ms]
[INFO] MatrixAssemblyPI: 559.848 [ms]
[INFO] AdjustPhi: 23.753 [ms]
[INFO] ConstrainPressure: 0.005 [ms]
[INFO] MatrixAssemblyPII: 165.422 [ms]
[OGL LOG][Proc: 0]: global_index_init: 0.102 [ms]
[OGL LOG][Proc: 0]p_local_coeffs: call_update: 0 [ms]
[OGL LOG][Proc: 0]p_non_local_coeffs: call_update: 0 [ms]
[OGL LOG][Proc: 0]p: update_local_matrix_data: 91.027 [ms]
[OGL LOG][Proc: 0]p: update_non_local_matrix_data: 0.288 [ms]
[OGL LOG][Proc: 0]p_matrix: call_update: 31.135 [ms]
[OGL LOG][Proc: 0]p_rhs: call_update: 9.081 [ms]
[OGL LOG][Proc: 0]p: init_precond: 0.052 [ms]
[OGL LOG][StoppingCriterion.H:372] Creating stopping criterion with minIter 1855 frequency 11
[OGL LOG][Proc: 0]p: generate_solver: 0.002 [ms]
[OGL LOG][Proc: 0]p: solve: 12796.4 [ms]
[OGL LOG][Proc: 0]p: copy_x_back: 11.214 [ms]
[OGL LOG][lduLduBase.H:339] 
Statistics:
	Time per iteration: 4153 [mu s]
	Time per residual norm calculation: 378.000000 [mu s]
	Time per iteration and DOF: 0.064891 [ns]
	Retrieve results bandwidth 1.426000 [GByte/s]
[OGL LOG][Proc: 0]p: solve_multi_gpu: 12849.1 [ms]
nonehipGKOCG:  Solving for p, Initial residual = 0.917625, Final residual = 9.87807e-05, No Iterations 3081
[INFO] SolveP: 12961.3 [ms]
time step continuity errors : sum local = 1.61309e-08, global = 9.66092e-22, cumulative = 6.27381e-21
[INFO] ContinuityError: 59.453 [ms]
[INFO] CorrectBoundary: 0.676 [ms]
[INFO] PISOStep: 13963.3 [ms]
[INFO] TimeStep: 31821.2 [ms]
ExecutionTime = 236.45 s  ClockTime = 215 s

Time = 0.001

Courant Number mean: 0.029892 max: 0.491036
[INFO] MatrixAssemblyU: 506.274 [ms]
DILUPBiCGStab:  Solving for Ux, Initial residual = 0.0361649, Final residual = 0.00403412, No Iterations 5
DILUPBiCGStab:  Solving for Uy, Initial residual = 0.169964, Final residual = 0.0143294, No Iterations 5
DILUPBiCGStab:  Solving for Uz, Initial residual = 0.681414, Final residual = 0.0396763, No Iterations 5
[INFO] MomentumPredictor: 3946.76 [ms]
[INFO] MatrixAssemblyPI: 573.876 [ms]
[INFO] AdjustPhi: 26.62 [ms]
[INFO] ConstrainPressure: 0.006 [ms]
[INFO] MatrixAssemblyPII: 162.736 [ms]
[OGL LOG][Proc: 0]: global_index_init: 0.112 [ms]
[OGL LOG][Proc: 0]p_local_coeffs: call_update: 0 [ms]
[OGL LOG][Proc: 0]p_non_local_coeffs: call_update: 0 [ms]
[OGL LOG][Proc: 0]p: update_local_matrix_data: 90.921 [ms]
[OGL LOG][Proc: 0]p: update_non_local_matrix_data: 0.383 [ms]
[OGL LOG][Proc: 0]p_matrix: call_update: 24.217 [ms]
[OGL LOG][Proc: 0]p_rhs: call_update: 13.398 [ms]
[OGL LOG][Proc: 0]p: init_precond: 0.047 [ms]
[OGL LOG][StoppingCriterion.H:372] Creating stopping criterion with minIter 1848 frequency 11
[OGL LOG][Proc: 0]p: generate_solver: 0.002 [ms]
[OGL LOG][Proc: 0]p: solve: 12497.3 [ms]
[OGL LOG][Proc: 0]p: copy_x_back: 11.418 [ms]
[OGL LOG][lduLduBase.H:339] 
Statistics:
	Time per iteration: 4056 [mu s]
	Time per residual norm calculation: 383.000000 [mu s]
	Time per iteration and DOF: 0.063375 [ns]
	Retrieve results bandwidth 1.401000 [GByte/s]
[OGL LOG][Proc: 0]p: solve_multi_gpu: 12547.5 [ms]
nonehipGKOCG:  Solving for p, Initial residual = 0.960253, Final residual = 9.1658e-05, No Iterations 3081
[INFO] SolveP: 12657.7 [ms]
time step continuity errors : sum local = 1.72887e-08, global = 9.89479e-22, cumulative = 7.26329e-21
[INFO] ContinuityError: 60.944 [ms]
[INFO] CorrectBoundary: 0.834 [ms]
[INFO] PISOStep: 13675.9 [ms]
[INFO] MatrixAssemblyPI: 555.762 [ms]
[INFO] AdjustPhi: 26.15 [ms]
[INFO] ConstrainPressure: 0.004 [ms]
[INFO] MatrixAssemblyPII: 165.341 [ms]
[OGL LOG][Proc: 0]: global_index_init: 0.21 [ms]
[OGL LOG][Proc: 0]p_local_coeffs: call_update: 0 [ms]
[OGL LOG][Proc: 0]p_non_local_coeffs: call_update: 0 [ms]
[OGL LOG][Proc: 0]p: update_local_matrix_data: 91.162 [ms]
[OGL LOG][Proc: 0]p: update_non_local_matrix_data: 0.315 [ms]
[OGL LOG][Proc: 0]p_matrix: call_update: 30.948 [ms]
[OGL LOG][Proc: 0]p_rhs: call_update: 13.187 [ms]
[OGL LOG][Proc: 0]p: init_precond: 0.037 [ms]
[OGL LOG][StoppingCriterion.H:372] Creating stopping criterion with minIter 1848 frequency 11
[OGL LOG][Proc: 0]p: generate_solver: 0.002 [ms]
[OGL LOG][Proc: 0]p: solve: 13166.8 [ms]
[OGL LOG][Proc: 0]p: copy_x_back: 10.803 [ms]
[OGL LOG][lduLduBase.H:339] 
Statistics:
	Time per iteration: 4273 [mu s]
	Time per residual norm calculation: 387.000000 [mu s]
	Time per iteration and DOF: 0.066766 [ns]
	Retrieve results bandwidth 1.481000 [GByte/s]
[OGL LOG][Proc: 0]p: solve_multi_gpu: 13222.9 [ms]
nonehipGKOCG:  Solving for p, Initial residual = 0.898181, Final residual = 8.64705e-05, No Iterations 3081
[INFO] SolveP: 13333.2 [ms]
time step continuity errors : sum local = 1.65503e-08, global = 6.97304e-23, cumulative = 7.33302e-21
[INFO] ContinuityError: 62.008 [ms]
[INFO] CorrectBoundary: 0.997 [ms]
[INFO] PISOStep: 14335 [ms]
[INFO] TimeStep: 32525.1 [ms]
ExecutionTime = 272.58 s  ClockTime = 248 s

Time = 0.001125

Courant Number mean: 0.0316938 max: 0.696049
[INFO] MatrixAssemblyU: 514.424 [ms]
DILUPBiCGStab:  Solving for Ux, Initial residual = 0.0373863, Final residual = 0.00381168, No Iterations 5
DILUPBiCGStab:  Solving for Uy, Initial residual = 0.186817, Final residual = 0.0147667, No Iterations 5
DILUPBiCGStab:  Solving for Uz, Initial residual = 0.692497, Final residual = 0.0378746, No Iterations 5
[INFO] MomentumPredictor: 3945.24 [ms]
[INFO] MatrixAssemblyPI: 576.886 [ms]
[INFO] AdjustPhi: 24.504 [ms]
[INFO] ConstrainPressure: 0.003 [ms]
[INFO] MatrixAssemblyPII: 166.391 [ms]
[OGL LOG][Proc: 0]: global_index_init: 0.155 [ms]
[OGL LOG][Proc: 0]p_local_coeffs: call_update: 0 [ms]
[OGL LOG][Proc: 0]p_non_local_coeffs: call_update: 0 [ms]
[OGL LOG][Proc: 0]p: update_local_matrix_data: 90.647 [ms]
[OGL LOG][Proc: 0]p: update_non_local_matrix_data: 0.519 [ms]
[OGL LOG][Proc: 0]p_matrix: call_update: 26.872 [ms]
[OGL LOG][Proc: 0]p_rhs: call_update: 11.815 [ms]
[OGL LOG][Proc: 0]p: init_precond: 0.073 [ms]
[OGL LOG][StoppingCriterion.H:372] Creating stopping criterion with minIter 1848 frequency 10
[OGL LOG][Proc: 0]p: generate_solver: 0.004 [ms]
[OGL LOG][Proc: 0]p: solve: 12468.1 [ms]
[OGL LOG][Proc: 0]p: copy_x_back: 11.507 [ms]
[OGL LOG][lduLduBase.H:339] 
Statistics:
	Time per iteration: 4046 [mu s]
	Time per residual norm calculation: 381.000000 [mu s]
	Time per iteration and DOF: 0.063219 [ns]
	Retrieve results bandwidth 1.390000 [GByte/s]
[OGL LOG][Proc: 0]p: solve_multi_gpu: 12519.4 [ms]
nonehipGKOCG:  Solving for p, Initial residual = 0.968102, Final residual = 9.55261e-05, No Iterations 3081
[INFO] SolveP: 12629.4 [ms]
time step continuity errors : sum local = 2.06392e-08, global = 2.26134e-22, cumulative = 7.55916e-21
[INFO] ContinuityError: 60.407 [ms]
[INFO] CorrectBoundary: 0.94 [ms]
[INFO] PISOStep: 13648 [ms]
[INFO] MatrixAssemblyPI: 557.041 [ms]
[INFO] AdjustPhi: 25.909 [ms]
[INFO] ConstrainPressure: 0.003 [ms]
[INFO] MatrixAssemblyPII: 163.724 [ms]
[OGL LOG][Proc: 0]: global_index_init: 0.831 [ms]
[OGL LOG][Proc: 0]p_local_coeffs: call_update: 0 [ms]
[OGL LOG][Proc: 0]p_non_local_coeffs: call_update: 0 [ms]
[OGL LOG][Proc: 0]p: update_local_matrix_data: 91.066 [ms]
[OGL LOG][Proc: 0]p: update_non_local_matrix_data: 0.279 [ms]
[OGL LOG][Proc: 0]p_matrix: call_update: 26.306 [ms]
[OGL LOG][Proc: 0]p_rhs: call_update: 11.349 [ms]
[OGL LOG][Proc: 0]p: init_precond: 0.044 [ms]
[OGL LOG][StoppingCriterion.H:372] Creating stopping criterion with minIter 1848 frequency 11
[OGL LOG][Proc: 0]p: generate_solver: 0.002 [ms]
[OGL LOG][Proc: 0]p: solve: 13280.8 [ms]
[OGL LOG][Proc: 0]p: copy_x_back: 11.244 [ms]
[OGL LOG][lduLduBase.H:339] 
Statistics:
	Time per iteration: 4310 [mu s]
	Time per residual norm calculation: 385.000000 [mu s]
	Time per iteration and DOF: 0.067344 [ns]
	Retrieve results bandwidth 1.422000 [GByte/s]
[OGL LOG][Proc: 0]p: solve_multi_gpu: 13331.1 [ms]
nonehipGKOCG:  Solving for p, Initial residual = 0.918678, Final residual = 9.12344e-05, No Iterations 3081
[INFO] SolveP: 13441.4 [ms]
time step continuity errors : sum local = 1.96854e-08, global = 6.68003e-22, cumulative = 8.22716e-21
[INFO] ContinuityError: 63.77 [ms]
[INFO] CorrectBoundary: 1.101 [ms]
[INFO] PISOStep: 14444.4 [ms]
[INFO] TimeStep: 32613.2 [ms]
ExecutionTime = 309.08 s  ClockTime = 280 s

Time = 0.00125

Courant Number mean: 0.0331066 max: 0.507103
[INFO] MatrixAssemblyU: 511.238 [ms]
DILUPBiCGStab:  Solving for Ux, Initial residual = 0.0407442, Final residual = 0.00387696, No Iterations 5
DILUPBiCGStab:  Solving for Uy, Initial residual = 0.185576, Final residual = 0.0130472, No Iterations 5
DILUPBiCGStab:  Solving for Uz, Initial residual = 0.692621, Final residual = 0.0367456, No Iterations 5
[INFO] MomentumPredictor: 3953.65 [ms]
[INFO] MatrixAssemblyPI: 573.515 [ms]
[INFO] AdjustPhi: 27.443 [ms]
[INFO] ConstrainPressure: 0.003 [ms]
[INFO] MatrixAssemblyPII: 160.82 [ms]
[OGL LOG][Proc: 0]: global_index_init: 0.095 [ms]
[OGL LOG][Proc: 0]p_local_coeffs: call_update: 0 [ms]
[OGL LOG][Proc: 0]p_non_local_coeffs: call_update: 0 [ms]
[OGL LOG][Proc: 0]p: update_local_matrix_data: 89.013 [ms]
[OGL LOG][Proc: 0]p: update_non_local_matrix_data: 0.544 [ms]
[OGL LOG][Proc: 0]p_matrix: call_update: 26.307 [ms]
[OGL LOG][Proc: 0]p_rhs: call_update: 12.738 [ms]
[OGL LOG][Proc: 0]p: init_precond: 0.052 [ms]
[OGL LOG][StoppingCriterion.H:372] Creating stopping criterion with minIter 1848 frequency 10
[OGL LOG][Proc: 0]p: generate_solver: 0.002 [ms]
[OGL LOG][Proc: 0]p: solve: 12495.1 [ms]
[OGL LOG][Proc: 0]p: copy_x_back: 11.256 [ms]
[OGL LOG][lduLduBase.H:339] 
Statistics:
	Time per iteration: 4055 [mu s]
	Time per residual norm calculation: 383.000000 [mu s]
	Time per iteration and DOF: 0.063359 [ns]
	Retrieve results bandwidth 1.421000 [GByte/s]
[OGL LOG][Proc: 0]p: solve_multi_gpu: 12546.7 [ms]
nonehipGKOCG:  Solving for p, Initial residual = 0.967471, Final residual = 9.31349e-05, No Iterations 3081
[INFO] SolveP: 12656.5 [ms]
time step continuity errors : sum local = 2.34276e-08, global = 2.38005e-22, cumulative = 8.46517e-21
[INFO] ContinuityError: 59.006 [ms]
[INFO] CorrectBoundary: 1.018 [ms]
[INFO] PISOStep: 13672.7 [ms]
[INFO] MatrixAssemblyPI: 558.742 [ms]
[INFO] AdjustPhi: 24.896 [ms]
[INFO] ConstrainPressure: 0.004 [ms]
[INFO] MatrixAssemblyPII: 166.76 [ms]
[OGL LOG][Proc: 0]: global_index_init: 0.047 [ms]
[OGL LOG][Proc: 0]p_local_coeffs: call_update: 0 [ms]
[OGL LOG][Proc: 0]p_non_local_coeffs: call_update: 0 [ms]
[OGL LOG][Proc: 0]p: update_local_matrix_data: 91.706 [ms]
[OGL LOG][Proc: 0]p: update_non_local_matrix_data: 0.218 [ms]
[OGL LOG][Proc: 0]p_matrix: call_update: 22.631 [ms]
[OGL LOG][Proc: 0]p_rhs: call_update: 17.657 [ms]
[OGL LOG][Proc: 0]p: init_precond: 0.038 [ms]
[OGL LOG][StoppingCriterion.H:372] Creating stopping criterion with minIter 1848 frequency 11
[OGL LOG][Proc: 0]p: generate_solver: 0.002 [ms]
[OGL LOG][Proc: 0]p: solve: 13169.1 [ms]
[OGL LOG][Proc: 0]p: copy_x_back: 9.949 [ms]
[OGL LOG][lduLduBase.H:339] 
Statistics:
	Time per iteration: 4289 [mu s]
	Time per residual norm calculation: 383.000000 [mu s]
	Time per iteration and DOF: 0.067016 [ns]
	Retrieve results bandwidth 1.608000 [GByte/s]
[OGL LOG][Proc: 0]p: solve_multi_gpu: 13220.6 [ms]
nonehipGKOCG:  Solving for p, Initial residual = 0.903785, Final residual = 9.85554e-05, No Iterations 3070
[INFO] SolveP: 13335.3 [ms]
time step continuity errors : sum local = 2.51228e-08, global = 9.10894e-22, cumulative = 9.37606e-21
[INFO] ContinuityError: 62.891 [ms]
[INFO] CorrectBoundary: 1.767 [ms]
[INFO] PISOStep: 14337.5 [ms]
[INFO] TimeStep: 32536.2 [ms]
ExecutionTime = 345.29 s  ClockTime = 313 s

Time = 0.001375

Courant Number mean: 0.0347045 max: 0.825596
[INFO] MatrixAssemblyU: 508.244 [ms]
DILUPBiCGStab:  Solving for Ux, Initial residual = 0.0434731, Final residual = 0.00370652, No Iterations 5
DILUPBiCGStab:  Solving for Uy, Initial residual = 0.209204, Final residual = 0.0140811, No Iterations 5
DILUPBiCGStab:  Solving for Uz, Initial residual = 0.705853, Final residual = 0.0360083, No Iterations 5
[INFO] MomentumPredictor: 3949.43 [ms]
[INFO] MatrixAssemblyPI: 576.477 [ms]
[INFO] AdjustPhi: 24.291 [ms]
[INFO] ConstrainPressure: 0.003 [ms]
[INFO] MatrixAssemblyPII: 164.574 [ms]
[OGL LOG][Proc: 0]: global_index_init: 0.202 [ms]
[OGL LOG][Proc: 0]p_local_coeffs: call_update: 0 [ms]
[OGL LOG][Proc: 0]p_non_local_coeffs: call_update: 0 [ms]
[OGL LOG][Proc: 0]p: update_local_matrix_data: 89.519 [ms]
[OGL LOG][Proc: 0]p: update_non_local_matrix_data: 0.619 [ms]
[OGL LOG][Proc: 0]p_matrix: call_update: 24.686 [ms]
[OGL LOG][Proc: 0]p_rhs: call_update: 15.405 [ms]
[OGL LOG][Proc: 0]p: init_precond: 0.031 [ms]
[OGL LOG][StoppingCriterion.H:372] Creating stopping criterion with minIter 1842 frequency 10
[OGL LOG][Proc: 0]p: generate_solver: 0.003 [ms]
[OGL LOG][Proc: 0]p: solve: 12535.2 [ms]
[OGL LOG][Proc: 0]p: copy_x_back: 11.78 [ms]
[OGL LOG][lduLduBase.H:339] 
Statistics:
	Time per iteration: 4081 [mu s]
	Time per residual norm calculation: 385.000000 [mu s]
	Time per iteration and DOF: 0.063766 [ns]
	Retrieve results bandwidth 1.358000 [GByte/s]
[OGL LOG][Proc: 0]p: solve_multi_gpu: 12588.2 [ms]
nonehipGKOCG:  Solving for p, Initial residual = 0.973043, Final residual = 9.73882e-05, No Iterations 3071
[INFO] SolveP: 12698.8 [ms]
time step continuity errors : sum local = 2.84187e-08, global = 3.42934e-22, cumulative = 9.71899e-21
[INFO] ContinuityError: 56.835 [ms]
[INFO] CorrectBoundary: 1.253 [ms]
[INFO] PISOStep: 13714.5 [ms]
[INFO] MatrixAssemblyPI: 558.148 [ms]
[INFO] AdjustPhi: 25.531 [ms]
[INFO] ConstrainPressure: 0.005 [ms]
[INFO] MatrixAssemblyPII: 165.224 [ms]
[OGL LOG][Proc: 0]: global_index_init: 0.094 [ms]
[OGL LOG][Proc: 0]p_local_coeffs: call_update: 0 [ms]
[OGL LOG][Proc: 0]p_non_local_coeffs: call_update: 0 [ms]
[OGL LOG][Proc: 0]p: update_local_matrix_data: 92.503 [ms]
[OGL LOG][Proc: 0]p: update_non_local_matrix_data: 0.347 [ms]
[OGL LOG][Proc: 0]p_matrix: call_update: 24.053 [ms]
[OGL LOG][Proc: 0]p_rhs: call_update: 21.631 [ms]
[OGL LOG][Proc: 0]p: init_precond: 0.032 [ms]
[OGL LOG][StoppingCriterion.H:372] Creating stopping criterion with minIter 1842 frequency 11
[OGL LOG][Proc: 0]p: generate_solver: 0.002 [ms]
[OGL LOG][Proc: 0]p: solve: 13526 [ms]
[OGL LOG][Proc: 0]p: copy_x_back: 11.735 [ms]
[OGL LOG][lduLduBase.H:339] 
Statistics:
	Time per iteration: 4405 [mu s]
	Time per residual norm calculation: 383.000000 [mu s]
	Time per iteration and DOF: 0.068828 [ns]
	Retrieve results bandwidth 1.363000 [GByte/s]
[OGL LOG][Proc: 0]p: solve_multi_gpu: 13585.1 [ms]
nonehipGKOCG:  Solving for p, Initial residual = 0.919509, Final residual = 9.39812e-05, No Iterations 3070
[INFO] SolveP: 13696.9 [ms]
time step continuity errors : sum local = 2.74414e-08, global = 5.28032e-22, cumulative = 1.0247e-20
[INFO] ContinuityError: 59.559 [ms]
[INFO] CorrectBoundary: 1.356 [ms]
[INFO] PISOStep: 14695.6 [ms]
[INFO] TimeStep: 32930.7 [ms]
ExecutionTime = 382.01 s  ClockTime = 346 s

Time = 0.0015

Courant Number mean: 0.0359033 max: 0.597577
[INFO] MatrixAssemblyU: 511.356 [ms]
DILUPBiCGStab:  Solving for Ux, Initial residual = 0.0488952, Final residual = 0.00390998, No Iterations 5
DILUPBiCGStab:  Solving for Uy, Initial residual = 0.213488, Final residual = 0.0129221, No Iterations 5
DILUPBiCGStab:  Solving for Uz, Initial residual = 0.709928, Final residual = 0.0357023, No Iterations 5
[INFO] MomentumPredictor: 3949.34 [ms]
[INFO] MatrixAssemblyPI: 576.149 [ms]
[INFO] AdjustPhi: 24.094 [ms]
[INFO] ConstrainPressure: 0.003 [ms]
[INFO] MatrixAssemblyPII: 167.029 [ms]
[OGL LOG][Proc: 0]: global_index_init: 0.034 [ms]
[OGL LOG][Proc: 0]p_local_coeffs: call_update: 0 [ms]
[OGL LOG][Proc: 0]p_non_local_coeffs: call_update: 0 [ms]
[OGL LOG][Proc: 0]p: update_local_matrix_data: 90.404 [ms]
[OGL LOG][Proc: 0]p: update_non_local_matrix_data: 0.459 [ms]
[OGL LOG][Proc: 0]p_matrix: call_update: 27.977 [ms]
[OGL LOG][Proc: 0]p_rhs: call_update: 10.54 [ms]
[OGL LOG][Proc: 0]p: init_precond: 0.061 [ms]
[OGL LOG][StoppingCriterion.H:372] Creating stopping criterion with minIter 1842 frequency 10
[OGL LOG][Proc: 0]p: generate_solver: 0.004 [ms]
[OGL LOG][Proc: 0]p: solve: 12445.6 [ms]
[OGL LOG][Proc: 0]p: copy_x_back: 11.809 [ms]
[OGL LOG][lduLduBase.H:339] 
Statistics:
	Time per iteration: 4203 [mu s]
	Time per residual norm calculation: 398.000000 [mu s]
	Time per iteration and DOF: 0.065672 [ns]
	Retrieve results bandwidth 1.354000 [GByte/s]
[OGL LOG][Proc: 0]p: solve_multi_gpu: 12497.2 [ms]
nonehipGKOCG:  Solving for p, Initial residual = 0.973289, Final residual = 8.83065e-05, No Iterations 2961
[INFO] SolveP: 12607.1 [ms]
time step continuity errors : sum local = 3.02147e-08, global = 5.00199e-22, cumulative = 1.07472e-20
[INFO] ContinuityError: 59.103 [ms]
[INFO] CorrectBoundary: 1.165 [ms]
[INFO] PISOStep: 13623.3 [ms]
[INFO] MatrixAssemblyPI: 559.382 [ms]
[INFO] AdjustPhi: 24.441 [ms]
[INFO] ConstrainPressure: 0.004 [ms]
[INFO] MatrixAssemblyPII: 167.502 [ms]
[OGL LOG][Proc: 0]: global_index_init: 0.061 [ms]
[OGL LOG][Proc: 0]p_local_coeffs: call_update: 0 [ms]
[OGL LOG][Proc: 0]p_non_local_coeffs: call_update: 0 [ms]
[OGL LOG][Proc: 0]p: update_local_matrix_data: 90.527 [ms]
[OGL LOG][Proc: 0]p: update_non_local_matrix_data: 0.341 [ms]
[OGL LOG][Proc: 0]p_matrix: call_update: 27.208 [ms]
[OGL LOG][Proc: 0]p_rhs: call_update: 17.466 [ms]
[OGL LOG][Proc: 0]p: init_precond: 0.035 [ms]
[OGL LOG][StoppingCriterion.H:372] Creating stopping criterion with minIter 1776 frequency 10
[OGL LOG][Proc: 0]p: generate_solver: 0.002 [ms]
[OGL LOG][Proc: 0]p: solve: 13449.6 [ms]
[OGL LOG][Proc: 0]p: copy_x_back: 10.205 [ms]
[OGL LOG][lduLduBase.H:339] 
Statistics:
	Time per iteration: 4466 [mu s]
	Time per residual norm calculation: 388.000000 [mu s]
	Time per iteration and DOF: 0.069781 [ns]
	Retrieve results bandwidth 1.567000 [GByte/s]
[OGL LOG][Proc: 0]p: solve_multi_gpu: 13505.6 [ms]
nonehipGKOCG:  Solving for p, Initial residual = 0.908652, Final residual = 9.84461e-05, No Iterations 3011
[INFO] SolveP: 13618.3 [ms]
time step continuity errors : sum local = 3.4092e-08, global = -7.55798e-22, cumulative = 9.99143e-21
[INFO] ContinuityError: 58.99 [ms]
[INFO] CorrectBoundary: 0.887 [ms]
[INFO] PISOStep: 14618 [ms]
[INFO] TimeStep: 32764.2 [ms]
ExecutionTime = 418.43 s  ClockTime = 378 s

Time = 0.001625

Courant Number mean: 0.0373971 max: 1.14779
[INFO] MatrixAssemblyU: 507.938 [ms]
DILUPBiCGStab:  Solving for Ux, Initial residual = 0.0534979, Final residual = 0.00384941, No Iterations 5
DILUPBiCGStab:  Solving for Uy, Initial residual = 0.241754, Final residual = 0.014199, No Iterations 5
DILUPBiCGStab:  Solving for Uz, Initial residual = 0.720776, Final residual = 0.035165, No Iterations 5
[INFO] MomentumPredictor: 3940.95 [ms]
[INFO] MatrixAssemblyPI: 576.389 [ms]
[INFO] AdjustPhi: 26.973 [ms]
[INFO] ConstrainPressure: 0.003 [ms]
[INFO] MatrixAssemblyPII: 167.042 [ms]
[OGL LOG][Proc: 0]: global_index_init: 0.2 [ms]
[OGL LOG][Proc: 0]p_local_coeffs: call_update: 0 [ms]
[OGL LOG][Proc: 0]p_non_local_coeffs: call_update: 0 [ms]
[OGL LOG][Proc: 0]p: update_local_matrix_data: 91.151 [ms]
[OGL LOG][Proc: 0]p: update_non_local_matrix_data: 0.24 [ms]
[OGL LOG][Proc: 0]p_matrix: call_update: 29.153 [ms]
[OGL LOG][Proc: 0]p_rhs: call_update: 10.122 [ms]
[OGL LOG][Proc: 0]p: init_precond: 0.052 [ms]
[OGL LOG][StoppingCriterion.H:372] Creating stopping criterion with minIter 1806 frequency 10
[OGL LOG][Proc: 0]p: generate_solver: 0.002 [ms]
[OGL LOG][Proc: 0]p: solve: 13142.6 [ms]
[OGL LOG][Proc: 0]p: copy_x_back: 11.749 [ms]
[OGL LOG][lduLduBase.H:339] 
Statistics:
	Time per iteration: 4265 [mu s]
	Time per residual norm calculation: 378.000000 [mu s]
	Time per iteration and DOF: 0.066641 [ns]
	Retrieve results bandwidth 1.361000 [GByte/s]
[OGL LOG][Proc: 0]p: solve_multi_gpu: 13194.9 [ms]
nonehipGKOCG:  Solving for p, Initial residual = 0.97685, Final residual = 8.63459e-05, No Iterations 3081
[INFO] SolveP: 13308.1 [ms]
time step continuity errors : sum local = 3.45965e-08, global = -2.40335e-23, cumulative = 9.96739e-21
[INFO] ContinuityError: 58.034 [ms]
[INFO] CorrectBoundary: 1.292 [ms]
[INFO] PISOStep: 14325.8 [ms]
[INFO] MatrixAssemblyPI: 557.853 [ms]
[INFO] AdjustPhi: 26.519 [ms]
[INFO] ConstrainPressure: 0.003 [ms]
[INFO] MatrixAssemblyPII: 166.566 [ms]
[OGL LOG][Proc: 0]: global_index_init: 0.087 [ms]
[OGL LOG][Proc: 0]p_local_coeffs: call_update: 0 [ms]
[OGL LOG][Proc: 0]p_non_local_coeffs: call_update: 0 [ms]
[OGL LOG][Proc: 0]p: update_local_matrix_data: 90.441 [ms]
[OGL LOG][Proc: 0]p: update_non_local_matrix_data: 0.497 [ms]
[OGL LOG][Proc: 0]p_matrix: call_update: 27.161 [ms]
[OGL LOG][Proc: 0]p_rhs: call_update: 9.007 [ms]
[OGL LOG][Proc: 0]p: init_precond: 0.051 [ms]
[OGL LOG][StoppingCriterion.H:372] Creating stopping criterion with minIter 1848 frequency 10
[OGL LOG][Proc: 0]p: generate_solver: 0.002 [ms]
[OGL LOG][Proc: 0]p: solve: 13729.2 [ms]
[OGL LOG][Proc: 0]p: copy_x_back: 10.124 [ms]
[OGL LOG][lduLduBase.H:339] 
Statistics:
	Time per iteration: 4470 [mu s]
	Time per residual norm calculation: 439.000000 [mu s]
	Time per iteration and DOF: 0.069844 [ns]
	Retrieve results bandwidth 1.580000 [GByte/s]
[OGL LOG][Proc: 0]p: solve_multi_gpu: 13776.6 [ms]
nonehipGKOCG:  Solving for p, Initial residual = 0.92028, Final residual = 9.58428e-05, No Iterations 3071
[INFO] SolveP: 13886.4 [ms]
time step continuity errors : sum local = 3.8494e-08, global = 5.50802e-22, cumulative = 1.05182e-20
[INFO] ContinuityError: 61.343 [ms]
[INFO] CorrectBoundary: 1.838 [ms]
[INFO] PISOStep: 14888.1 [ms]
[INFO] TimeStep: 33724.3 [ms]
ExecutionTime = 456.05 s  ClockTime = 412 s

Time = 0.00175

Courant Number mean: 0.0384581 max: 1.02097
[INFO] MatrixAssemblyU: 501.42 [ms]
DILUPBiCGStab:  Solving for Ux, Initial residual = 0.0614114, Final residual = 0.00414487, No Iterations 5
DILUPBiCGStab:  Solving for Uy, Initial residual = 0.252089, Final residual = 0.0135744, No Iterations 5
DILUPBiCGStab:  Solving for Uz, Initial residual = 0.726025, Final residual = 0.0351149, No Iterations 5
[INFO] MomentumPredictor: 3958.2 [ms]
[INFO] MatrixAssemblyPI: 574.262 [ms]
[INFO] AdjustPhi: 26.416 [ms]
[INFO] ConstrainPressure: 0.004 [ms]
[INFO] MatrixAssemblyPII: 165.19 [ms]
[OGL LOG][Proc: 0]: global_index_init: 0.038 [ms]
[OGL LOG][Proc: 0]p_local_coeffs: call_update: 0 [ms]
[OGL LOG][Proc: 0]p_non_local_coeffs: call_update: 0 [ms]
[OGL LOG][Proc: 0]p: update_local_matrix_data: 90.795 [ms]
[OGL LOG][Proc: 0]p: update_non_local_matrix_data: 0.29 [ms]
[OGL LOG][Proc: 0]p_matrix: call_update: 29.016 [ms]
[OGL LOG][Proc: 0]p_rhs: call_update: 10.239 [ms]
[OGL LOG][Proc: 0]p: init_precond: 0.066 [ms]
[OGL LOG][StoppingCriterion.H:372] Creating stopping criterion with minIter 1842 frequency 11
[OGL LOG][Proc: 0]p: generate_solver: 0.002 [ms]
[OGL LOG][Proc: 0]p: solve: 12939.6 [ms]
[OGL LOG][Proc: 0]p: copy_x_back: 11.486 [ms]
[OGL LOG][lduLduBase.H:339] 
Statistics:
	Time per iteration: 4199 [mu s]
	Time per residual norm calculation: 385.000000 [mu s]
	Time per iteration and DOF: 0.065609 [ns]
	Retrieve results bandwidth 1.393000 [GByte/s]
[OGL LOG][Proc: 0]p: solve_multi_gpu: 13001.9 [ms]
nonehipGKOCG:  Solving for p, Initial residual = 0.977538, Final residual = 8.93864e-05, No Iterations 3081
[INFO] SolveP: 13111.8 [ms]
time step continuity errors : sum local = 4.22156e-08, global = 1.25938e-21, cumulative = 1.17776e-20
[INFO] ContinuityError: 59.962 [ms]
[INFO] CorrectBoundary: 4.602 [ms]
[INFO] PISOStep: 14126.8 [ms]
[INFO] MatrixAssemblyPI: 556.216 [ms]
[INFO] AdjustPhi: 29.027 [ms]
[INFO] ConstrainPressure: 0.005 [ms]
[INFO] MatrixAssemblyPII: 167.164 [ms]
[OGL LOG][Proc: 0]: global_index_init: 0.064 [ms]
[OGL LOG][Proc: 0]p_local_coeffs: call_update: 0 [ms]
[OGL LOG][Proc: 0]p_non_local_coeffs: call_update: 0 [ms]
[OGL LOG][Proc: 0]p: update_local_matrix_data: 90.803 [ms]
[OGL LOG][Proc: 0]p: update_non_local_matrix_data: 0.3 [ms]
[OGL LOG][Proc: 0]p_matrix: call_update: 22.919 [ms]
[OGL LOG][Proc: 0]p_rhs: call_update: 13.158 [ms]
[OGL LOG][Proc: 0]p: init_precond: 0.051 [ms]
[OGL LOG][StoppingCriterion.H:372] Creating stopping criterion with minIter 1848 frequency 11
[OGL LOG][Proc: 0]p: generate_solver: 0.002 [ms]
[OGL LOG][Proc: 0]p: solve: 13652.2 [ms]
[OGL LOG][Proc: 0]p: copy_x_back: 11.199 [ms]
[OGL LOG][lduLduBase.H:339] 
Statistics:
	Time per iteration: 4431 [mu s]
	Time per residual norm calculation: 375.000000 [mu s]
	Time per iteration and DOF: 0.069234 [ns]
	Retrieve results bandwidth 1.428000 [GByte/s]
[OGL LOG][Proc: 0]p: solve_multi_gpu: 13700.5 [ms]
nonehipGKOCG:  Solving for p, Initial residual = 0.912711, Final residual = 8.34684e-05, No Iterations 3081
[INFO] SolveP: 13810.4 [ms]
time step continuity errors : sum local = 3.98555e-08, global = 2.06647e-22, cumulative = 1.19842e-20
[INFO] ContinuityError: 62.629 [ms]
[INFO] CorrectBoundary: 2.374 [ms]
[INFO] PISOStep: 14812.8 [ms]
[INFO] TimeStep: 33461.3 [ms]
ExecutionTime = 493.25 s  ClockTime = 446 s

Time = 0.001875

Courant Number mean: 0.039921 max: 1.68242
[INFO] MatrixAssemblyU: 501.988 [ms]
DILUPBiCGStab:  Solving for Ux, Initial residual = 0.0683314, Final residual = 0.00423169, No Iterations 5
DILUPBiCGStab:  Solving for Uy, Initial residual = 0.284045, Final residual = 0.0149547, No Iterations 5
DILUPBiCGStab:  Solving for Uz, Initial residual = 0.734706, Final residual = 0.0349115, No Iterations 5
[INFO] MomentumPredictor: 3947.6 [ms]
[INFO] MatrixAssemblyPI: 570.413 [ms]
[INFO] AdjustPhi: 30.857 [ms]
[INFO] ConstrainPressure: 0.003 [ms]
[INFO] MatrixAssemblyPII: 166.645 [ms]
[OGL LOG][Proc: 0]: global_index_init: 0.042 [ms]
[OGL LOG][Proc: 0]p_local_coeffs: call_update: 0 [ms]
[OGL LOG][Proc: 0]p_non_local_coeffs: call_update: 0 [ms]
[OGL LOG][Proc: 0]p: update_local_matrix_data: 90.72 [ms]
[OGL LOG][Proc: 0]p: update_non_local_matrix_data: 0.365 [ms]
[OGL LOG][Proc: 0]p_matrix: call_update: 37.937 [ms]
[OGL LOG][Proc: 0]p_rhs: call_update: 20.775 [ms]
[OGL LOG][Proc: 0]p: init_precond: 0.051 [ms]
[OGL LOG][StoppingCriterion.H:372] Creating stopping criterion with minIter 1848 frequency 10
[OGL LOG][Proc: 0]p: generate_solver: 0.002 [ms]
[OGL LOG][Proc: 0]p: solve: 13167.1 [ms]
[OGL LOG][Proc: 0]p: copy_x_back: 11.41 [ms]
[OGL LOG][lduLduBase.H:339] 
Statistics:
	Time per iteration: 4273 [mu s]
	Time per residual norm calculation: 378.000000 [mu s]
	Time per iteration and DOF: 0.066766 [ns]
	Retrieve results bandwidth 1.402000 [GByte/s]
[OGL LOG][Proc: 0]p: solve_multi_gpu: 13238.4 [ms]
nonehipGKOCG:  Solving for p, Initial residual = 0.979653, Final residual = 9.06883e-05, No Iterations 3081
[INFO] SolveP: 13348.6 [ms]
time step continuity errors : sum local = 5.0487e-08, global = 1.74247e-21, cumulative = 1.37267e-20
[INFO] ContinuityError: 63.803 [ms]
[INFO] CorrectBoundary: 2.602 [ms]
[INFO] PISOStep: 14368.7 [ms]
[INFO] MatrixAssemblyPI: 549.759 [ms]
[INFO] AdjustPhi: 34.442 [ms]
[INFO] ConstrainPressure: 0.003 [ms]
[INFO] MatrixAssemblyPII: 165.879 [ms]
[OGL LOG][Proc: 0]: global_index_init: 0.159 [ms]
[OGL LOG][Proc: 0]p_local_coeffs: call_update: 0 [ms]
[OGL LOG][Proc: 0]p_non_local_coeffs: call_update: 0 [ms]
[OGL LOG][Proc: 0]p: update_local_matrix_data: 90.398 [ms]
[OGL LOG][Proc: 0]p: update_non_local_matrix_data: 0.487 [ms]
[OGL LOG][Proc: 0]p_matrix: call_update: 37.657 [ms]
[OGL LOG][Proc: 0]p_rhs: call_update: 10.666 [ms]
[OGL LOG][Proc: 0]p: init_precond: 0.041 [ms]
[OGL LOG][StoppingCriterion.H:372] Creating stopping criterion with minIter 1848 frequency 10
[OGL LOG][Proc: 0]p: generate_solver: 0.002 [ms]
[OGL LOG][Proc: 0]p: solve: 13768.8 [ms]
[OGL LOG][Proc: 0]p: copy_x_back: 9.546 [ms]
[OGL LOG][lduLduBase.H:339] 
Statistics:
	Time per iteration: 4483 [mu s]
	Time per residual norm calculation: 370.000000 [mu s]
	Time per iteration and DOF: 0.070047 [ns]
	Retrieve results bandwidth 1.676000 [GByte/s]
[OGL LOG][Proc: 0]p: solve_multi_gpu: 13829 [ms]
nonehipGKOCG:  Solving for p, Initial residual = 0.920769, Final residual = 9.6857e-05, No Iterations 3071
[INFO] SolveP: 13940.2 [ms]
time step continuity errors : sum local = 5.41317e-08, global = -3.69323e-22, cumulative = 1.33574e-20
[INFO] ContinuityError: 60.049 [ms]
[INFO] CorrectBoundary: 2.322 [ms]
[INFO] PISOStep: 14941 [ms]
[INFO] TimeStep: 33820.9 [ms]
ExecutionTime = 531.02 s  ClockTime = 479 s

Time = 0.002

Courant Number mean: 0.0409145 max: 1.71632
[INFO] MatrixAssemblyU: 494.902 [ms]
DILUPBiCGStab:  Solving for Ux, Initial residual = 0.0796782, Final residual = 0.00464927, No Iterations 5
DILUPBiCGStab:  Solving for Uy, Initial residual = 0.300727, Final residual = 0.0147978, No Iterations 5
DILUPBiCGStab:  Solving for Uz, Initial residual = 0.738357, Final residual = 0.0347452, No Iterations 5
[INFO] MomentumPredictor: 3961.54 [ms]
[INFO] MatrixAssemblyPI: 564.728 [ms]
[INFO] AdjustPhi: 35.348 [ms]
[INFO] ConstrainPressure: 0.003 [ms]
[INFO] MatrixAssemblyPII: 166.785 [ms]
[OGL LOG][Proc: 0]: global_index_init: 0.038 [ms]
[OGL LOG][Proc: 0]p_local_coeffs: call_update: 0 [ms]
[OGL LOG][Proc: 0]p_non_local_coeffs: call_update: 0 [ms]
[OGL LOG][Proc: 0]p: update_local_matrix_data: 91.417 [ms]
[OGL LOG][Proc: 0]p: update_non_local_matrix_data: 0.225 [ms]
[OGL LOG][Proc: 0]p_matrix: call_update: 40.473 [ms]
[OGL LOG][Proc: 0]p_rhs: call_update: 15.568 [ms]
[OGL LOG][Proc: 0]p: init_precond: 0.045 [ms]
[OGL LOG][StoppingCriterion.H:372] Creating stopping criterion with minIter 1842 frequency 10
[OGL LOG][Proc: 0]p: generate_solver: 0.002 [ms]
[OGL LOG][Proc: 0]p: solve: 12982 [ms]
[OGL LOG][Proc: 0]p: copy_x_back: 11.894 [ms]
[OGL LOG][lduLduBase.H:339] 
Statistics:
	Time per iteration: 4213 [mu s]
	Time per residual norm calculation: 377.000000 [mu s]
	Time per iteration and DOF: 0.065828 [ns]
	Retrieve results bandwidth 1.345000 [GByte/s]
[OGL LOG][Proc: 0]p: solve_multi_gpu: 13051.3 [ms]
nonehipGKOCG:  Solving for p, Initial residual = 0.980772, Final residual = 9.43281e-05, No Iterations 3081
[INFO] SolveP: 13164.7 [ms]
time step continuity errors : sum local = 6.21593e-08, global = 7.06412e-22, cumulative = 1.40638e-20
[INFO] ContinuityError: 60.897 [ms]
[INFO] CorrectBoundary: 3.565 [ms]
[INFO] PISOStep: 14179.5 [ms]
[INFO] MatrixAssemblyPI: 551.309 [ms]
[INFO] AdjustPhi: 32.568 [ms]
[INFO] ConstrainPressure: 0.003 [ms]
[INFO] MatrixAssemblyPII: 167.131 [ms]
[OGL LOG][Proc: 0]: global_index_init: 0.152 [ms]
[OGL LOG][Proc: 0]p_local_coeffs: call_update: 0 [ms]
[OGL LOG][Proc: 0]p_non_local_coeffs: call_update: 0 [ms]
[OGL LOG][Proc: 0]p: update_local_matrix_data: 90.393 [ms]
[OGL LOG][Proc: 0]p: update_non_local_matrix_data: 0.441 [ms]
[OGL LOG][Proc: 0]p_matrix: call_update: 33.445 [ms]
[OGL LOG][Proc: 0]p_rhs: call_update: 22.787 [ms]
[OGL LOG][Proc: 0]p: init_precond: 0.042 [ms]
[OGL LOG][StoppingCriterion.H:372] Creating stopping criterion with minIter 1848 frequency 10
[OGL LOG][Proc: 0]p: generate_solver: 0.002 [ms]
[OGL LOG][Proc: 0]p: solve: 13643.8 [ms]
[OGL LOG][Proc: 0]p: copy_x_back: 10.226 [ms]
[OGL LOG][lduLduBase.H:339] 
Statistics:
	Time per iteration: 4428 [mu s]
	Time per residual norm calculation: 382.000000 [mu s]
	Time per iteration and DOF: 0.069187 [ns]
	Retrieve results bandwidth 1.564000 [GByte/s]
[OGL LOG][Proc: 0]p: solve_multi_gpu: 13711.4 [ms]
nonehipGKOCG:  Solving for p, Initial residual = 0.915749, Final residual = 8.79507e-05, No Iterations 3081
[INFO] SolveP: 13821.1 [ms]
time step continuity errors : sum local = 5.85465e-08, global = 1.53752e-21, cumulative = 1.56013e-20
[INFO] ContinuityError: 61.449 [ms]
[INFO] CorrectBoundary: 0.836 [ms]
[INFO] PISOStep: 14824.1 [ms]
[INFO] TimeStep: 33528.1 [ms]
ExecutionTime = 568.4 s  ClockTime = 513 s

Time = 0.002125

Courant Number mean: 0.0424142 max: 2.54795
[INFO] MatrixAssemblyU: 496.236 [ms]
DILUPBiCGStab:  Solving for Ux, Initial residual = 0.0895886, Final residual = 0.00490623, No Iterations 5
DILUPBiCGStab:  Solving for Uy, Initial residual = 0.335667, Final residual = 0.0162446, No Iterations 5
DILUPBiCGStab:  Solving for Uz, Initial residual = 0.744049, Final residual = 0.0345765, No Iterations 5
[INFO] MomentumPredictor: 3959.49 [ms]
[INFO] MatrixAssemblyPI: 576.516 [ms]
[INFO] AdjustPhi: 24.03 [ms]
[INFO] ConstrainPressure: 0.005 [ms]
[INFO] MatrixAssemblyPII: 166.812 [ms]
[OGL LOG][Proc: 0]: global_index_init: 0.059 [ms]
[OGL LOG][Proc: 0]p_local_coeffs: call_update: 0 [ms]
[OGL LOG][Proc: 0]p_non_local_coeffs: call_update: 0 [ms]
[OGL LOG][Proc: 0]p: update_local_matrix_data: 90.095 [ms]
[OGL LOG][Proc: 0]p: update_non_local_matrix_data: 0.505 [ms]
[OGL LOG][Proc: 0]p_matrix: call_update: 35.245 [ms]
[OGL LOG][Proc: 0]p_rhs: call_update: 15.433 [ms]
[OGL LOG][Proc: 0]p: init_precond: 0.041 [ms]
[OGL LOG][StoppingCriterion.H:372] Creating stopping criterion with minIter 1848 frequency 10
[OGL LOG][Proc: 0]p: generate_solver: 0.002 [ms]
[OGL LOG][Proc: 0]p: solve: 12356.9 [ms]
[OGL LOG][Proc: 0]p: copy_x_back: 10.495 [ms]
[OGL LOG][lduLduBase.H:339] 
Statistics:
	Time per iteration: 4159 [mu s]
	Time per residual norm calculation: 375.000000 [mu s]
	Time per iteration and DOF: 0.064984 [ns]
	Retrieve results bandwidth 1.524000 [GByte/s]
[OGL LOG][Proc: 0]p: solve_multi_gpu: 12419.2 [ms]
nonehipGKOCG:  Solving for p, Initial residual = 0.981851, Final residual = 8.94254e-05, No Iterations 2971
[INFO] SolveP: 12528.7 [ms]
time step continuity errors : sum local = 6.9999e-08, global = 6.26964e-22, cumulative = 1.62283e-20
[INFO] ContinuityError: 60.514 [ms]
[INFO] CorrectBoundary: 1.014 [ms]
[INFO] PISOStep: 13546.2 [ms]
[INFO] MatrixAssemblyPI: 553.829 [ms]
[INFO] AdjustPhi: 28.113 [ms]
[INFO] ConstrainPressure: 0.003 [ms]
[INFO] MatrixAssemblyPII: 166.684 [ms]
[OGL LOG][Proc: 0]: global_index_init: 0.613 [ms]
[OGL LOG][Proc: 0]p_local_coeffs: call_update: 0 [ms]
[OGL LOG][Proc: 0]p_non_local_coeffs: call_update: 0 [ms]
[OGL LOG][Proc: 0]p: update_local_matrix_data: 90.753 [ms]
[OGL LOG][Proc: 0]p: update_non_local_matrix_data: 0.357 [ms]
[OGL LOG][Proc: 0]p_matrix: call_update: 43.155 [ms]
[OGL LOG][Proc: 0]p_rhs: call_update: 15.068 [ms]
[OGL LOG][Proc: 0]p: init_precond: 0.029 [ms]
[OGL LOG][StoppingCriterion.H:372] Creating stopping criterion with minIter 1782 frequency 10
[OGL LOG][Proc: 0]p: generate_solver: 0.003 [ms]
[OGL LOG][Proc: 0]p: solve: 13152.7 [ms]
[OGL LOG][Proc: 0]p: copy_x_back: 10.937 [ms]
[OGL LOG][lduLduBase.H:339] 
Statistics:
	Time per iteration: 4339 [mu s]
	Time per residual norm calculation: 380.000000 [mu s]
	Time per iteration and DOF: 0.067797 [ns]
	Retrieve results bandwidth 1.462000 [GByte/s]
[OGL LOG][Proc: 0]p: solve_multi_gpu: 13223.1 [ms]
nonehipGKOCG:  Solving for p, Initial residual = 0.920815, Final residual = 9.79402e-05, No Iterations 3031
[INFO] SolveP: 13334.9 [ms]
time step continuity errors : sum local = 7.707e-08, global = 7.87864e-22, cumulative = 1.70161e-20
[INFO] ContinuityError: 61.34 [ms]
[INFO] CorrectBoundary: 0.804 [ms]
[INFO] PISOStep: 14335.3 [ms]
[INFO] TimeStep: 32399 [ms]
ExecutionTime = 604.75 s  ClockTime = 545 s

Time = 0.00225

Courant Number mean: 0.0434193 max: 2.85588
[INFO] MatrixAssemblyU: 497.551 [ms]
DILUPBiCGStab:  Solving for Ux, Initial residual = 0.105826, Final residual = 0.00550758, No Iterations 5
DILUPBiCGStab:  Solving for Uy, Initial residual = 0.358508, Final residual = 0.0164779, No Iterations 5
DILUPBiCGStab:  Solving for Uz, Initial residual = 0.746396, Final residual = 0.0343028, No Iterations 5
[INFO] MomentumPredictor: 3960.45 [ms]
[INFO] MatrixAssemblyPI: 574.685 [ms]
[INFO] AdjustPhi: 26.333 [ms]
[INFO] ConstrainPressure: 0.003 [ms]
[INFO] MatrixAssemblyPII: 167.011 [ms]
[OGL LOG][Proc: 0]: global_index_init: 0.115 [ms]
[OGL LOG][Proc: 0]p_local_coeffs: call_update: 0 [ms]
[OGL LOG][Proc: 0]p_non_local_coeffs: call_update: 0 [ms]
[OGL LOG][Proc: 0]p: update_local_matrix_data: 90.12 [ms]
[OGL LOG][Proc: 0]p: update_non_local_matrix_data: 0.524 [ms]
[OGL LOG][Proc: 0]p_matrix: call_update: 46.08 [ms]
[OGL LOG][Proc: 0]p_rhs: call_update: 4.743 [ms]
[OGL LOG][Proc: 0]p: init_precond: 0.066 [ms]
[OGL LOG][StoppingCriterion.H:372] Creating stopping criterion with minIter 1818 frequency 10
[OGL LOG][Proc: 0]p: generate_solver: 0.002 [ms]
[OGL LOG][Proc: 0]p: solve: 12850.2 [ms]
[OGL LOG][Proc: 0]p: copy_x_back: 10.107 [ms]
[OGL LOG][lduLduBase.H:339] 
Statistics:
	Time per iteration: 4170 [mu s]
	Time per residual norm calculation: 387.000000 [mu s]
	Time per iteration and DOF: 0.065156 [ns]
	Retrieve results bandwidth 1.583000 [GByte/s]
[OGL LOG][Proc: 0]p: solve_multi_gpu: 12912.3 [ms]
nonehipGKOCG:  Solving for p, Initial residual = 0.983049, Final residual = 9.91471e-05, No Iterations 3081
[INFO] SolveP: 13021.8 [ms]
time step continuity errors : sum local = 9.25019e-08, global = 2.71703e-21, cumulative = 1.97332e-20
[INFO] ContinuityError: 60.946 [ms]
[INFO] CorrectBoundary: 1.035 [ms]
[INFO] PISOStep: 14040.6 [ms]
[INFO] MatrixAssemblyPI: 551.403 [ms]
[INFO] AdjustPhi: 31.998 [ms]
[INFO] ConstrainPressure: 0.003 [ms]
[INFO] MatrixAssemblyPII: 162.254 [ms]
[OGL LOG][Proc: 0]: global_index_init: 0.037 [ms]
[OGL LOG][Proc: 0]p_local_coeffs: call_update: 0 [ms]
[OGL LOG][Proc: 0]p_non_local_coeffs: call_update: 0 [ms]
[OGL LOG][Proc: 0]p: update_local_matrix_data: 90.504 [ms]
[OGL LOG][Proc: 0]p: update_non_local_matrix_data: 0.443 [ms]
[OGL LOG][Proc: 0]p_matrix: call_update: 34.734 [ms]
[OGL LOG][Proc: 0]p_rhs: call_update: 10.968 [ms]
[OGL LOG][Proc: 0]p: init_precond: 0.034 [ms]
[OGL LOG][StoppingCriterion.H:372] Creating stopping criterion with minIter 1848 frequency 11
[OGL LOG][Proc: 0]p: generate_solver: 0.002 [ms]
[OGL LOG][Proc: 0]p: solve: 13763.6 [ms]
[OGL LOG][Proc: 0]p: copy_x_back: 9.664 [ms]
[OGL LOG][lduLduBase.H:339] 
Statistics:
	Time per iteration: 4467 [mu s]
	Time per residual norm calculation: 374.000000 [mu s]
	Time per iteration and DOF: 0.069797 [ns]
	Retrieve results bandwidth 1.655000 [GByte/s]
[OGL LOG][Proc: 0]p: solve_multi_gpu: 13820.1 [ms]
nonehipGKOCG:  Solving for p, Initial residual = 0.917776, Final residual = 9.23801e-05, No Iterations 3081
[INFO] SolveP: 13931.4 [ms]
time step continuity errors : sum local = 8.7018e-08, global = 2.97695e-22, cumulative = 2.00309e-20
[INFO] ContinuityError: 59.814 [ms]
[INFO] CorrectBoundary: 0.948 [ms]
[INFO] PISOStep: 14931.3 [ms]
[INFO] TimeStep: 33492 [ms]
ExecutionTime = 642.26 s  ClockTime = 579 s

Time = 0.002375

Courant Number mean: 0.0450383 max: 3.95854
[INFO] MatrixAssemblyU: 506.216 [ms]
DILUPBiCGStab:  Solving for Ux, Initial residual = 0.119577, Final residual = 0.0059559, No Iterations 5
DILUPBiCGStab:  Solving for Uy, Initial residual = 0.394772, Final residual = 0.0179731, No Iterations 5
DILUPBiCGStab:  Solving for Uz, Initial residual = 0.750258, Final residual = 0.0342621, No Iterations 5
[INFO] MomentumPredictor: 3952.92 [ms]
[INFO] MatrixAssemblyPI: 571.884 [ms]
[INFO] AdjustPhi: 27.799 [ms]
[INFO] ConstrainPressure: 0.003 [ms]
[INFO] MatrixAssemblyPII: 166.907 [ms]
[OGL LOG][Proc: 0]: global_index_init: 0.222 [ms]
[OGL LOG][Proc: 0]p_local_coeffs: call_update: 0 [ms]
[OGL LOG][Proc: 0]p_non_local_coeffs: call_update: 0 [ms]
[OGL LOG][Proc: 0]p: update_local_matrix_data: 91.221 [ms]
[OGL LOG][Proc: 0]p: update_non_local_matrix_data: 0.301 [ms]
[OGL LOG][Proc: 0]p_matrix: call_update: 61.373 [ms]
[OGL LOG][Proc: 0]p_rhs: call_update: 1.152 [ms]
[OGL LOG][Proc: 0]p: init_precond: 0.06 [ms]
[OGL LOG][StoppingCriterion.H:372] Creating stopping criterion with minIter 1848 frequency 10
[OGL LOG][Proc: 0]p: generate_solver: 0.002 [ms]
[OGL LOG][Proc: 0]p: solve: 13127.8 [ms]
[OGL LOG][Proc: 0]p: copy_x_back: 10.693 [ms]
[OGL LOG][lduLduBase.H:339] 
Statistics:
	Time per iteration: 4247 [mu s]
	Time per residual norm calculation: 381.000000 [mu s]
	Time per iteration and DOF: 0.066359 [ns]
	Retrieve results bandwidth 1.496000 [GByte/s]
[OGL LOG][Proc: 0]p: solve_multi_gpu: 13202.3 [ms]
nonehipGKOCG:  Solving for p, Initial residual = 0.983492, Final residual = 8.26507e-05, No Iterations 3091
[INFO] SolveP: 13312.8 [ms]
time step continuity errors : sum local = 9.23251e-08, global = -1.9069e-21, cumulative = 1.8124e-20
[INFO] ContinuityError: 61.91 [ms]
[INFO] CorrectBoundary: 1.271 [ms]
[INFO] PISOStep: 14330.1 [ms]
[INFO] MatrixAssemblyPI: 550.073 [ms]
[INFO] AdjustPhi: 32.755 [ms]
[INFO] ConstrainPressure: 0.003 [ms]
[INFO] MatrixAssemblyPII: 165.878 [ms]
[OGL LOG][Proc: 0]: global_index_init: 0.226 [ms]
[OGL LOG][Proc: 0]p_local_coeffs: call_update: 0 [ms]
[OGL LOG][Proc: 0]p_non_local_coeffs: call_update: 0 [ms]
[OGL LOG][Proc: 0]p: update_local_matrix_data: 88.596 [ms]
[OGL LOG][Proc: 0]p: update_non_local_matrix_data: 0.625 [ms]
[OGL LOG][Proc: 0]p_matrix: call_update: 43.331 [ms]
[OGL LOG][Proc: 0]p_rhs: call_update: 6.426 [ms]
[OGL LOG][Proc: 0]p: init_precond: 0.062 [ms]
[OGL LOG][StoppingCriterion.H:372] Creating stopping criterion with minIter 1854 frequency 10
[OGL LOG][Proc: 0]p: generate_solver: 0.002 [ms]
[OGL LOG][Proc: 0]p: solve: 14010.4 [ms]
[OGL LOG][Proc: 0]p: copy_x_back: 12.179 [ms]
[OGL LOG][lduLduBase.H:339] 
Statistics:
	Time per iteration: 4547 [mu s]
	Time per residual norm calculation: 378.000000 [mu s]
	Time per iteration and DOF: 0.071047 [ns]
	Retrieve results bandwidth 1.313000 [GByte/s]
[OGL LOG][Proc: 0]p: solve_multi_gpu: 14073.4 [ms]
nonehipGKOCG:  Solving for p, Initial residual = 0.921033, Final residual = 9.73752e-05, No Iterations 3081
[INFO] SolveP: 14181.8 [ms]
time step continuity errors : sum local = 1.09468e-07, global = 7.9399e-22, cumulative = 1.89179e-20
[INFO] ContinuityError: 59.083 [ms]
[INFO] CorrectBoundary: 0.787 [ms]
[INFO] PISOStep: 15180.2 [ms]
[INFO] TimeStep: 34031.5 [ms]
ExecutionTime = 680.35 s  ClockTime = 613 s

Time = 0.0025

Courant Number mean: 0.0461623 max: 4.70266
[INFO] MatrixAssemblyU: 500.987 [ms]
DILUPBiCGStab:  Solving for Ux, Initial residual = 0.142463, Final residual = 0.00682965, No Iterations 5
DILUPBiCGStab:  Solving for Uy, Initial residual = 0.422319, Final residual = 0.0185425, No Iterations 5
DILUPBiCGStab:  Solving for Uz, Initial residual = 0.751608, Final residual = 0.0340318, No Iterations 5
[INFO] MomentumPredictor: 3963.07 [ms]
[INFO] MatrixAssemblyPI: 573.86 [ms]
[INFO] AdjustPhi: 29.247 [ms]
[INFO] ConstrainPressure: 0.002 [ms]
[INFO] MatrixAssemblyPII: 166.581 [ms]
[OGL LOG][Proc: 0]: global_index_init: 0.13 [ms]
[OGL LOG][Proc: 0]p_local_coeffs: call_update: 0 [ms]
[OGL LOG][Proc: 0]p_non_local_coeffs: call_update: 0 [ms]
[OGL LOG][Proc: 0]p: update_local_matrix_data: 91.075 [ms]
[OGL LOG][Proc: 0]p: update_non_local_matrix_data: 0.333 [ms]
[OGL LOG][Proc: 0]p_matrix: call_update: 41.686 [ms]
[OGL LOG][Proc: 0]p_rhs: call_update: 8.615 [ms]
[OGL LOG][Proc: 0]p: init_precond: 0.064 [ms]
[OGL LOG][StoppingCriterion.H:372] Creating stopping criterion with minIter 1848 frequency 10
[OGL LOG][Proc: 0]p: generate_solver: 0.002 [ms]
[OGL LOG][Proc: 0]p: solve: 13221.2 [ms]
[OGL LOG][Proc: 0]p: copy_x_back: 10.876 [ms]
[OGL LOG][lduLduBase.H:339] 
Statistics:
	Time per iteration: 4291 [mu s]
	Time per residual norm calculation: 384.000000 [mu s]
	Time per iteration and DOF: 0.067047 [ns]
	Retrieve results bandwidth 1.471000 [GByte/s]
[OGL LOG][Proc: 0]p: solve_multi_gpu: 13283.5 [ms]
nonehipGKOCG:  Solving for p, Initial residual = 0.984365, Final residual = 9.00904e-05, No Iterations 3081
[INFO] SolveP: 13395 [ms]
time step continuity errors : sum local = 1.20799e-07, global = 2.15881e-21, cumulative = 2.10768e-20
[INFO] ContinuityError: 59.064 [ms]
[INFO] CorrectBoundary: 1.652 [ms]
[INFO] PISOStep: 14413.8 [ms]
[INFO] MatrixAssemblyPI: 558.775 [ms]
[INFO] AdjustPhi: 23.762 [ms]
[INFO] ConstrainPressure: 0.003 [ms]
[INFO] MatrixAssemblyPII: 167.046 [ms]
[OGL LOG][Proc: 0]: global_index_init: 0.06 [ms]
[OGL LOG][Proc: 0]p_local_coeffs: call_update: 0 [ms]
[OGL LOG][Proc: 0]p_non_local_coeffs: call_update: 0 [ms]
[OGL LOG][Proc: 0]p: update_local_matrix_data: 90.857 [ms]
[OGL LOG][Proc: 0]p: update_non_local_matrix_data: 0.389 [ms]
[OGL LOG][Proc: 0]p_matrix: call_update: 51.774 [ms]
[OGL LOG][Proc: 0]p_rhs: call_update: 1.73 [ms]
[OGL LOG][Proc: 0]p: init_precond: 0.063 [ms]
[OGL LOG][StoppingCriterion.H:372] Creating stopping criterion with minIter 1848 frequency 10
[OGL LOG][Proc: 0]p: generate_solver: 0.002 [ms]
[OGL LOG][Proc: 0]p: solve: 13720.4 [ms]
[OGL LOG][Proc: 0]p: copy_x_back: 10.558 [ms]
[OGL LOG][lduLduBase.H:339] 
Statistics:
	Time per iteration: 4453 [mu s]
	Time per residual norm calculation: 388.000000 [mu s]
	Time per iteration and DOF: 0.069578 [ns]
	Retrieve results bandwidth 1.515000 [GByte/s]
[OGL LOG][Proc: 0]p: solve_multi_gpu: 13786 [ms]
nonehipGKOCG:  Solving for p, Initial residual = 0.919154, Final residual = 9.40985e-05, No Iterations 3081
[INFO] SolveP: 13898 [ms]
time step continuity errors : sum local = 1.27355e-07, global = 8.33643e-22, cumulative = 2.19104e-20
[INFO] ContinuityError: 61.038 [ms]
[INFO] CorrectBoundary: 2.495 [ms]
[INFO] PISOStep: 14897.6 [ms]
[INFO] TimeStep: 33836.5 [ms]
ExecutionTime = 718 s  ClockTime = 647 s

End

Finalising parallel run
