/*---------------------------------------------------------------------------*\
| =========                 |                                                 |
| \\      /  F ield         | OpenFOAM: The Open Source CFD Toolbox           |
|  \\    /   O peration     | Version:  2312                                  |
|   \\  /    A nd           | Website:  www.openfoam.com                      |
|    \\/     M anipulation  |                                                 |
\*---------------------------------------------------------------------------*/
Build  : a46b310f-20240104 OPENFOAM=2312 version=v2312
Arch   : "LSB;label=32;scalar=64"
Exec   : decomposePar -force
Date   : Feb 16 2024
Time   : 21:48:31
Host   : i20r02c04s02
PID    : 60675
--> FOAM Warning : 
    From Foam::fileName Foam::cwd_L()
    in file POSIX.C at line 552
    PWD is not the cwd() - reverting to physical description
I/O    : uncollated
--> FOAM Warning : 
    From Foam::fileName Foam::cwd_L()
    in file POSIX.C at line 552
    PWD is not the cwd() - reverting to physical description
Case   : /hppfs/scratch/0B/di35yan/lidDriven3D/workspace/9a001812edc083a359b98af26850b898/case
nProcs : 1
trapFpe: Floating point exception trapping enabled (FOAM_SIGFPE).
fileModificationChecking : Monitoring run-time modified files using timeStampMaster (fileModificationSkew 5, maxFileModificationPolls 20)
allowSystemOperations : Allowing user-supplied system call operations

// * * * * * * * * * * * * * * * * * * * * * * * * * * * * * * * * * * * * * //
Create time

--> FOAM Warning : 
    From void* Foam::dlLibraryTable::openLibrary(const Foam::fileName&, bool)
    in file db/dynamicLibrary/dlLibraryTable/dlLibraryTable.C at line 188
    Could not load "libpetscFoam.so"
libpetscFoam.so: cannot open shared object file: No such file or directory


Decomposing mesh

Create mesh

Calculating distribution of cells
Decomposition method simple [16] (region region0)

Finished decomposition in 4.62 s

Calculating original mesh data

Distributing cells to processors

Distributing faces to processors

Distributing points to processors

Constructing processor meshes

Processor 0
    Number of cells = 500000
    Number of points = 520251
    Number of faces shared with processor 1 = 10000
    Number of faces shared with processor 4 = 5000
    Number of faces shared with processor 8 = 5000
    Number of processor patches = 3
    Number of processor faces = 20000
    Number of boundary faces = 20000

Processor 1
    Number of cells = 500000
    Number of points = 520251
    Number of faces shared with processor 0 = 10000
    Number of faces shared with processor 2 = 10000
    Number of faces shared with processor 5 = 5000
    Number of faces shared with processor 9 = 5000
    Number of processor patches = 4
    Number of processor faces = 30000
    Number of boundary faces = 10000

Processor 2
    Number of cells = 500000
    Number of points = 520251
    Number of faces shared with processor 1 = 10000
    Number of faces shared with processor 3 = 10000
    Number of faces shared with processor 6 = 5000
    Number of faces shared with processor 10 = 5000
    Number of processor patches = 4
    Number of processor faces = 30000
    Number of boundary faces = 10000

Processor 3
    Number of cells = 500000
    Number of points = 520251
    Number of faces shared with processor 2 = 10000
    Number of faces shared with processor 7 = 5000
    Number of faces shared with processor 11 = 5000
    Number of processor patches = 3
    Number of processor faces = 20000
    Number of boundary faces = 20000

Processor 4
    Number of cells = 500000
    Number of points = 520251
    Number of faces shared with processor 0 = 5000
    Number of faces shared with processor 5 = 10000
    Number of faces shared with processor 12 = 5000
    Number of processor patches = 3
    Number of processor faces = 20000
    Number of boundary faces = 20000

Processor 5
    Number of cells = 500000
    Number of points = 520251
    Number of faces shared with processor 1 = 5000
    Number of faces shared with processor 4 = 10000
    Number of faces shared with processor 6 = 10000
    Number of faces shared with processor 13 = 5000
    Number of processor patches = 4
    Number of processor faces = 30000
    Number of boundary faces = 10000

Processor 6
    Number of cells = 500000
    Number of points = 520251
    Number of faces shared with processor 2 = 5000
    Number of faces shared with processor 5 = 10000
    Number of faces shared with processor 7 = 10000
    Number of faces shared with processor 14 = 5000
    Number of processor patches = 4
    Number of processor faces = 30000
    Number of boundary faces = 10000

Processor 7
    Number of cells = 500000
    Number of points = 520251
    Number of faces shared with processor 3 = 5000
    Number of faces shared with processor 6 = 10000
    Number of faces shared with processor 15 = 5000
    Number of processor patches = 3
    Number of processor faces = 20000
    Number of boundary faces = 20000

Processor 8
    Number of cells = 500000
    Number of points = 520251
    Number of faces shared with processor 0 = 5000
    Number of faces shared with processor 9 = 10000
    Number of faces shared with processor 12 = 5000
    Number of processor patches = 3
    Number of processor faces = 20000
    Number of boundary faces = 20000

Processor 9
    Number of cells = 500000
    Number of points = 520251
    Number of faces shared with processor 1 = 5000
    Number of faces shared with processor 8 = 10000
    Number of faces shared with processor 10 = 10000
    Number of faces shared with processor 13 = 5000
    Number of processor patches = 4
    Number of processor faces = 30000
    Number of boundary faces = 10000

Processor 10
    Number of cells = 500000
    Number of points = 520251
    Number of faces shared with processor 2 = 5000
    Number of faces shared with processor 9 = 10000
    Number of faces shared with processor 11 = 10000
    Number of faces shared with processor 14 = 5000
    Number of processor patches = 4
    Number of processor faces = 30000
    Number of boundary faces = 10000

Processor 11
    Number of cells = 500000
    Number of points = 520251
    Number of faces shared with processor 3 = 5000
    Number of faces shared with processor 10 = 10000
    Number of faces shared with processor 15 = 5000
    Number of processor patches = 3
    Number of processor faces = 20000
    Number of boundary faces = 20000

Processor 12
    Number of cells = 500000
    Number of points = 520251
    Number of faces shared with processor 4 = 5000
    Number of faces shared with processor 8 = 5000
    Number of faces shared with processor 13 = 10000
    Number of processor patches = 3
    Number of processor faces = 20000
    Number of boundary faces = 20000

Processor 13
    Number of cells = 500000
    Number of points = 520251
    Number of faces shared with processor 5 = 5000
    Number of faces shared with processor 9 = 5000
    Number of faces shared with processor 12 = 10000
    Number of faces shared with processor 14 = 10000
    Number of processor patches = 4
    Number of processor faces = 30000
    Number of boundary faces = 10000

Processor 14
    Number of cells = 500000
    Number of points = 520251
    Number of faces shared with processor 6 = 5000
    Number of faces shared with processor 10 = 5000
    Number of faces shared with processor 13 = 10000
    Number of faces shared with processor 15 = 10000
    Number of processor patches = 4
    Number of processor faces = 30000
    Number of boundary faces = 10000

Processor 15
    Number of cells = 500000
    Number of points = 520251
    Number of faces shared with processor 7 = 5000
    Number of faces shared with processor 11 = 5000
    Number of faces shared with processor 14 = 10000
    Number of processor patches = 3
    Number of processor faces = 20000
    Number of boundary faces = 20000

Number of processor faces = 200000
Max number of cells = 500000 (0% above average 500000)
Max number of processor patches = 4 (14.2857% above average 3.5)
Max number of faces between processors = 30000 (20% above average 25000)

Time = 0

Processor 0: field transfer
--> FOAM Warning : 
    From void* Foam::dlLibraryTable::openLibrary(const Foam::fileName&, bool)
    in file db/dynamicLibrary/dlLibraryTable/dlLibraryTable.C at line 188
    Could not load "libpetscFoam.so"
libpetscFoam.so: cannot open shared object file: No such file or directory
Processor 1: field transfer
--> FOAM Warning : 
    From void* Foam::dlLibraryTable::openLibrary(const Foam::fileName&, bool)
    in file db/dynamicLibrary/dlLibraryTable/dlLibraryTable.C at line 188
    Could not load "libpetscFoam.so"
libpetscFoam.so: cannot open shared object file: No such file or directory
Processor 2: field transfer
--> FOAM Warning : 
    From void* Foam::dlLibraryTable::openLibrary(const Foam::fileName&, bool)
    in file db/dynamicLibrary/dlLibraryTable/dlLibraryTable.C at line 188
    Could not load "libpetscFoam.so"
libpetscFoam.so: cannot open shared object file: No such file or directory
Processor 3: field transfer
--> FOAM Warning : 
    From void* Foam::dlLibraryTable::openLibrary(const Foam::fileName&, bool)
    in file db/dynamicLibrary/dlLibraryTable/dlLibraryTable.C at line 188
    Could not load "libpetscFoam.so"
libpetscFoam.so: cannot open shared object file: No such file or directory
Processor 4: field transfer
--> FOAM Warning : 
    From void* Foam::dlLibraryTable::openLibrary(const Foam::fileName&, bool)
    in file db/dynamicLibrary/dlLibraryTable/dlLibraryTable.C at line 188
    Could not load "libpetscFoam.so"
libpetscFoam.so: cannot open shared object file: No such file or directory
Processor 5: field transfer
--> FOAM Warning : 
    From void* Foam::dlLibraryTable::openLibrary(const Foam::fileName&, bool)
    in file db/dynamicLibrary/dlLibraryTable/dlLibraryTable.C at line 188
    Could not load "libpetscFoam.so"
libpetscFoam.so: cannot open shared object file: No such file or directory
Processor 6: field transfer
--> FOAM Warning : 
    From void* Foam::dlLibraryTable::openLibrary(const Foam::fileName&, bool)
    in file db/dynamicLibrary/dlLibraryTable/dlLibraryTable.C at line 188
    Could not load "libpetscFoam.so"
libpetscFoam.so: cannot open shared object file: No such file or directory
Processor 7: field transfer
--> FOAM Warning : 
    From void* Foam::dlLibraryTable::openLibrary(const Foam::fileName&, bool)
    in file db/dynamicLibrary/dlLibraryTable/dlLibraryTable.C at line 188
    Could not load "libpetscFoam.so"
libpetscFoam.so: cannot open shared object file: No such file or directory
Processor 8: field transfer
--> FOAM Warning : 
    From void* Foam::dlLibraryTable::openLibrary(const Foam::fileName&, bool)
    in file db/dynamicLibrary/dlLibraryTable/dlLibraryTable.C at line 188
    Could not load "libpetscFoam.so"
libpetscFoam.so: cannot open shared object file: No such file or directory
Processor 9: field transfer
--> FOAM Warning : 
    From void* Foam::dlLibraryTable::openLibrary(const Foam::fileName&, bool)
    in file db/dynamicLibrary/dlLibraryTable/dlLibraryTable.C at line 188
    Could not load "libpetscFoam.so"
libpetscFoam.so: cannot open shared object file: No such file or directory
Processor 10: field transfer
--> FOAM Warning : 
    From void* Foam::dlLibraryTable::openLibrary(const Foam::fileName&, bool)
    in file db/dynamicLibrary/dlLibraryTable/dlLibraryTable.C at line 188
    Could not load "libpetscFoam.so"
libpetscFoam.so: cannot open shared object file: No such file or directory
Processor 11: field transfer
--> FOAM Warning : 
    From void* Foam::dlLibraryTable::openLibrary(const Foam::fileName&, bool)
    in file db/dynamicLibrary/dlLibraryTable/dlLibraryTable.C at line 188
    Could not load "libpetscFoam.so"
libpetscFoam.so: cannot open shared object file: No such file or directory
Processor 12: field transfer
--> FOAM Warning : 
    From void* Foam::dlLibraryTable::openLibrary(const Foam::fileName&, bool)
    in file db/dynamicLibrary/dlLibraryTable/dlLibraryTable.C at line 188
    Could not load "libpetscFoam.so"
libpetscFoam.so: cannot open shared object file: No such file or directory
Processor 13: field transfer
--> FOAM Warning : 
    From void* Foam::dlLibraryTable::openLibrary(const Foam::fileName&, bool)
    in file db/dynamicLibrary/dlLibraryTable/dlLibraryTable.C at line 188
    Could not load "libpetscFoam.so"
libpetscFoam.so: cannot open shared object file: No such file or directory
Processor 14: field transfer
--> FOAM Warning : 
    From void* Foam::dlLibraryTable::openLibrary(const Foam::fileName&, bool)
    in file db/dynamicLibrary/dlLibraryTable/dlLibraryTable.C at line 188
    Could not load "libpetscFoam.so"
libpetscFoam.so: cannot open shared object file: No such file or directory
Processor 15: field transfer
--> FOAM Warning : 
    From void* Foam::dlLibraryTable::openLibrary(const Foam::fileName&, bool)
    in file db/dynamicLibrary/dlLibraryTable/dlLibraryTable.C at line 188
    Could not load "libpetscFoam.so"
libpetscFoam.so: cannot open shared object file: No such file or directory

End

