/*---------------------------------------------------------------------------*\
| =========                 |                                                 |
| \\      /  F ield         | OpenFOAM: The Open Source CFD Toolbox           |
|  \\    /   O peration     | Version:  2306                                  |
|   \\  /    A nd           | Website:  www.openfoam.com                      |
|    \\/     M anipulation  |                                                 |
\*---------------------------------------------------------------------------*/
Build  : c423ebec-20231012 OPENFOAM=2306 version=v2306
Arch   : "LSB;label=32;scalar=64"
Exec   : icoFoam -parallel -case /hkfs/work/workspace/scratch/eq4036-l3d/workspace/363323470301c0c2724e8781ab7b0920/case
Date   : Dec 30 2023
Time   : 09:52:29
Host   : hkn0818.localdomain
PID    : 2071679
I/O    : uncollated
Case   : /hkfs/work/workspace/scratch/eq4036-l3d/workspace/363323470301c0c2724e8781ab7b0920/case
nProcs : 8
Hosts  :
(
    (hkn0818.localdomain 8)
)
Pstream initialized with:
    floatTransfer      : false
    nProcsSimpleSum    : 0
    nonBlockingExchange: 0 (tuning: 0)
    exchange algorithm : -1
    commsType          : nonBlocking
    polling iterations : 0
trapFpe: Floating point exception trapping enabled (FOAM_SIGFPE).
fileModificationChecking : Monitoring run-time modified files using timeStampMaster (fileModificationSkew 5, maxFileModificationPolls 20)
allowSystemOperations : Allowing user-supplied system call operations

// * * * * * * * * * * * * * * * * * * * * * * * * * * * * * * * * * * * * * //
Create time

--> FOAM Warning : 
    From void* Foam::dlLibraryTable::openLibrary(const Foam::fileName&, bool)
    in file db/dynamicLibrary/dlLibraryTable/dlLibraryTable.C at line 188
    Could not load "libpetscFoam.so"
libpetscFoam.so: cannot open shared object file: No such file or directory
Create mesh for time = 0


PISO: Operating solver in PISO mode

Reading transportProperties

Reading field p

Reading field U

Reading/calculating face flux field phi


Starting time loop

Time = 0.0005

Courant Number mean: 8.62851e-18 max: 8.67362e-15
[INFO] MatrixAssemblyU: 26.502 [ms]
DILUPBiCGStab:  Solving for Ux, Initial residual = 1, Final residual = 0.0025649, No Iterations 5
DILUPBiCGStab:  Solving for Uy:  solution singularity
DILUPBiCGStab:  Solving for Uz:  solution singularity
[INFO] MomentumPredictor: 91.514 [ms]
[INFO] MatrixAssemblyPI: 22.458 [ms]
[INFO] AdjustPhi: 1.306 [ms]
[INFO] ConstrainPressure: 0.004 [ms]
[INFO] MatrixAssemblyPII: 6.477 [ms]
[OGL LOG][lduLduBase.H:119] Initialising OGL
	OGL commit:  a2fc0ff+
	Branch: feat/on_device_permute 
	Build type: Release
	Ginkgo version: 1.7.0 ( develop)
	Ginkgo commit: sparse-communicator
	MPI is GPU aware: 1
	Forces host buffer based communication: 0
	CPU ranks per GPU: 1
	Matrix format: Ell
	End OGL_INFO
[OGL LOG][Proc: 0]: global_index_init: 7.031 [ms]
[OGL LOG][Proc: 0]p_local_cols: call_init: 1.151 [ms]
[OGL LOG][Proc: 0]p_local_rows: call_init: 0.433 [ms]
[OGL LOG][Proc: 0]p_local_ldu_map: call_init: 0.384 [ms]
[OGL LOG][Proc: 0]p_local_coeffs: call_init: 3.634 [ms]
[OGL LOG][Proc: 0]p_non_local_cols: call_init: 0.197 [ms]
[OGL LOG][Proc: 0]p_non_local_rows: call_init: 0.293 [ms]
[OGL LOG][Proc: 0]p_non_local_ldu_map: call_init: 0.267 [ms]
[OGL LOG][Proc: 0]p_non_local_coeffs: call_init: 0.279 [ms]
[OGL LOG][Proc: 0]p: init_local_sparsity_pattern: 35.365 [ms]
[OGL LOG][Proc: 0]p: init_non_local_sparsity_pattern: 0.793 [ms]
[OGL LOG][Proc: 0]p: update_local_matrix_data: 46.449 [ms]
[OGL LOG][Proc: 0]p: update_non_local_matrix_data: 0.08 [ms]
[OGL LOG][Proc: 0]device_partition: call_init: 0.406 [ms]
[OGL LOG][Proc: 0]p_matrix: call_init: 14.236 [ms]
[OGL LOG][Proc: 0]p_rhs: call_init: 0.998 [ms]
[OGL LOG][Proc: 0]p_solution: call_init: 0.712 [ms]
[OGL LOG][Preconditioner.H:121] Generate preconditioner BJ MaxBlockSize 1
[OGL LOG][Proc: 0]p: init_precond: 13.578 [ms]
[OGL LOG][StoppingCriterion.H:237] Creating stopping criterion with minIter 0 frequency 1
[OGL LOG][Proc: 0]p: generate_solver: 0.025 [ms]
[OGL LOG][Proc: 0]p: solve: 3684.95 [ms]
[OGL LOG][Proc: 0]p: copy_x_back: 0.637 [ms]
[OGL LOG][lduLduBase.H:330] 
Statistics:
	Time per iteration: 4718 [mu s]
	Time per residual norm calculation: 4784.000000 [mu s]
	Time per iteration and DOF: 4.718000 [ns]
	Retrieve results bandwidth 1.569000 [GByte/s]
[OGL LOG][Proc: 0]p: solve_multi_gpu: 3717.29 [ms]
BJcudaGKOCG:  Solving for p, Initial residual = 1, Final residual = 9.83377e-05, No Iterations 781
[INFO] SolveP: 5241.28 [ms]
time step continuity errors : sum local = 2.11157e-08, global = -3.03639e-21, cumulative = -3.03639e-21
[INFO] ContinuityError: 3.01 [ms]
[INFO] CorrectBoundary: 0.401 [ms]
[INFO] PISOStep: 5285.62 [ms]
[INFO] MatrixAssemblyPI: 23.035 [ms]
[INFO] AdjustPhi: 0.982 [ms]
[INFO] ConstrainPressure: 0.002 [ms]
[INFO] MatrixAssemblyPII: 7.297 [ms]
[OGL LOG][Proc: 0]: global_index_init: 0.028 [ms]
[OGL LOG][Proc: 0]p_local_coeffs: call_update: 0.001 [ms]
[OGL LOG][Proc: 0]p_non_local_coeffs: call_update: 0 [ms]
[OGL LOG][Proc: 0]p: update_local_matrix_data: 4.935 [ms]
[OGL LOG][Proc: 0]p: update_non_local_matrix_data: 0.074 [ms]
[OGL LOG][Proc: 0]p: regenerate_distributed_matrix: 17.49 [ms]
[OGL LOG][Proc: 0]p_matrix: call_update: 18.047 [ms]
[OGL LOG][Proc: 0]p_rhs: call_update: 0.839 [ms]
[OGL LOG][Preconditioner.H:121] Generate preconditioner BJ MaxBlockSize 1
[OGL LOG][Proc: 0]p: init_precond: 0.253 [ms]
[OGL LOG][StoppingCriterion.H:237] Creating stopping criterion with minIter 0 frequency 1
[OGL LOG][Proc: 0]p: generate_solver: 0.001 [ms]
[OGL LOG][Proc: 0]p: solve: 3549.67 [ms]
[OGL LOG][Proc: 0]p: copy_x_back: 0.603 [ms]
[OGL LOG][lduLduBase.H:330] 
Statistics:
	Time per iteration: 4615 [mu s]
	Time per residual norm calculation: 1267.000000 [mu s]
	Time per iteration and DOF: 4.615000 [ns]
	Retrieve results bandwidth 1.658000 [GByte/s]
[OGL LOG][Proc: 0]p: solve_multi_gpu: 3571.3 [ms]
BJcudaGKOCG:  Solving for p, Initial residual = 0.731053, Final residual = 9.84031e-05, No Iterations 769
[INFO] SolveP: 3577.99 [ms]
time step continuity errors : sum local = 2.79018e-08, global = -1.51475e-21, cumulative = -4.55114e-21
[INFO] ContinuityError: 3.231 [ms]
[INFO] CorrectBoundary: 0.74 [ms]
[INFO] PISOStep: 3624.53 [ms]
[INFO] TimeStep: 9032.06 [ms]
ExecutionTime = 8.5 s  ClockTime = 10 s

Time = 0.001

Courant Number mean: 0.0215341 max: 0.377097
[INFO] MatrixAssemblyU: 20.264 [ms]
DILUPBiCGStab:  Solving for Ux, Initial residual = 0.150351, Final residual = 0.00113128, No Iterations 5
DILUPBiCGStab:  Solving for Uy, Initial residual = 0.368163, Final residual = 0.00224403, No Iterations 5
DILUPBiCGStab:  Solving for Uz, Initial residual = 0.988632, Final residual = 0.00606224, No Iterations 5
[INFO] MomentumPredictor: 174.528 [ms]
[INFO] MatrixAssemblyPI: 23.614 [ms]
[INFO] AdjustPhi: 0.997 [ms]
[INFO] ConstrainPressure: 0.003 [ms]
[INFO] MatrixAssemblyPII: 6.751 [ms]
[OGL LOG][Proc: 0]: global_index_init: 0.012 [ms]
[OGL LOG][Proc: 0]p_local_coeffs: call_update: 0 [ms]
[OGL LOG][Proc: 0]p_non_local_coeffs: call_update: 0 [ms]
[OGL LOG][Proc: 0]p: update_local_matrix_data: 5.5 [ms]
[OGL LOG][Proc: 0]p: update_non_local_matrix_data: 0.066 [ms]
[OGL LOG][Proc: 0]p: regenerate_distributed_matrix: 17.888 [ms]
[OGL LOG][Proc: 0]p_matrix: call_update: 18.484 [ms]
[OGL LOG][Proc: 0]p_rhs: call_update: 0.577 [ms]
[OGL LOG][Preconditioner.H:121] Generate preconditioner BJ MaxBlockSize 1
[OGL LOG][Proc: 0]p: init_precond: 0.397 [ms]
[OGL LOG][StoppingCriterion.H:237] Creating stopping criterion with minIter 461 frequency 10
[OGL LOG][Proc: 0]p: generate_solver: 0.001 [ms]
[OGL LOG][Proc: 0]p: solve: 2634.32 [ms]
[OGL LOG][Proc: 0]p: copy_x_back: 0.728 [ms]
[OGL LOG][lduLduBase.H:330] 
Statistics:
	Time per iteration: 3416 [mu s]
	Time per residual norm calculation: 1248.000000 [mu s]
	Time per iteration and DOF: 3.416000 [ns]
	Retrieve results bandwidth 1.373000 [GByte/s]
[OGL LOG][Proc: 0]p: solve_multi_gpu: 2655.82 [ms]
BJcudaGKOCG:  Solving for p, Initial residual = 0.690592, Final residual = 7.02589e-05, No Iterations 771
[INFO] SolveP: 2662.82 [ms]
time step continuity errors : sum local = 2.22915e-08, global = -3.50222e-21, cumulative = -8.05336e-21
[INFO] ContinuityError: 3.277 [ms]
[INFO] CorrectBoundary: 0.132 [ms]
[INFO] PISOStep: 2708.85 [ms]
[INFO] MatrixAssemblyPI: 21.964 [ms]
[INFO] AdjustPhi: 0.981 [ms]
[INFO] ConstrainPressure: 0.002 [ms]
[INFO] MatrixAssemblyPII: 7.327 [ms]
[OGL LOG][Proc: 0]: global_index_init: 0.012 [ms]
[OGL LOG][Proc: 0]p_local_coeffs: call_update: 0 [ms]
[OGL LOG][Proc: 0]p_non_local_coeffs: call_update: 0 [ms]
[OGL LOG][Proc: 0]p: update_local_matrix_data: 4.995 [ms]
[OGL LOG][Proc: 0]p: update_non_local_matrix_data: 0.071 [ms]
[OGL LOG][Proc: 0]p: regenerate_distributed_matrix: 19.278 [ms]
[OGL LOG][Proc: 0]p_matrix: call_update: 19.91 [ms]
[OGL LOG][Proc: 0]p_rhs: call_update: 0.453 [ms]
[OGL LOG][Preconditioner.H:121] Generate preconditioner BJ MaxBlockSize 1
[OGL LOG][Proc: 0]p: init_precond: 0.395 [ms]
[OGL LOG][StoppingCriterion.H:237] Creating stopping criterion with minIter 462 frequency 12
[OGL LOG][Proc: 0]p: generate_solver: 0.001 [ms]
[OGL LOG][Proc: 0]p: solve: 2631.62 [ms]
[OGL LOG][Proc: 0]p: copy_x_back: 0.365 [ms]
[OGL LOG][lduLduBase.H:330] 
Statistics:
	Time per iteration: 3422 [mu s]
	Time per residual norm calculation: 1253.000000 [mu s]
	Time per iteration and DOF: 3.422000 [ns]
	Retrieve results bandwidth 2.739000 [GByte/s]
[OGL LOG][Proc: 0]p: solve_multi_gpu: 2653.84 [ms]
BJcudaGKOCG:  Solving for p, Initial residual = 0.619769, Final residual = 6.51608e-05, No Iterations 769
[INFO] SolveP: 2661.02 [ms]
time step continuity errors : sum local = 2.10864e-08, global = -3.05779e-22, cumulative = -8.35914e-21
[INFO] ContinuityError: 4.948 [ms]
[INFO] CorrectBoundary: 0.888 [ms]
[INFO] PISOStep: 2705.79 [ms]
[INFO] TimeStep: 5614.29 [ms]
ExecutionTime = 14.11 s  ClockTime = 15 s

Time = 0.0015

Courant Number mean: 0.0324926 max: 0.441243
[INFO] MatrixAssemblyU: 18.132 [ms]
DILUPBiCGStab:  Solving for Ux, Initial residual = 0.0531052, Final residual = 0.000326424, No Iterations 5
DILUPBiCGStab:  Solving for Uy, Initial residual = 0.12468, Final residual = 0.000558078, No Iterations 5
DILUPBiCGStab:  Solving for Uz, Initial residual = 0.574969, Final residual = 0.00311208, No Iterations 5
[INFO] MomentumPredictor: 165.004 [ms]
[INFO] MatrixAssemblyPI: 22.736 [ms]
[INFO] AdjustPhi: 2.482 [ms]
[INFO] ConstrainPressure: 0.002 [ms]
[INFO] MatrixAssemblyPII: 6.284 [ms]
[OGL LOG][Proc: 0]: global_index_init: 0.01 [ms]
[OGL LOG][Proc: 0]p_local_coeffs: call_update: 0 [ms]
[OGL LOG][Proc: 0]p_non_local_coeffs: call_update: 0 [ms]
[OGL LOG][Proc: 0]p: update_local_matrix_data: 4.615 [ms]
[OGL LOG][Proc: 0]p: update_non_local_matrix_data: 0.049 [ms]
[OGL LOG][Proc: 0]p: regenerate_distributed_matrix: 17.256 [ms]
[OGL LOG][Proc: 0]p_matrix: call_update: 17.95 [ms]
[OGL LOG][Proc: 0]p_rhs: call_update: 0.202 [ms]
[OGL LOG][Preconditioner.H:121] Generate preconditioner BJ MaxBlockSize 1
[OGL LOG][Proc: 0]p: init_precond: 0.402 [ms]
[OGL LOG][StoppingCriterion.H:237] Creating stopping criterion with minIter 461 frequency 12
[OGL LOG][Proc: 0]p: generate_solver: 0.002 [ms]
[OGL LOG][Proc: 0]p: solve: 2630.65 [ms]
[OGL LOG][Proc: 0]p: copy_x_back: 0.725 [ms]
[OGL LOG][lduLduBase.H:330] 
Statistics:
	Time per iteration: 3420 [mu s]
	Time per residual norm calculation: 1260.000000 [mu s]
	Time per iteration and DOF: 3.420000 [ns]
	Retrieve results bandwidth 1.379000 [GByte/s]
[OGL LOG][Proc: 0]p: solve_multi_gpu: 2651.84 [ms]
BJcudaGKOCG:  Solving for p, Initial residual = 0.632496, Final residual = 5.22022e-05, No Iterations 769
[INFO] SolveP: 2657.91 [ms]
time step continuity errors : sum local = 1.19572e-08, global = 1.14639e-21, cumulative = -7.21275e-21
[INFO] ContinuityError: 2.614 [ms]
[INFO] CorrectBoundary: 0.131 [ms]
[INFO] PISOStep: 2706.01 [ms]
[INFO] MatrixAssemblyPI: 21.485 [ms]
[INFO] AdjustPhi: 0.974 [ms]
[INFO] ConstrainPressure: 0.002 [ms]
[INFO] MatrixAssemblyPII: 7.127 [ms]
[OGL LOG][Proc: 0]: global_index_init: 0.014 [ms]
[OGL LOG][Proc: 0]p_local_coeffs: call_update: 0 [ms]
[OGL LOG][Proc: 0]p_non_local_coeffs: call_update: 0 [ms]
[OGL LOG][Proc: 0]p: update_local_matrix_data: 5.127 [ms]
[OGL LOG][Proc: 0]p: update_non_local_matrix_data: 0.075 [ms]
[OGL LOG][Proc: 0]p: regenerate_distributed_matrix: 17.82 [ms]
[OGL LOG][Proc: 0]p_matrix: call_update: 18.44 [ms]
[OGL LOG][Proc: 0]p_rhs: call_update: 0.278 [ms]
[OGL LOG][Preconditioner.H:121] Generate preconditioner BJ MaxBlockSize 1
[OGL LOG][Proc: 0]p: init_precond: 0.386 [ms]
[OGL LOG][StoppingCriterion.H:237] Creating stopping criterion with minIter 461 frequency 12
[OGL LOG][Proc: 0]p: generate_solver: 0.001 [ms]
[OGL LOG][Proc: 0]p: solve: 2643.87 [ms]
[OGL LOG][Proc: 0]p: copy_x_back: 0.753 [ms]
[OGL LOG][lduLduBase.H:330] 
Statistics:
	Time per iteration: 3438 [mu s]
	Time per residual norm calculation: 1257.000000 [mu s]
	Time per iteration and DOF: 3.438000 [ns]
	Retrieve results bandwidth 1.328000 [GByte/s]
[OGL LOG][Proc: 0]p: solve_multi_gpu: 2665.12 [ms]
BJcudaGKOCG:  Solving for p, Initial residual = 0.579916, Final residual = 4.70175e-05, No Iterations 769
[INFO] SolveP: 2671.83 [ms]
time step continuity errors : sum local = 1.04841e-08, global = -5.0458e-22, cumulative = -7.71733e-21
[INFO] ContinuityError: 3.594 [ms]
[INFO] CorrectBoundary: 0.117 [ms]
[INFO] PISOStep: 2716.86 [ms]
[INFO] TimeStep: 5609.8 [ms]
ExecutionTime = 19.71 s  ClockTime = 21 s

Time = 0.002

Courant Number mean: 0.0388942 max: 0.452945
[INFO] MatrixAssemblyU: 20.798 [ms]
DILUPBiCGStab:  Solving for Ux, Initial residual = 0.0318963, Final residual = 0.000167499, No Iterations 5
DILUPBiCGStab:  Solving for Uy, Initial residual = 0.0813663, Final residual = 0.000384951, No Iterations 5
DILUPBiCGStab:  Solving for Uz, Initial residual = 0.273719, Final residual = 0.00117649, No Iterations 5
[INFO] MomentumPredictor: 160.415 [ms]
[INFO] MatrixAssemblyPI: 20.695 [ms]
[INFO] AdjustPhi: 1.047 [ms]
[INFO] ConstrainPressure: 0.003 [ms]
[INFO] MatrixAssemblyPII: 6.353 [ms]
[OGL LOG][Proc: 0]: global_index_init: 0.014 [ms]
[OGL LOG][Proc: 0]p_local_coeffs: call_update: 0 [ms]
[OGL LOG][Proc: 0]p_non_local_coeffs: call_update: 0 [ms]
[OGL LOG][Proc: 0]p: update_local_matrix_data: 5.481 [ms]
[OGL LOG][Proc: 0]p: update_non_local_matrix_data: 0.074 [ms]
[OGL LOG][Proc: 0]p: regenerate_distributed_matrix: 17.946 [ms]
[OGL LOG][Proc: 0]p_matrix: call_update: 18.651 [ms]
[OGL LOG][Proc: 0]p_rhs: call_update: 0.227 [ms]
[OGL LOG][Preconditioner.H:121] Generate preconditioner BJ MaxBlockSize 1
[OGL LOG][Proc: 0]p: init_precond: 0.399 [ms]
[OGL LOG][StoppingCriterion.H:237] Creating stopping criterion with minIter 461 frequency 12
[OGL LOG][Proc: 0]p: generate_solver: 0.002 [ms]
[OGL LOG][Proc: 0]p: solve: 2585.79 [ms]
[OGL LOG][Proc: 0]p: copy_x_back: 0.406 [ms]
[OGL LOG][lduLduBase.H:330] 
Statistics:
	Time per iteration: 3415 [mu s]
	Time per residual norm calculation: 1401.000000 [mu s]
	Time per iteration and DOF: 3.415000 [ns]
	Retrieve results bandwidth 2.463000 [GByte/s]
[OGL LOG][Proc: 0]p: solve_multi_gpu: 2606.6 [ms]
BJcudaGKOCG:  Solving for p, Initial residual = 0.41246, Final residual = 7.8488e-05, No Iterations 757
[INFO] SolveP: 2613.62 [ms]
time step continuity errors : sum local = 1.53494e-08, global = -3.12638e-21, cumulative = -1.08437e-20
[INFO] ContinuityError: 4.96 [ms]
[INFO] CorrectBoundary: 0.982 [ms]
[INFO] PISOStep: 2656.34 [ms]
[INFO] MatrixAssemblyPI: 21.547 [ms]
[INFO] AdjustPhi: 1.099 [ms]
[INFO] ConstrainPressure: 0.002 [ms]
[INFO] MatrixAssemblyPII: 6.295 [ms]
[OGL LOG][Proc: 0]: global_index_init: 0.026 [ms]
[OGL LOG][Proc: 0]p_local_coeffs: call_update: 0 [ms]
[OGL LOG][Proc: 0]p_non_local_coeffs: call_update: 0 [ms]
[OGL LOG][Proc: 0]p: update_local_matrix_data: 4.844 [ms]
[OGL LOG][Proc: 0]p: update_non_local_matrix_data: 0.051 [ms]
[OGL LOG][Proc: 0]p: regenerate_distributed_matrix: 16.051 [ms]
[OGL LOG][Proc: 0]p_matrix: call_update: 16.581 [ms]
[OGL LOG][Proc: 0]p_rhs: call_update: 0.61 [ms]
[OGL LOG][Preconditioner.H:121] Generate preconditioner BJ MaxBlockSize 1
[OGL LOG][Proc: 0]p: init_precond: 0.238 [ms]
[OGL LOG][StoppingCriterion.H:237] Creating stopping criterion with minIter 454 frequency 12
[OGL LOG][Proc: 0]p: generate_solver: 0.001 [ms]
[OGL LOG][Proc: 0]p: solve: 2582.79 [ms]
[OGL LOG][Proc: 0]p: copy_x_back: 0.764 [ms]
[OGL LOG][lduLduBase.H:330] 
Statistics:
	Time per iteration: 3411 [mu s]
	Time per residual norm calculation: 1258.000000 [mu s]
	Time per iteration and DOF: 3.411000 [ns]
	Retrieve results bandwidth 1.308000 [GByte/s]
[OGL LOG][Proc: 0]p: solve_multi_gpu: 2602.78 [ms]
BJcudaGKOCG:  Solving for p, Initial residual = 0.350589, Final residual = 6.34959e-05, No Iterations 757
[INFO] SolveP: 2609.32 [ms]
time step continuity errors : sum local = 1.25412e-08, global = -6.06602e-21, cumulative = -1.69097e-20
[INFO] ContinuityError: 2.833 [ms]
[INFO] CorrectBoundary: 0.121 [ms]
[INFO] PISOStep: 2653.4 [ms]
[INFO] TimeStep: 5494.83 [ms]
ExecutionTime = 25.2 s  ClockTime = 26 s

Time = 0.0025

Courant Number mean: 0.043947 max: 0.459624
[INFO] MatrixAssemblyU: 20.886 [ms]
DILUPBiCGStab:  Solving for Ux, Initial residual = 0.0235043, Final residual = 0.000104803, No Iterations 5
DILUPBiCGStab:  Solving for Uy, Initial residual = 0.0515221, Final residual = 0.00023504, No Iterations 5
DILUPBiCGStab:  Solving for Uz, Initial residual = 0.0982124, Final residual = 0.000482015, No Iterations 5
[INFO] MomentumPredictor: 159.191 [ms]
[INFO] MatrixAssemblyPI: 20.607 [ms]
[INFO] AdjustPhi: 0.937 [ms]
[INFO] ConstrainPressure: 0.002 [ms]
[INFO] MatrixAssemblyPII: 6.344 [ms]
[OGL LOG][Proc: 0]: global_index_init: 0.012 [ms]
[OGL LOG][Proc: 0]p_local_coeffs: call_update: 0 [ms]
[OGL LOG][Proc: 0]p_non_local_coeffs: call_update: 0 [ms]
[OGL LOG][Proc: 0]p: update_local_matrix_data: 5.064 [ms]
[OGL LOG][Proc: 0]p: update_non_local_matrix_data: 0.075 [ms]
[OGL LOG][Proc: 0]p: regenerate_distributed_matrix: 16.561 [ms]
[OGL LOG][Proc: 0]p_matrix: call_update: 17.146 [ms]
[OGL LOG][Proc: 0]p_rhs: call_update: 0.308 [ms]
[OGL LOG][Preconditioner.H:121] Generate preconditioner BJ MaxBlockSize 1
[OGL LOG][Proc: 0]p: init_precond: 0.397 [ms]
[OGL LOG][StoppingCriterion.H:237] Creating stopping criterion with minIter 454 frequency 12
[OGL LOG][Proc: 0]p: generate_solver: 0.001 [ms]
[OGL LOG][Proc: 0]p: solve: 2478.89 [ms]
[OGL LOG][Proc: 0]p: copy_x_back: 0.37 [ms]
[OGL LOG][lduLduBase.H:330] 
Statistics:
	Time per iteration: 3438 [mu s]
	Time per residual norm calculation: 1260.000000 [mu s]
	Time per iteration and DOF: 3.438000 [ns]
	Retrieve results bandwidth 2.702000 [GByte/s]
[OGL LOG][Proc: 0]p: solve_multi_gpu: 2498.44 [ms]
BJcudaGKOCG:  Solving for p, Initial residual = 0.314777, Final residual = 8.26407e-05, No Iterations 721
[INFO] SolveP: 2505.37 [ms]
time step continuity errors : sum local = 1.33451e-08, global = -4.98101e-21, cumulative = -2.18907e-20
[INFO] ContinuityError: 4.937 [ms]
[INFO] CorrectBoundary: 0.907 [ms]
[INFO] PISOStep: 2547.92 [ms]
[INFO] MatrixAssemblyPI: 21.061 [ms]
[INFO] AdjustPhi: 1.734 [ms]
[INFO] ConstrainPressure: 0.002 [ms]
[INFO] MatrixAssemblyPII: 6.25 [ms]
[OGL LOG][Proc: 0]: global_index_init: 0.033 [ms]
[OGL LOG][Proc: 0]p_local_coeffs: call_update: 0 [ms]
[OGL LOG][Proc: 0]p_non_local_coeffs: call_update: 0 [ms]
[OGL LOG][Proc: 0]p: update_local_matrix_data: 4.95 [ms]
[OGL LOG][Proc: 0]p: update_non_local_matrix_data: 0.05 [ms]
[OGL LOG][Proc: 0]p: regenerate_distributed_matrix: 16.617 [ms]
[OGL LOG][Proc: 0]p_matrix: call_update: 17.366 [ms]
[OGL LOG][Proc: 0]p_rhs: call_update: 0.456 [ms]
[OGL LOG][Preconditioner.H:121] Generate preconditioner BJ MaxBlockSize 1
[OGL LOG][Proc: 0]p: init_precond: 0.395 [ms]
[OGL LOG][StoppingCriterion.H:237] Creating stopping criterion with minIter 432 frequency 12
[OGL LOG][Proc: 0]p: generate_solver: 0.001 [ms]
[OGL LOG][Proc: 0]p: solve: 2485.19 [ms]
[OGL LOG][Proc: 0]p: copy_x_back: 0.596 [ms]
[OGL LOG][lduLduBase.H:330] 
Statistics:
	Time per iteration: 3446 [mu s]
	Time per residual norm calculation: 1253.000000 [mu s]
	Time per iteration and DOF: 3.446000 [ns]
	Retrieve results bandwidth 1.677000 [GByte/s]
[OGL LOG][Proc: 0]p: solve_multi_gpu: 2505.54 [ms]
BJcudaGKOCG:  Solving for p, Initial residual = 0.269274, Final residual = 7.36221e-05, No Iterations 721
[INFO] SolveP: 2512.17 [ms]
time step continuity errors : sum local = 1.18009e-08, global = 4.76022e-21, cumulative = -1.71305e-20
[INFO] ContinuityError: 2.725 [ms]
[INFO] CorrectBoundary: 0.206 [ms]
[INFO] PISOStep: 2556.37 [ms]
[INFO] TimeStep: 5288.34 [ms]
ExecutionTime = 30.48 s  ClockTime = 32 s

Time = 0.003

Courant Number mean: 0.047987 max: 0.463865
[INFO] MatrixAssemblyU: 20.335 [ms]
DILUPBiCGStab:  Solving for Ux, Initial residual = 0.0178884, Final residual = 7.93732e-05, No Iterations 5
DILUPBiCGStab:  Solving for Uy, Initial residual = 0.0401302, Final residual = 0.00011598, No Iterations 5
DILUPBiCGStab:  Solving for Uz, Initial residual = 0.0852779, Final residual = 0.000400054, No Iterations 5
[INFO] MomentumPredictor: 162.661 [ms]
[INFO] MatrixAssemblyPI: 20.657 [ms]
[INFO] AdjustPhi: 0.931 [ms]
[INFO] ConstrainPressure: 0.003 [ms]
[INFO] MatrixAssemblyPII: 6.632 [ms]
[OGL LOG][Proc: 0]: global_index_init: 0.011 [ms]
[OGL LOG][Proc: 0]p_local_coeffs: call_update: 0 [ms]
[OGL LOG][Proc: 0]p_non_local_coeffs: call_update: 0 [ms]
[OGL LOG][Proc: 0]p: update_local_matrix_data: 5.269 [ms]
[OGL LOG][Proc: 0]p: update_non_local_matrix_data: 0.074 [ms]
[OGL LOG][Proc: 0]p: regenerate_distributed_matrix: 16.61 [ms]
[OGL LOG][Proc: 0]p_matrix: call_update: 17.177 [ms]
[OGL LOG][Proc: 0]p_rhs: call_update: 0.126 [ms]
[OGL LOG][Preconditioner.H:121] Generate preconditioner BJ MaxBlockSize 1
[OGL LOG][Proc: 0]p: init_precond: 0.389 [ms]
[OGL LOG][StoppingCriterion.H:237] Creating stopping criterion with minIter 432 frequency 12
[OGL LOG][Proc: 0]p: generate_solver: 0.001 [ms]
[OGL LOG][Proc: 0]p: solve: 2457.57 [ms]
[OGL LOG][Proc: 0]p: copy_x_back: 0.362 [ms]
[OGL LOG][lduLduBase.H:330] 
Statistics:
	Time per iteration: 3408 [mu s]
	Time per residual norm calculation: 1258.000000 [mu s]
	Time per iteration and DOF: 3.408000 [ns]
	Retrieve results bandwidth 2.762000 [GByte/s]
[OGL LOG][Proc: 0]p: solve_multi_gpu: 2478.39 [ms]
BJcudaGKOCG:  Solving for p, Initial residual = 0.196938, Final residual = 8.16767e-05, No Iterations 721
[INFO] SolveP: 2487.26 [ms]
time step continuity errors : sum local = 1.27378e-08, global = -3.14327e-21, cumulative = -2.02738e-20
[INFO] ContinuityError: 2.245 [ms]
[INFO] CorrectBoundary: 0.094 [ms]
[INFO] PISOStep: 2525.79 [ms]
[INFO] MatrixAssemblyPI: 19.898 [ms]
[INFO] AdjustPhi: 0.953 [ms]
[INFO] ConstrainPressure: 0.002 [ms]
[INFO] MatrixAssemblyPII: 6.809 [ms]
[OGL LOG][Proc: 0]: global_index_init: 0.007 [ms]
[OGL LOG][Proc: 0]p_local_coeffs: call_update: 0 [ms]
[OGL LOG][Proc: 0]p_non_local_coeffs: call_update: 0 [ms]
[OGL LOG][Proc: 0]p: update_local_matrix_data: 9.921 [ms]
[OGL LOG][Proc: 0]p: update_non_local_matrix_data: 0.05 [ms]
[OGL LOG][Proc: 0]p: regenerate_distributed_matrix: 16.975 [ms]
[OGL LOG][Proc: 0]p_matrix: call_update: 17.719 [ms]
[OGL LOG][Proc: 0]p_rhs: call_update: 0.267 [ms]
[OGL LOG][Preconditioner.H:121] Generate preconditioner BJ MaxBlockSize 1
[OGL LOG][Proc: 0]p: init_precond: 0.398 [ms]
[OGL LOG][StoppingCriterion.H:237] Creating stopping criterion with minIter 432 frequency 12
[OGL LOG][Proc: 0]p: generate_solver: 0.001 [ms]
[OGL LOG][Proc: 0]p: solve: 2473.63 [ms]
[OGL LOG][Proc: 0]p: copy_x_back: 0.369 [ms]
[OGL LOG][lduLduBase.H:330] 
Statistics:
	Time per iteration: 3430 [mu s]
	Time per residual norm calculation: 1253.000000 [mu s]
	Time per iteration and DOF: 3.430000 [ns]
	Retrieve results bandwidth 2.710000 [GByte/s]
[OGL LOG][Proc: 0]p: solve_multi_gpu: 2493.18 [ms]
BJcudaGKOCG:  Solving for p, Initial residual = 0.163698, Final residual = 7.11046e-05, No Iterations 721
[INFO] SolveP: 2504.99 [ms]
time step continuity errors : sum local = 1.10996e-08, global = -2.11335e-21, cumulative = -2.23871e-20
[INFO] ContinuityError: 5.411 [ms]
[INFO] CorrectBoundary: 1.118 [ms]
[INFO] PISOStep: 2547.93 [ms]
[INFO] TimeStep: 5260.47 [ms]
ExecutionTime = 35.72 s  ClockTime = 37 s

Time = 0.0035

Courant Number mean: 0.0513959 max: 0.466746
[INFO] MatrixAssemblyU: 17.864 [ms]
DILUPBiCGStab:  Solving for Ux, Initial residual = 0.0146335, Final residual = 5.75411e-05, No Iterations 5
DILUPBiCGStab:  Solving for Uy, Initial residual = 0.0317656, Final residual = 9.93874e-05, No Iterations 5
DILUPBiCGStab:  Solving for Uz, Initial residual = 0.0566193, Final residual = 0.000245906, No Iterations 5
[INFO] MomentumPredictor: 162.414 [ms]
[INFO] MatrixAssemblyPI: 20.401 [ms]
[INFO] AdjustPhi: 1.326 [ms]
[INFO] ConstrainPressure: 0.003 [ms]
[INFO] MatrixAssemblyPII: 6.389 [ms]
[OGL LOG][Proc: 0]: global_index_init: 0.022 [ms]
[OGL LOG][Proc: 0]p_local_coeffs: call_update: 0 [ms]
[OGL LOG][Proc: 0]p_non_local_coeffs: call_update: 0 [ms]
[OGL LOG][Proc: 0]p: update_local_matrix_data: 5.105 [ms]
[OGL LOG][Proc: 0]p: update_non_local_matrix_data: 0.062 [ms]
[OGL LOG][Proc: 0]p: regenerate_distributed_matrix: 16.916 [ms]
[OGL LOG][Proc: 0]p_matrix: call_update: 17.779 [ms]
[OGL LOG][Proc: 0]p_rhs: call_update: 0.219 [ms]
[OGL LOG][Preconditioner.H:121] Generate preconditioner BJ MaxBlockSize 1
[OGL LOG][Proc: 0]p: init_precond: 0.403 [ms]
[OGL LOG][StoppingCriterion.H:237] Creating stopping criterion with minIter 432 frequency 12
[OGL LOG][Proc: 0]p: generate_solver: 0.001 [ms]
[OGL LOG][Proc: 0]p: solve: 1544.03 [ms]
[OGL LOG][Proc: 0]p: copy_x_back: 0.72 [ms]
[OGL LOG][lduLduBase.H:330] 
Statistics:
	Time per iteration: 3378 [mu s]
	Time per residual norm calculation: 1258.000000 [mu s]
	Time per iteration and DOF: 3.378000 [ns]
	Retrieve results bandwidth 1.388000 [GByte/s]
[OGL LOG][Proc: 0]p: solve_multi_gpu: 1564.63 [ms]
BJcudaGKOCG:  Solving for p, Initial residual = 0.139321, Final residual = 9.30484e-05, No Iterations 457
[INFO] SolveP: 1571.38 [ms]
time step continuity errors : sum local = 1.50863e-08, global = 3.92683e-21, cumulative = -1.84603e-20
[INFO] ContinuityError: 2.798 [ms]
[INFO] CorrectBoundary: 0.21 [ms]
[INFO] PISOStep: 1613.49 [ms]
[INFO] MatrixAssemblyPI: 22.424 [ms]
[INFO] AdjustPhi: 1.011 [ms]
[INFO] ConstrainPressure: 0.003 [ms]
[INFO] MatrixAssemblyPII: 7.483 [ms]
[OGL LOG][Proc: 0]: global_index_init: 0.012 [ms]
[OGL LOG][Proc: 0]p_local_coeffs: call_update: 0 [ms]
[OGL LOG][Proc: 0]p_non_local_coeffs: call_update: 0 [ms]
[OGL LOG][Proc: 0]p: update_local_matrix_data: 5.249 [ms]
[OGL LOG][Proc: 0]p: update_non_local_matrix_data: 0.073 [ms]
[OGL LOG][Proc: 0]p: regenerate_distributed_matrix: 17.349 [ms]
[OGL LOG][Proc: 0]p_matrix: call_update: 18.085 [ms]
[OGL LOG][Proc: 0]p_rhs: call_update: 0.184 [ms]
[OGL LOG][Preconditioner.H:121] Generate preconditioner BJ MaxBlockSize 1
[OGL LOG][Proc: 0]p: init_precond: 0.394 [ms]
[OGL LOG][StoppingCriterion.H:237] Creating stopping criterion with minIter 274 frequency 9
[OGL LOG][Proc: 0]p: generate_solver: 0.001 [ms]
[OGL LOG][Proc: 0]p: solve: 1100.7 [ms]
[OGL LOG][Proc: 0]p: copy_x_back: 0.368 [ms]
[OGL LOG][lduLduBase.H:330] 
Statistics:
	Time per iteration: 3386 [mu s]
	Time per residual norm calculation: 1247.000000 [mu s]
	Time per iteration and DOF: 3.386000 [ns]
	Retrieve results bandwidth 2.717000 [GByte/s]
[OGL LOG][Proc: 0]p: solve_multi_gpu: 1120.48 [ms]
BJcudaGKOCG:  Solving for p, Initial residual = 0.116436, Final residual = 9.83832e-05, No Iterations 325
[INFO] SolveP: 1127.34 [ms]
time step continuity errors : sum local = 1.49481e-08, global = 2.23101e-21, cumulative = -1.62293e-20
[INFO] ContinuityError: 4.976 [ms]
[INFO] CorrectBoundary: 0.598 [ms]
[INFO] PISOStep: 1171.69 [ms]
[INFO] TimeStep: 2969.89 [ms]
ExecutionTime = 38.69 s  ClockTime = 40 s

Time = 0.004

Courant Number mean: 0.0543347 max: 0.468955
[INFO] MatrixAssemblyU: 20.043 [ms]
DILUPBiCGStab:  Solving for Ux, Initial residual = 0.0122755, Final residual = 4.51116e-05, No Iterations 5
DILUPBiCGStab:  Solving for Uy, Initial residual = 0.026531, Final residual = 6.38692e-05, No Iterations 5
DILUPBiCGStab:  Solving for Uz, Initial residual = 0.0511208, Final residual = 0.00017143, No Iterations 5
[INFO] MomentumPredictor: 160.459 [ms]
[INFO] MatrixAssemblyPI: 20.502 [ms]
[INFO] AdjustPhi: 1.034 [ms]
[INFO] ConstrainPressure: 0.006 [ms]
[INFO] MatrixAssemblyPII: 6.27 [ms]
[OGL LOG][Proc: 0]: global_index_init: 0.007 [ms]
[OGL LOG][Proc: 0]p_local_coeffs: call_update: 0 [ms]
[OGL LOG][Proc: 0]p_non_local_coeffs: call_update: 0 [ms]
[OGL LOG][Proc: 0]p: update_local_matrix_data: 5.223 [ms]
[OGL LOG][Proc: 0]p: update_non_local_matrix_data: 0.05 [ms]
[OGL LOG][Proc: 0]p: regenerate_distributed_matrix: 16.79 [ms]
[OGL LOG][Proc: 0]p_matrix: call_update: 17.295 [ms]
[OGL LOG][Proc: 0]p_rhs: call_update: 0.639 [ms]
[OGL LOG][Preconditioner.H:121] Generate preconditioner BJ MaxBlockSize 1
[OGL LOG][Proc: 0]p: init_precond: 0.399 [ms]
[OGL LOG][StoppingCriterion.H:237] Creating stopping criterion with minIter 195 frequency 8
[OGL LOG][Proc: 0]p: generate_solver: 0.001 [ms]
[OGL LOG][Proc: 0]p: solve: 1099.8 [ms]
[OGL LOG][Proc: 0]p: copy_x_back: 0.37 [ms]
[OGL LOG][lduLduBase.H:330] 
Statistics:
	Time per iteration: 3426 [mu s]
	Time per residual norm calculation: 1251.000000 [mu s]
	Time per iteration and DOF: 3.426000 [ns]
	Retrieve results bandwidth 2.702000 [GByte/s]
[OGL LOG][Proc: 0]p: solve_multi_gpu: 1119.68 [ms]
BJcudaGKOCG:  Solving for p, Initial residual = 0.0908847, Final residual = 9.40039e-05, No Iterations 321
[INFO] SolveP: 1126.28 [ms]
time step continuity errors : sum local = 1.36888e-08, global = -4.81367e-21, cumulative = -2.1043e-20
[INFO] ContinuityError: 2.453 [ms]
[INFO] CorrectBoundary: 0.1 [ms]
[INFO] PISOStep: 1165 [ms]
[INFO] MatrixAssemblyPI: 20.561 [ms]
[INFO] AdjustPhi: 0.915 [ms]
[INFO] ConstrainPressure: 0.002 [ms]
[INFO] MatrixAssemblyPII: 6.286 [ms]
[OGL LOG][Proc: 0]: global_index_init: 0.008 [ms]
[OGL LOG][Proc: 0]p_local_coeffs: call_update: 0 [ms]
[OGL LOG][Proc: 0]p_non_local_coeffs: call_update: 0 [ms]
[OGL LOG][Proc: 0]p: update_local_matrix_data: 5.246 [ms]
[OGL LOG][Proc: 0]p: update_non_local_matrix_data: 0.055 [ms]
[OGL LOG][Proc: 0]p: regenerate_distributed_matrix: 17.396 [ms]
[OGL LOG][Proc: 0]p_matrix: call_update: 18.013 [ms]
[OGL LOG][Proc: 0]p_rhs: call_update: 0.442 [ms]
[OGL LOG][Preconditioner.H:121] Generate preconditioner BJ MaxBlockSize 1
[OGL LOG][Proc: 0]p: init_precond: 0.399 [ms]
[OGL LOG][StoppingCriterion.H:237] Creating stopping criterion with minIter 192 frequency 8
[OGL LOG][Proc: 0]p: generate_solver: 0.001 [ms]
[OGL LOG][Proc: 0]p: solve: 1094.75 [ms]
[OGL LOG][Proc: 0]p: copy_x_back: 0.366 [ms]
[OGL LOG][lduLduBase.H:330] 
Statistics:
	Time per iteration: 3410 [mu s]
	Time per residual norm calculation: 1254.000000 [mu s]
	Time per iteration and DOF: 3.410000 [ns]
	Retrieve results bandwidth 2.732000 [GByte/s]
[OGL LOG][Proc: 0]p: solve_multi_gpu: 1115.02 [ms]
BJcudaGKOCG:  Solving for p, Initial residual = 0.0751602, Final residual = 8.37946e-05, No Iterations 321
[INFO] SolveP: 1121.58 [ms]
time step continuity errors : sum local = 1.21914e-08, global = 1.00141e-22, cumulative = -2.09428e-20
[INFO] ContinuityError: 2.508 [ms]
[INFO] CorrectBoundary: 0.089 [ms]
[INFO] PISOStep: 1160.11 [ms]
[INFO] TimeStep: 2509.29 [ms]
ExecutionTime = 41.2 s  ClockTime = 42 s

Time = 0.0045

Courant Number mean: 0.0569118 max: 0.470657
[INFO] MatrixAssemblyU: 18.612 [ms]
DILUPBiCGStab:  Solving for Ux, Initial residual = 0.0105282, Final residual = 3.57234e-05, No Iterations 5
DILUPBiCGStab:  Solving for Uy, Initial residual = 0.0226787, Final residual = 5.87648e-05, No Iterations 5
DILUPBiCGStab:  Solving for Uz, Initial residual = 0.0428429, Final residual = 0.000125634, No Iterations 5
[INFO] MomentumPredictor: 160.453 [ms]
[INFO] MatrixAssemblyPI: 20.523 [ms]
[INFO] AdjustPhi: 0.91 [ms]
[INFO] ConstrainPressure: 0.001 [ms]
[INFO] MatrixAssemblyPII: 6.299 [ms]
[OGL LOG][Proc: 0]: global_index_init: 0.007 [ms]
[OGL LOG][Proc: 0]p_local_coeffs: call_update: 0 [ms]
[OGL LOG][Proc: 0]p_non_local_coeffs: call_update: 0 [ms]
[OGL LOG][Proc: 0]p: update_local_matrix_data: 5.282 [ms]
[OGL LOG][Proc: 0]p: update_non_local_matrix_data: 0.049 [ms]
[OGL LOG][Proc: 0]p: regenerate_distributed_matrix: 16.179 [ms]
[OGL LOG][Proc: 0]p_matrix: call_update: 16.754 [ms]
[OGL LOG][Proc: 0]p_rhs: call_update: 0.354 [ms]
[OGL LOG][Preconditioner.H:121] Generate preconditioner BJ MaxBlockSize 1
[OGL LOG][Proc: 0]p: init_precond: 0.386 [ms]
[OGL LOG][StoppingCriterion.H:237] Creating stopping criterion with minIter 192 frequency 8
[OGL LOG][Proc: 0]p: generate_solver: 0.001 [ms]
[OGL LOG][Proc: 0]p: solve: 1133.56 [ms]
[OGL LOG][Proc: 0]p: copy_x_back: 0.373 [ms]
[OGL LOG][lduLduBase.H:330] 
Statistics:
	Time per iteration: 3445 [mu s]
	Time per residual norm calculation: 1252.000000 [mu s]
	Time per iteration and DOF: 3.445000 [ns]
	Retrieve results bandwidth 2.680000 [GByte/s]
[OGL LOG][Proc: 0]p: solve_multi_gpu: 1152.41 [ms]
BJcudaGKOCG:  Solving for p, Initial residual = 0.0667547, Final residual = 9.72189e-05, No Iterations 329
[INFO] SolveP: 1159.16 [ms]
time step continuity errors : sum local = 1.56094e-08, global = 1.70006e-21, cumulative = -1.92428e-20
[INFO] ContinuityError: 2.377 [ms]
[INFO] CorrectBoundary: 0.092 [ms]
[INFO] PISOStep: 1197.42 [ms]
[INFO] MatrixAssemblyPI: 19.612 [ms]
[INFO] AdjustPhi: 1.115 [ms]
[INFO] ConstrainPressure: 0.002 [ms]
[INFO] MatrixAssemblyPII: 6.324 [ms]
[OGL LOG][Proc: 0]: global_index_init: 0.011 [ms]
[OGL LOG][Proc: 0]p_local_coeffs: call_update: 0 [ms]
[OGL LOG][Proc: 0]p_non_local_coeffs: call_update: 0 [ms]
[OGL LOG][Proc: 0]p: update_local_matrix_data: 5.361 [ms]
[OGL LOG][Proc: 0]p: update_non_local_matrix_data: 0.048 [ms]
[OGL LOG][Proc: 0]p: regenerate_distributed_matrix: 17.359 [ms]
[OGL LOG][Proc: 0]p_matrix: call_update: 17.846 [ms]
[OGL LOG][Proc: 0]p_rhs: call_update: 0.569 [ms]
[OGL LOG][Preconditioner.H:121] Generate preconditioner BJ MaxBlockSize 1
[OGL LOG][Proc: 0]p: init_precond: 0.392 [ms]
[OGL LOG][StoppingCriterion.H:237] Creating stopping criterion with minIter 197 frequency 8
[OGL LOG][Proc: 0]p: generate_solver: 0.001 [ms]
[OGL LOG][Proc: 0]p: solve: 1106.74 [ms]
[OGL LOG][Proc: 0]p: copy_x_back: 0.365 [ms]
[OGL LOG][lduLduBase.H:330] 
Statistics:
	Time per iteration: 3447 [mu s]
	Time per residual norm calculation: 1256.000000 [mu s]
	Time per iteration and DOF: 3.447000 [ns]
	Retrieve results bandwidth 2.739000 [GByte/s]
[OGL LOG][Proc: 0]p: solve_multi_gpu: 1126.7 [ms]
BJcudaGKOCG:  Solving for p, Initial residual = 0.0556584, Final residual = 7.7687e-05, No Iterations 321
[INFO] SolveP: 1133.98 [ms]
time step continuity errors : sum local = 1.17021e-08, global = -3.372e-21, cumulative = -2.26148e-20
[INFO] ContinuityError: 4.991 [ms]
[INFO] CorrectBoundary: 0.801 [ms]
[INFO] PISOStep: 1175.61 [ms]
[INFO] TimeStep: 2555.36 [ms]
ExecutionTime = 43.75 s  ClockTime = 45 s

Time = 0.005

Courant Number mean: 0.0592067 max: 0.472052
[INFO] MatrixAssemblyU: 17.814 [ms]
DILUPBiCGStab:  Solving for Ux, Initial residual = 0.0092109, Final residual = 3.00604e-05, No Iterations 5
DILUPBiCGStab:  Solving for Uy, Initial residual = 0.0197462, Final residual = 4.40669e-05, No Iterations 5
DILUPBiCGStab:  Solving for Uz, Initial residual = 0.0380968, Final residual = 0.000101927, No Iterations 5
[INFO] MomentumPredictor: 161.9 [ms]
[INFO] MatrixAssemblyPI: 20.485 [ms]
[INFO] AdjustPhi: 1.267 [ms]
[INFO] ConstrainPressure: 0.002 [ms]
[INFO] MatrixAssemblyPII: 6.322 [ms]
[OGL LOG][Proc: 0]: global_index_init: 0.018 [ms]
[OGL LOG][Proc: 0]p_local_coeffs: call_update: 0 [ms]
[OGL LOG][Proc: 0]p_non_local_coeffs: call_update: 0 [ms]
[OGL LOG][Proc: 0]p: update_local_matrix_data: 4.95 [ms]
[OGL LOG][Proc: 0]p: update_non_local_matrix_data: 0.047 [ms]
[OGL LOG][Proc: 0]p: regenerate_distributed_matrix: 17.165 [ms]
[OGL LOG][Proc: 0]p_matrix: call_update: 17.68 [ms]
[OGL LOG][Proc: 0]p_rhs: call_update: 0.29 [ms]
[OGL LOG][Preconditioner.H:121] Generate preconditioner BJ MaxBlockSize 1
[OGL LOG][Proc: 0]p: init_precond: 0.395 [ms]
[OGL LOG][StoppingCriterion.H:237] Creating stopping criterion with minIter 192 frequency 8
[OGL LOG][Proc: 0]p: generate_solver: 0.001 [ms]
[OGL LOG][Proc: 0]p: solve: 1103.39 [ms]
[OGL LOG][Proc: 0]p: copy_x_back: 0.37 [ms]
[OGL LOG][lduLduBase.H:330] 
Statistics:
	Time per iteration: 3437 [mu s]
	Time per residual norm calculation: 1259.000000 [mu s]
	Time per iteration and DOF: 3.437000 [ns]
	Retrieve results bandwidth 2.702000 [GByte/s]
[OGL LOG][Proc: 0]p: solve_multi_gpu: 1123.38 [ms]
BJcudaGKOCG:  Solving for p, Initial residual = 0.0446334, Final residual = 8.62395e-05, No Iterations 321
[INFO] SolveP: 1129.78 [ms]
time step continuity errors : sum local = 1.29203e-08, global = 2.62289e-21, cumulative = -1.99919e-20
[INFO] ContinuityError: 2.422 [ms]
[INFO] CorrectBoundary: 0.097 [ms]
[INFO] PISOStep: 1168.77 [ms]
[INFO] MatrixAssemblyPI: 19.632 [ms]
[INFO] AdjustPhi: 0.918 [ms]
[INFO] ConstrainPressure: 0.003 [ms]
[INFO] MatrixAssemblyPII: 6.26 [ms]
[OGL LOG][Proc: 0]: global_index_init: 0.007 [ms]
[OGL LOG][Proc: 0]p_local_coeffs: call_update: 0 [ms]
[OGL LOG][Proc: 0]p_non_local_coeffs: call_update: 0 [ms]
[OGL LOG][Proc: 0]p: update_local_matrix_data: 5.33 [ms]
[OGL LOG][Proc: 0]p: update_non_local_matrix_data: 0.048 [ms]
[OGL LOG][Proc: 0]p: regenerate_distributed_matrix: 16.098 [ms]
[OGL LOG][Proc: 0]p_matrix: call_update: 16.606 [ms]
[OGL LOG][Proc: 0]p_rhs: call_update: 0.784 [ms]
[OGL LOG][Preconditioner.H:121] Generate preconditioner BJ MaxBlockSize 1
[OGL LOG][Proc: 0]p: init_precond: 0.398 [ms]
[OGL LOG][StoppingCriterion.H:237] Creating stopping criterion with minIter 192 frequency 8
[OGL LOG][Proc: 0]p: generate_solver: 0.001 [ms]
[OGL LOG][Proc: 0]p: solve: 1085.74 [ms]
[OGL LOG][Proc: 0]p: copy_x_back: 0.365 [ms]
[OGL LOG][lduLduBase.H:330] 
Statistics:
	Time per iteration: 3468 [mu s]
	Time per residual norm calculation: 1102.000000 [mu s]
	Time per iteration and DOF: 3.468000 [ns]
	Retrieve results bandwidth 2.739000 [GByte/s]
[OGL LOG][Proc: 0]p: solve_multi_gpu: 1104.45 [ms]
BJcudaGKOCG:  Solving for p, Initial residual = 0.0376543, Final residual = 9.77324e-05, No Iterations 313
[INFO] SolveP: 1111.69 [ms]
time step continuity errors : sum local = 1.3914e-08, global = 4.30971e-21, cumulative = -1.56822e-20
[INFO] ContinuityError: 4.701 [ms]
[INFO] CorrectBoundary: 0.106 [ms]
[INFO] PISOStep: 1151.43 [ms]
[INFO] TimeStep: 2503.73 [ms]
ExecutionTime = 46.24 s  ClockTime = 47 s

Time = 0.0055

Courant Number mean: 0.0612662 max: 0.473198
[INFO] MatrixAssemblyU: 18.524 [ms]
DILUPBiCGStab:  Solving for Ux, Initial residual = 0.00814025, Final residual = 2.51929e-05, No Iterations 5
DILUPBiCGStab:  Solving for Uy, Initial residual = 0.0174517, Final residual = 3.94754e-05, No Iterations 5
DILUPBiCGStab:  Solving for Uz, Initial residual = 0.0342828, Final residual = 8.62473e-05, No Iterations 5
[INFO] MomentumPredictor: 162.273 [ms]
[INFO] MatrixAssemblyPI: 20.553 [ms]
[INFO] AdjustPhi: 0.926 [ms]
[INFO] ConstrainPressure: 0.002 [ms]
[INFO] MatrixAssemblyPII: 6.329 [ms]
[OGL LOG][Proc: 0]: global_index_init: 0.008 [ms]
[OGL LOG][Proc: 0]p_local_coeffs: call_update: 0 [ms]
[OGL LOG][Proc: 0]p_non_local_coeffs: call_update: 0 [ms]
[OGL LOG][Proc: 0]p: update_local_matrix_data: 5.206 [ms]
[OGL LOG][Proc: 0]p: update_non_local_matrix_data: 0.049 [ms]
[OGL LOG][Proc: 0]p: regenerate_distributed_matrix: 17.408 [ms]
[OGL LOG][Proc: 0]p_matrix: call_update: 17.886 [ms]
[OGL LOG][Proc: 0]p_rhs: call_update: 0.335 [ms]
[OGL LOG][Preconditioner.H:121] Generate preconditioner BJ MaxBlockSize 1
[OGL LOG][Proc: 0]p: init_precond: 0.392 [ms]
[OGL LOG][StoppingCriterion.H:237] Creating stopping criterion with minIter 187 frequency 6
[OGL LOG][Proc: 0]p: generate_solver: 0.001 [ms]
[OGL LOG][Proc: 0]p: solve: 1171.29 [ms]
[OGL LOG][Proc: 0]p: copy_x_back: 0.369 [ms]
[OGL LOG][lduLduBase.H:330] 
Statistics:
	Time per iteration: 3475 [mu s]
	Time per residual norm calculation: 1260.000000 [mu s]
	Time per iteration and DOF: 3.475000 [ns]
	Retrieve results bandwidth 2.710000 [GByte/s]
[OGL LOG][Proc: 0]p: solve_multi_gpu: 1191 [ms]
BJcudaGKOCG:  Solving for p, Initial residual = 0.0350601, Final residual = 9.97016e-05, No Iterations 337
[INFO] SolveP: 1198.37 [ms]
time step continuity errors : sum local = 1.64761e-08, global = -9.40463e-21, cumulative = -2.50868e-20
[INFO] ContinuityError: 4.178 [ms]
[INFO] CorrectBoundary: 0.894 [ms]
[INFO] PISOStep: 1240.22 [ms]
[INFO] MatrixAssemblyPI: 21.349 [ms]
[INFO] AdjustPhi: 0.983 [ms]
[INFO] ConstrainPressure: 0.002 [ms]
[INFO] MatrixAssemblyPII: 6.288 [ms]
[OGL LOG][Proc: 0]: global_index_init: 0.011 [ms]
[OGL LOG][Proc: 0]p_local_coeffs: call_update: 0 [ms]
[OGL LOG][Proc: 0]p_non_local_coeffs: call_update: 0 [ms]
[OGL LOG][Proc: 0]p: update_local_matrix_data: 5.204 [ms]
[OGL LOG][Proc: 0]p: update_non_local_matrix_data: 0.048 [ms]
[OGL LOG][Proc: 0]p: regenerate_distributed_matrix: 16.804 [ms]
[OGL LOG][Proc: 0]p_matrix: call_update: 17.157 [ms]
[OGL LOG][Proc: 0]p_rhs: call_update: 0.857 [ms]
[OGL LOG][Preconditioner.H:121] Generate preconditioner BJ MaxBlockSize 1
[OGL LOG][Proc: 0]p: init_precond: 0.388 [ms]
[OGL LOG][StoppingCriterion.H:237] Creating stopping criterion with minIter 202 frequency 8
[OGL LOG][Proc: 0]p: generate_solver: 0.001 [ms]
[OGL LOG][Proc: 0]p: solve: 1079.67 [ms]
[OGL LOG][Proc: 0]p: copy_x_back: 0.371 [ms]
[OGL LOG][lduLduBase.H:330] 
Statistics:
	Time per iteration: 3449 [mu s]
	Time per residual norm calculation: 1401.000000 [mu s]
	Time per iteration and DOF: 3.449000 [ns]
	Retrieve results bandwidth 2.695000 [GByte/s]
[OGL LOG][Proc: 0]p: solve_multi_gpu: 1099.35 [ms]
BJcudaGKOCG:  Solving for p, Initial residual = 0.0297765, Final residual = 9.48912e-05, No Iterations 313
[INFO] SolveP: 1106.22 [ms]
time step continuity errors : sum local = 1.42401e-08, global = -3.90884e-21, cumulative = -2.89956e-20
[INFO] ContinuityError: 5.084 [ms]
[INFO] CorrectBoundary: 0.65 [ms]
[INFO] PISOStep: 1148.72 [ms]
[INFO] TimeStep: 2574.53 [ms]
ExecutionTime = 48.82 s  ClockTime = 50 s

Time = 0.006

Courant Number mean: 0.0631376 max: 0.474175
[INFO] MatrixAssemblyU: 18.092 [ms]
DILUPBiCGStab:  Solving for Ux, Initial residual = 0.0072813, Final residual = 2.20788e-05, No Iterations 5
DILUPBiCGStab:  Solving for Uy, Initial residual = 0.0156, Final residual = 3.39926e-05, No Iterations 5
DILUPBiCGStab:  Solving for Uz, Initial residual = 0.0309666, Final residual = 8.26833e-05, No Iterations 5
[INFO] MomentumPredictor: 160.05 [ms]
[INFO] MatrixAssemblyPI: 20.461 [ms]
[INFO] AdjustPhi: 0.91 [ms]
[INFO] ConstrainPressure: 0.002 [ms]
[INFO] MatrixAssemblyPII: 6.353 [ms]
[OGL LOG][Proc: 0]: global_index_init: 0.015 [ms]
[OGL LOG][Proc: 0]p_local_coeffs: call_update: 0 [ms]
[OGL LOG][Proc: 0]p_non_local_coeffs: call_update: 0 [ms]
[OGL LOG][Proc: 0]p: update_local_matrix_data: 5.338 [ms]
[OGL LOG][Proc: 0]p: update_non_local_matrix_data: 0.052 [ms]
[OGL LOG][Proc: 0]p: regenerate_distributed_matrix: 16.826 [ms]
[OGL LOG][Proc: 0]p_matrix: call_update: 17.345 [ms]
[OGL LOG][Proc: 0]p_rhs: call_update: 0.23 [ms]
[OGL LOG][Preconditioner.H:121] Generate preconditioner BJ MaxBlockSize 1
[OGL LOG][Proc: 0]p: init_precond: 0.4 [ms]
[OGL LOG][StoppingCriterion.H:237] Creating stopping criterion with minIter 187 frequency 7
[OGL LOG][Proc: 0]p: generate_solver: 0.001 [ms]
[OGL LOG][Proc: 0]p: solve: 1114.27 [ms]
[OGL LOG][Proc: 0]p: copy_x_back: 0.392 [ms]
[OGL LOG][lduLduBase.H:330] 
Statistics:
	Time per iteration: 3449 [mu s]
	Time per residual norm calculation: 1252.000000 [mu s]
	Time per iteration and DOF: 3.449000 [ns]
	Retrieve results bandwidth 2.551000 [GByte/s]
[OGL LOG][Proc: 0]p: solve_multi_gpu: 1133.7 [ms]
BJcudaGKOCG:  Solving for p, Initial residual = 0.0251374, Final residual = 9.31589e-05, No Iterations 323
[INFO] SolveP: 1140.4 [ms]
time step continuity errors : sum local = 1.48503e-08, global = 5.69762e-21, cumulative = -2.3298e-20
[INFO] ContinuityError: 4.206 [ms]
[INFO] CorrectBoundary: 0.094 [ms]
[INFO] PISOStep: 1180.39 [ms]
[INFO] MatrixAssemblyPI: 21.883 [ms]
[INFO] AdjustPhi: 1.95 [ms]
[INFO] ConstrainPressure: 0.002 [ms]
[INFO] MatrixAssemblyPII: 6.275 [ms]
[OGL LOG][Proc: 0]: global_index_init: 0.01 [ms]
[OGL LOG][Proc: 0]p_local_coeffs: call_update: 0 [ms]
[OGL LOG][Proc: 0]p_non_local_coeffs: call_update: 0 [ms]
[OGL LOG][Proc: 0]p: update_local_matrix_data: 5.088 [ms]
[OGL LOG][Proc: 0]p: update_non_local_matrix_data: 0.051 [ms]
[OGL LOG][Proc: 0]p: regenerate_distributed_matrix: 16.844 [ms]
[OGL LOG][Proc: 0]p_matrix: call_update: 17.322 [ms]
[OGL LOG][Proc: 0]p_rhs: call_update: 0.775 [ms]
[OGL LOG][Preconditioner.H:121] Generate preconditioner BJ MaxBlockSize 1
[OGL LOG][Proc: 0]p: init_precond: 0.393 [ms]
[OGL LOG][StoppingCriterion.H:237] Creating stopping criterion with minIter 193 frequency 8
[OGL LOG][Proc: 0]p: generate_solver: 0.001 [ms]
[OGL LOG][Proc: 0]p: solve: 1076.15 [ms]
[OGL LOG][Proc: 0]p: copy_x_back: 0.371 [ms]
[OGL LOG][lduLduBase.H:330] 
Statistics:
	Time per iteration: 3438 [mu s]
	Time per residual norm calculation: 1260.000000 [mu s]
	Time per iteration and DOF: 3.438000 [ns]
	Retrieve results bandwidth 2.695000 [GByte/s]
[OGL LOG][Proc: 0]p: solve_multi_gpu: 1096.18 [ms]
BJcudaGKOCG:  Solving for p, Initial residual = 0.0219311, Final residual = 9.01307e-05, No Iterations 313
[INFO] SolveP: 1102.77 [ms]
time step continuity errors : sum local = 1.29895e-08, global = 1.43988e-21, cumulative = -2.18581e-20
[INFO] ContinuityError: 2.459 [ms]
[INFO] CorrectBoundary: 0.092 [ms]
[INFO] PISOStep: 1144.39 [ms]
[INFO] TimeStep: 2506.38 [ms]
ExecutionTime = 51.32 s  ClockTime = 53 s

Time = 0.0065

Courant Number mean: 0.0648411 max: 0.47501
[INFO] MatrixAssemblyU: 18.417 [ms]
DILUPBiCGStab:  Solving for Ux, Initial residual = 0.00656626, Final residual = 1.92079e-05, No Iterations 5
DILUPBiCGStab:  Solving for Uy, Initial residual = 0.0140541, Final residual = 3.08029e-05, No Iterations 5
DILUPBiCGStab:  Solving for Uz, Initial residual = 0.0286958, Final residual = 7.87944e-05, No Iterations 5
[INFO] MomentumPredictor: 161.279 [ms]
[INFO] MatrixAssemblyPI: 20.473 [ms]
[INFO] AdjustPhi: 0.916 [ms]
[INFO] ConstrainPressure: 0.002 [ms]
[INFO] MatrixAssemblyPII: 6.233 [ms]
[OGL LOG][Proc: 0]: global_index_init: 0.011 [ms]
[OGL LOG][Proc: 0]p_local_coeffs: call_update: 0 [ms]
[OGL LOG][Proc: 0]p_non_local_coeffs: call_update: 0 [ms]
[OGL LOG][Proc: 0]p: update_local_matrix_data: 5.261 [ms]
[OGL LOG][Proc: 0]p: update_non_local_matrix_data: 0.05 [ms]
[OGL LOG][Proc: 0]p: regenerate_distributed_matrix: 17.014 [ms]
[OGL LOG][Proc: 0]p_matrix: call_update: 17.434 [ms]
[OGL LOG][Proc: 0]p_rhs: call_update: 0.503 [ms]
[OGL LOG][Preconditioner.H:121] Generate preconditioner BJ MaxBlockSize 1
[OGL LOG][Proc: 0]p: init_precond: 0.396 [ms]
[OGL LOG][StoppingCriterion.H:237] Creating stopping criterion with minIter 187 frequency 7
[OGL LOG][Proc: 0]p: generate_solver: 0.001 [ms]
[OGL LOG][Proc: 0]p: solve: 2405.72 [ms]
[OGL LOG][Proc: 0]p: copy_x_back: 0.349 [ms]
[OGL LOG][lduLduBase.H:330] 
Statistics:
	Time per iteration: 3501 [mu s]
	Time per residual norm calculation: 1252.000000 [mu s]
	Time per iteration and DOF: 3.501000 [ns]
	Retrieve results bandwidth 2.865000 [GByte/s]
[OGL LOG][Proc: 0]p: solve_multi_gpu: 2425.35 [ms]
BJcudaGKOCG:  Solving for p, Initial residual = 0.0209294, Final residual = 9.57983e-05, No Iterations 687
[INFO] SolveP: 2432.07 [ms]
time step continuity errors : sum local = 1.34123e-08, global = -2.7786e-21, cumulative = -2.46367e-20
[INFO] ContinuityError: 2.445 [ms]
[INFO] CorrectBoundary: 0.094 [ms]
[INFO] PISOStep: 2470.82 [ms]
[INFO] MatrixAssemblyPI: 19.616 [ms]
[INFO] AdjustPhi: 0.946 [ms]
[INFO] ConstrainPressure: 0.002 [ms]
[INFO] MatrixAssemblyPII: 6.263 [ms]
[OGL LOG][Proc: 0]: global_index_init: 0.007 [ms]
[OGL LOG][Proc: 0]p_local_coeffs: call_update: 0 [ms]
[OGL LOG][Proc: 0]p_non_local_coeffs: call_update: 0 [ms]
[OGL LOG][Proc: 0]p: update_local_matrix_data: 5.259 [ms]
[OGL LOG][Proc: 0]p: update_non_local_matrix_data: 0.049 [ms]
[OGL LOG][Proc: 0]p: regenerate_distributed_matrix: 15.945 [ms]
[OGL LOG][Proc: 0]p_matrix: call_update: 16.477 [ms]
[OGL LOG][Proc: 0]p_rhs: call_update: 0.981 [ms]
[OGL LOG][Preconditioner.H:121] Generate preconditioner BJ MaxBlockSize 1
[OGL LOG][Proc: 0]p: init_precond: 0.397 [ms]
[OGL LOG][StoppingCriterion.H:237] Creating stopping criterion with minIter 412 frequency 11
[OGL LOG][Proc: 0]p: generate_solver: 0.001 [ms]
[OGL LOG][Proc: 0]p: solve: 2337.46 [ms]
[OGL LOG][Proc: 0]p: copy_x_back: 0.713 [ms]
[OGL LOG][lduLduBase.H:330] 
Statistics:
	Time per iteration: 3422 [mu s]
	Time per residual norm calculation: 1258.000000 [mu s]
	Time per iteration and DOF: 3.422000 [ns]
	Retrieve results bandwidth 1.402000 [GByte/s]
[OGL LOG][Proc: 0]p: solve_multi_gpu: 2357.35 [ms]
BJcudaGKOCG:  Solving for p, Initial residual = 0.0184497, Final residual = 9.71948e-05, No Iterations 683
[INFO] SolveP: 2363.99 [ms]
time step continuity errors : sum local = 1.36144e-08, global = -5.96209e-21, cumulative = -3.05988e-20
[INFO] ContinuityError: 3.153 [ms]
[INFO] CorrectBoundary: 0.115 [ms]
[INFO] PISOStep: 2406.01 [ms]
[INFO] TimeStep: 5060.38 [ms]
ExecutionTime = 56.37 s  ClockTime = 58 s

Time = 0.007

Courant Number mean: 0.0664084 max: 0.475741
[INFO] MatrixAssemblyU: 21.548 [ms]
DILUPBiCGStab:  Solving for Ux, Initial residual = 0.00596179, Final residual = 1.7188e-05, No Iterations 5
DILUPBiCGStab:  Solving for Uy, Initial residual = 0.012761, Final residual = 2.75343e-05, No Iterations 5
DILUPBiCGStab:  Solving for Uz, Initial residual = 0.0256068, Final residual = 5.80179e-05, No Iterations 5
[INFO] MomentumPredictor: 158.135 [ms]
[INFO] MatrixAssemblyPI: 20.577 [ms]
[INFO] AdjustPhi: 1.132 [ms]
[INFO] ConstrainPressure: 0.002 [ms]
[INFO] MatrixAssemblyPII: 6.332 [ms]
[OGL LOG][Proc: 0]: global_index_init: 0.014 [ms]
[OGL LOG][Proc: 0]p_local_coeffs: call_update: 0 [ms]
[OGL LOG][Proc: 0]p_non_local_coeffs: call_update: 0 [ms]
[OGL LOG][Proc: 0]p: update_local_matrix_data: 5.118 [ms]
[OGL LOG][Proc: 0]p: update_non_local_matrix_data: 0.072 [ms]
[OGL LOG][Proc: 0]p: regenerate_distributed_matrix: 17.193 [ms]
[OGL LOG][Proc: 0]p_matrix: call_update: 17.787 [ms]
[OGL LOG][Proc: 0]p_rhs: call_update: 0.179 [ms]
[OGL LOG][Preconditioner.H:121] Generate preconditioner BJ MaxBlockSize 1
[OGL LOG][Proc: 0]p: init_precond: 0.394 [ms]
[OGL LOG][StoppingCriterion.H:237] Creating stopping criterion with minIter 409 frequency 11
[OGL LOG][Proc: 0]p: generate_solver: 0.001 [ms]
[OGL LOG][Proc: 0]p: solve: 2327.78 [ms]
[OGL LOG][Proc: 0]p: copy_x_back: 0.39 [ms]
[OGL LOG][lduLduBase.H:330] 
Statistics:
	Time per iteration: 3408 [mu s]
	Time per residual norm calculation: 1399.000000 [mu s]
	Time per iteration and DOF: 3.408000 [ns]
	Retrieve results bandwidth 2.564000 [GByte/s]
[OGL LOG][Proc: 0]p: solve_multi_gpu: 2347.7 [ms]
BJcudaGKOCG:  Solving for p, Initial residual = 0.0164022, Final residual = 9.62253e-05, No Iterations 683
[INFO] SolveP: 2354.33 [ms]
time step continuity errors : sum local = 1.34633e-08, global = -2.17109e-22, cumulative = -3.08159e-20
[INFO] ContinuityError: 4.63 [ms]
[INFO] CorrectBoundary: 0.092 [ms]
[INFO] PISOStep: 2395.12 [ms]
[INFO] MatrixAssemblyPI: 19.899 [ms]
[INFO] AdjustPhi: 3.163 [ms]
[INFO] ConstrainPressure: 0.002 [ms]
[INFO] MatrixAssemblyPII: 6.335 [ms]
[OGL LOG][Proc: 0]: global_index_init: 0.008 [ms]
[OGL LOG][Proc: 0]p_local_coeffs: call_update: 0 [ms]
[OGL LOG][Proc: 0]p_non_local_coeffs: call_update: 0 [ms]
[OGL LOG][Proc: 0]p: update_local_matrix_data: 5.242 [ms]
[OGL LOG][Proc: 0]p: update_non_local_matrix_data: 0.051 [ms]
[OGL LOG][Proc: 0]p: regenerate_distributed_matrix: 16.324 [ms]
[OGL LOG][Proc: 0]p_matrix: call_update: 17.042 [ms]
[OGL LOG][Proc: 0]p_rhs: call_update: 0.58 [ms]
[OGL LOG][Preconditioner.H:121] Generate preconditioner BJ MaxBlockSize 1
[OGL LOG][Proc: 0]p: init_precond: 0.39 [ms]
[OGL LOG][StoppingCriterion.H:237] Creating stopping criterion with minIter 409 frequency 11
[OGL LOG][Proc: 0]p: generate_solver: 0.001 [ms]
[OGL LOG][Proc: 0]p: solve: 1407.73 [ms]
[OGL LOG][Proc: 0]p: copy_x_back: 0.391 [ms]
[OGL LOG][lduLduBase.H:330] 
Statistics:
	Time per iteration: 3359 [mu s]
	Time per residual norm calculation: 1402.000000 [mu s]
	Time per iteration and DOF: 3.359000 [ns]
	Retrieve results bandwidth 2.557000 [GByte/s]
[OGL LOG][Proc: 0]p: solve_multi_gpu: 1427.16 [ms]
BJcudaGKOCG:  Solving for p, Initial residual = 0.0148517, Final residual = 9.63149e-05, No Iterations 419
[INFO] SolveP: 1433.78 [ms]
time step continuity errors : sum local = 1.4206e-08, global = 4.06187e-21, cumulative = -2.67541e-20
[INFO] ContinuityError: 2.394 [ms]
[INFO] CorrectBoundary: 0.399 [ms]
[INFO] PISOStep: 1474.18 [ms]
[INFO] TimeStep: 4052.83 [ms]
ExecutionTime = 60.42 s  ClockTime = 62 s

Time = 0.0075

Courant Number mean: 0.0678549 max: 0.476379
[INFO] MatrixAssemblyU: 18.274 [ms]
DILUPBiCGStab:  Solving for Ux, Initial residual = 0.00543943, Final residual = 1.5283e-05, No Iterations 5
DILUPBiCGStab:  Solving for Uy, Initial residual = 0.011662, Final residual = 2.50512e-05, No Iterations 5
DILUPBiCGStab:  Solving for Uz, Initial residual = 0.0236012, Final residual = 5.581e-05, No Iterations 5
[INFO] MomentumPredictor: 170.495 [ms]
[INFO] MatrixAssemblyPI: 22.477 [ms]
[INFO] AdjustPhi: 2.148 [ms]
[INFO] ConstrainPressure: 0.002 [ms]
[INFO] MatrixAssemblyPII: 6.31 [ms]
[OGL LOG][Proc: 0]: global_index_init: 0.019 [ms]
[OGL LOG][Proc: 0]p_local_coeffs: call_update: 0 [ms]
[OGL LOG][Proc: 0]p_non_local_coeffs: call_update: 0 [ms]
[OGL LOG][Proc: 0]p: update_local_matrix_data: 5.142 [ms]
[OGL LOG][Proc: 0]p: update_non_local_matrix_data: 0.048 [ms]
[OGL LOG][Proc: 0]p: regenerate_distributed_matrix: 17.125 [ms]
[OGL LOG][Proc: 0]p_matrix: call_update: 17.559 [ms]
[OGL LOG][Proc: 0]p_rhs: call_update: 0.59 [ms]
[OGL LOG][Preconditioner.H:121] Generate preconditioner BJ MaxBlockSize 1
[OGL LOG][Proc: 0]p: init_precond: 0.393 [ms]
[OGL LOG][StoppingCriterion.H:237] Creating stopping criterion with minIter 251 frequency 9
[OGL LOG][Proc: 0]p: generate_solver: 0.001 [ms]
[OGL LOG][Proc: 0]p: solve: 2366.5 [ms]
[OGL LOG][Proc: 0]p: copy_x_back: 0.339 [ms]
[OGL LOG][lduLduBase.H:330] 
Statistics:
	Time per iteration: 3454 [mu s]
	Time per residual norm calculation: 1392.000000 [mu s]
	Time per iteration and DOF: 3.454000 [ns]
	Retrieve results bandwidth 2.949000 [GByte/s]
[OGL LOG][Proc: 0]p: solve_multi_gpu: 2387.18 [ms]
BJcudaGKOCG:  Solving for p, Initial residual = 0.014063, Final residual = 8.19519e-05, No Iterations 685
[INFO] SolveP: 2394.36 [ms]
time step continuity errors : sum local = 1.1453e-08, global = 3.70649e-21, cumulative = -2.30476e-20
[INFO] ContinuityError: 5.708 [ms]
[INFO] CorrectBoundary: 0.102 [ms]
[INFO] PISOStep: 2439.3 [ms]
[INFO] MatrixAssemblyPI: 20.217 [ms]
[INFO] AdjustPhi: 1.976 [ms]
[INFO] ConstrainPressure: 0.002 [ms]
[INFO] MatrixAssemblyPII: 6.392 [ms]
[OGL LOG][Proc: 0]: global_index_init: 0.007 [ms]
[OGL LOG][Proc: 0]p_local_coeffs: call_update: 0 [ms]
[OGL LOG][Proc: 0]p_non_local_coeffs: call_update: 0 [ms]
[OGL LOG][Proc: 0]p: update_local_matrix_data: 4.279 [ms]
[OGL LOG][Proc: 0]p: update_non_local_matrix_data: 0.056 [ms]
[OGL LOG][Proc: 0]p: regenerate_distributed_matrix: 19.315 [ms]
[OGL LOG][Proc: 0]p_matrix: call_update: 19.939 [ms]
[OGL LOG][Proc: 0]p_rhs: call_update: 2.908 [ms]
[OGL LOG][Preconditioner.H:121] Generate preconditioner BJ MaxBlockSize 1
[OGL LOG][Proc: 0]p: init_precond: 0.389 [ms]
[OGL LOG][StoppingCriterion.H:237] Creating stopping criterion with minIter 411 frequency 11
[OGL LOG][Proc: 0]p: generate_solver: 0.001 [ms]
[OGL LOG][Proc: 0]p: solve: 2332.07 [ms]
[OGL LOG][Proc: 0]p: copy_x_back: 0.385 [ms]
[OGL LOG][lduLduBase.H:330] 
Statistics:
	Time per iteration: 3414 [mu s]
	Time per residual norm calculation: 1399.000000 [mu s]
	Time per iteration and DOF: 3.414000 [ns]
	Retrieve results bandwidth 2.597000 [GByte/s]
[OGL LOG][Proc: 0]p: solve_multi_gpu: 2359.61 [ms]
BJcudaGKOCG:  Solving for p, Initial residual = 0.0128142, Final residual = 8.20817e-05, No Iterations 683
[INFO] SolveP: 2365.34 [ms]
time step continuity errors : sum local = 1.14752e-08, global = 1.42181e-21, cumulative = -2.16258e-20
[INFO] ContinuityError: 5.507 [ms]
[INFO] CorrectBoundary: 0.095 [ms]
[INFO] PISOStep: 2408.52 [ms]
[INFO] TimeStep: 5040.71 [ms]
ExecutionTime = 65.45 s  ClockTime = 67 s

Time = 0.008

Courant Number mean: 0.0691917 max: 0.476948
[INFO] MatrixAssemblyU: 18.574 [ms]
DILUPBiCGStab:  Solving for Ux, Initial residual = 0.00499275, Final residual = 1.38412e-05, No Iterations 5
DILUPBiCGStab:  Solving for Uy, Initial residual = 0.0107129, Final residual = 2.28603e-05, No Iterations 5
DILUPBiCGStab:  Solving for Uz, Initial residual = 0.0215825, Final residual = 4.65629e-05, No Iterations 5
[INFO] MomentumPredictor: 160.787 [ms]
[INFO] MatrixAssemblyPI: 20.517 [ms]
[INFO] AdjustPhi: 0.998 [ms]
[INFO] ConstrainPressure: 0.002 [ms]
[INFO] MatrixAssemblyPII: 6.356 [ms]
[OGL LOG][Proc: 0]: global_index_init: 0.016 [ms]
[OGL LOG][Proc: 0]p_local_coeffs: call_update: 0 [ms]
[OGL LOG][Proc: 0]p_non_local_coeffs: call_update: 0 [ms]
[OGL LOG][Proc: 0]p: update_local_matrix_data: 5.072 [ms]
[OGL LOG][Proc: 0]p: update_non_local_matrix_data: 0.051 [ms]
[OGL LOG][Proc: 0]p: regenerate_distributed_matrix: 16.32 [ms]
[OGL LOG][Proc: 0]p_matrix: call_update: 16.829 [ms]
[OGL LOG][Proc: 0]p_rhs: call_update: 0.228 [ms]
[OGL LOG][Preconditioner.H:121] Generate preconditioner BJ MaxBlockSize 1
[OGL LOG][Proc: 0]p: init_precond: 0.393 [ms]
[OGL LOG][StoppingCriterion.H:237] Creating stopping criterion with minIter 409 frequency 11
[OGL LOG][Proc: 0]p: generate_solver: 0.001 [ms]
[OGL LOG][Proc: 0]p: solve: 1417.46 [ms]
[OGL LOG][Proc: 0]p: copy_x_back: 0.39 [ms]
[OGL LOG][lduLduBase.H:330] 
Statistics:
	Time per iteration: 3382 [mu s]
	Time per residual norm calculation: 1253.000000 [mu s]
	Time per iteration and DOF: 3.382000 [ns]
	Retrieve results bandwidth 2.564000 [GByte/s]
[OGL LOG][Proc: 0]p: solve_multi_gpu: 1436.66 [ms]
BJcudaGKOCG:  Solving for p, Initial residual = 0.0120751, Final residual = 5.84727e-05, No Iterations 419
[INFO] SolveP: 1443.13 [ms]
time step continuity errors : sum local = 8.63378e-09, global = 1.30804e-22, cumulative = -2.1495e-20
[INFO] ContinuityError: 2.363 [ms]
[INFO] CorrectBoundary: 0.124 [ms]
[INFO] PISOStep: 1481.42 [ms]
[INFO] MatrixAssemblyPI: 19.624 [ms]
[INFO] AdjustPhi: 0.998 [ms]
[INFO] ConstrainPressure: 0.002 [ms]
[INFO] MatrixAssemblyPII: 6.323 [ms]
[OGL LOG][Proc: 0]: global_index_init: 0.014 [ms]
[OGL LOG][Proc: 0]p_local_coeffs: call_update: 0 [ms]
[OGL LOG][Proc: 0]p_non_local_coeffs: call_update: 0 [ms]
[OGL LOG][Proc: 0]p: update_local_matrix_data: 5.225 [ms]
[OGL LOG][Proc: 0]p: update_non_local_matrix_data: 0.05 [ms]
[OGL LOG][Proc: 0]p: regenerate_distributed_matrix: 16.714 [ms]
[OGL LOG][Proc: 0]p_matrix: call_update: 17.184 [ms]
[OGL LOG][Proc: 0]p_rhs: call_update: 0.409 [ms]
[OGL LOG][Preconditioner.H:121] Generate preconditioner BJ MaxBlockSize 1
[OGL LOG][Proc: 0]p: init_precond: 0.402 [ms]
[OGL LOG][StoppingCriterion.H:237] Creating stopping criterion with minIter 251 frequency 9
[OGL LOG][Proc: 0]p: generate_solver: 0.001 [ms]
[OGL LOG][Proc: 0]p: solve: 987.22 [ms]
[OGL LOG][Proc: 0]p: copy_x_back: 0.359 [ms]
[OGL LOG][lduLduBase.H:330] 
Statistics:
	Time per iteration: 3415 [mu s]
	Time per residual norm calculation: 1251.000000 [mu s]
	Time per iteration and DOF: 3.415000 [ns]
	Retrieve results bandwidth 2.785000 [GByte/s]
[OGL LOG][Proc: 0]p: solve_multi_gpu: 1006.64 [ms]
BJcudaGKOCG:  Solving for p, Initial residual = 0.0111942, Final residual = 9.771e-05, No Iterations 289
[INFO] SolveP: 1012.99 [ms]
time step continuity errors : sum local = 1.38855e-08, global = -9.16034e-21, cumulative = -3.06553e-20
[INFO] ContinuityError: 6.442 [ms]
[INFO] CorrectBoundary: 0.749 [ms]
[INFO] PISOStep: 1054.86 [ms]
[INFO] TimeStep: 2720.35 [ms]
ExecutionTime = 68.16 s  ClockTime = 69 s

Time = 0.0085

Courant Number mean: 0.0704368 max: 0.477455
[INFO] MatrixAssemblyU: 18.142 [ms]
DILUPBiCGStab:  Solving for Ux, Initial residual = 0.00459839, Final residual = 1.24983e-05, No Iterations 5
DILUPBiCGStab:  Solving for Uy, Initial residual = 0.0098908, Final residual = 2.1019e-05, No Iterations 5
DILUPBiCGStab:  Solving for Uz, Initial residual = 0.0199402, Final residual = 4.32003e-05, No Iterations 5
[INFO] MomentumPredictor: 160.642 [ms]
[INFO] MatrixAssemblyPI: 20.402 [ms]
[INFO] AdjustPhi: 1.189 [ms]
[INFO] ConstrainPressure: 0.002 [ms]
[INFO] MatrixAssemblyPII: 6.316 [ms]
[OGL LOG][Proc: 0]: global_index_init: 0.007 [ms]
[OGL LOG][Proc: 0]p_local_coeffs: call_update: 0 [ms]
[OGL LOG][Proc: 0]p_non_local_coeffs: call_update: 0 [ms]
[OGL LOG][Proc: 0]p: update_local_matrix_data: 5.08 [ms]
[OGL LOG][Proc: 0]p: update_non_local_matrix_data: 0.051 [ms]
[OGL LOG][Proc: 0]p: regenerate_distributed_matrix: 16.271 [ms]
[OGL LOG][Proc: 0]p_matrix: call_update: 16.723 [ms]
[OGL LOG][Proc: 0]p_rhs: call_update: 0.555 [ms]
[OGL LOG][Preconditioner.H:121] Generate preconditioner BJ MaxBlockSize 1
[OGL LOG][Proc: 0]p: init_precond: 0.393 [ms]
[OGL LOG][StoppingCriterion.H:237] Creating stopping criterion with minIter 173 frequency 7
[OGL LOG][Proc: 0]p: generate_solver: 0.001 [ms]
[OGL LOG][Proc: 0]p: solve: 1000.52 [ms]
[OGL LOG][Proc: 0]p: copy_x_back: 0.681 [ms]
[OGL LOG][lduLduBase.H:330] 
Statistics:
	Time per iteration: 3474 [mu s]
	Time per residual norm calculation: 1405.000000 [mu s]
	Time per iteration and DOF: 3.474000 [ns]
	Retrieve results bandwidth 1.468000 [GByte/s]
[OGL LOG][Proc: 0]p: solve_multi_gpu: 1020.39 [ms]
BJcudaGKOCG:  Solving for p, Initial residual = 0.0105487, Final residual = 9.72372e-05, No Iterations 288
[INFO] SolveP: 1026.84 [ms]
time step continuity errors : sum local = 1.43281e-08, global = 4.02387e-21, cumulative = -2.66314e-20
[INFO] ContinuityError: 2.803 [ms]
[INFO] CorrectBoundary: 0.112 [ms]
[INFO] PISOStep: 1069.24 [ms]
[INFO] MatrixAssemblyPI: 21.487 [ms]
[INFO] AdjustPhi: 1.246 [ms]
[INFO] ConstrainPressure: 0.002 [ms]
[INFO] MatrixAssemblyPII: 7.322 [ms]
[OGL LOG][Proc: 0]: global_index_init: 0.015 [ms]
[OGL LOG][Proc: 0]p_local_coeffs: call_update: 0 [ms]
[OGL LOG][Proc: 0]p_non_local_coeffs: call_update: 0 [ms]
[OGL LOG][Proc: 0]p: update_local_matrix_data: 5.075 [ms]
[OGL LOG][Proc: 0]p: update_non_local_matrix_data: 0.076 [ms]
[OGL LOG][Proc: 0]p: regenerate_distributed_matrix: 16.73 [ms]
[OGL LOG][Proc: 0]p_matrix: call_update: 17.127 [ms]
[OGL LOG][Proc: 0]p_rhs: call_update: 0.737 [ms]
[OGL LOG][Preconditioner.H:121] Generate preconditioner BJ MaxBlockSize 1
[OGL LOG][Proc: 0]p: init_precond: 0.39 [ms]
[OGL LOG][StoppingCriterion.H:237] Creating stopping criterion with minIter 172 frequency 7
[OGL LOG][Proc: 0]p: generate_solver: 0.001 [ms]
[OGL LOG][Proc: 0]p: solve: 1004.4 [ms]
[OGL LOG][Proc: 0]p: copy_x_back: 0.383 [ms]
[OGL LOG][lduLduBase.H:330] 
Statistics:
	Time per iteration: 3487 [mu s]
	Time per residual norm calculation: 1400.000000 [mu s]
	Time per iteration and DOF: 3.487000 [ns]
	Retrieve results bandwidth 2.610000 [GByte/s]
[OGL LOG][Proc: 0]p: solve_multi_gpu: 1024.2 [ms]
BJcudaGKOCG:  Solving for p, Initial residual = 0.0098428, Final residual = 8.62913e-05, No Iterations 288
[INFO] SolveP: 1030.74 [ms]
time step continuity errors : sum local = 1.22079e-08, global = -3.03842e-21, cumulative = -2.96699e-20
[INFO] ContinuityError: 2.389 [ms]
[INFO] CorrectBoundary: 0.086 [ms]
[INFO] PISOStep: 1071.58 [ms]
[INFO] TimeStep: 2324.23 [ms]
ExecutionTime = 70.48 s  ClockTime = 72 s

Time = 0.009

Courant Number mean: 0.0715997 max: 0.477913
[INFO] MatrixAssemblyU: 18.724 [ms]
DILUPBiCGStab:  Solving for Ux, Initial residual = 0.0042542, Final residual = 1.14235e-05, No Iterations 5
DILUPBiCGStab:  Solving for Uy, Initial residual = 0.00916939, Final residual = 1.94279e-05, No Iterations 5
DILUPBiCGStab:  Solving for Uz, Initial residual = 0.0185243, Final residual = 4.18707e-05, No Iterations 5
[INFO] MomentumPredictor: 161.331 [ms]
[INFO] MatrixAssemblyPI: 20.491 [ms]
[INFO] AdjustPhi: 0.916 [ms]
[INFO] ConstrainPressure: 0.002 [ms]
[INFO] MatrixAssemblyPII: 6.33 [ms]
[OGL LOG][Proc: 0]: global_index_init: 0.009 [ms]
[OGL LOG][Proc: 0]p_local_coeffs: call_update: 0 [ms]
[OGL LOG][Proc: 0]p_non_local_coeffs: call_update: 0 [ms]
[OGL LOG][Proc: 0]p: update_local_matrix_data: 5.244 [ms]
[OGL LOG][Proc: 0]p: update_non_local_matrix_data: 0.051 [ms]
[OGL LOG][Proc: 0]p: regenerate_distributed_matrix: 16.906 [ms]
[OGL LOG][Proc: 0]p_matrix: call_update: 17.288 [ms]
[OGL LOG][Proc: 0]p_rhs: call_update: 0.646 [ms]
[OGL LOG][Preconditioner.H:121] Generate preconditioner BJ MaxBlockSize 1
[OGL LOG][Proc: 0]p: init_precond: 0.396 [ms]
[OGL LOG][StoppingCriterion.H:237] Creating stopping criterion with minIter 172 frequency 7
[OGL LOG][Proc: 0]p: generate_solver: 0.001 [ms]
[OGL LOG][Proc: 0]p: solve: 999.675 [ms]
[OGL LOG][Proc: 0]p: copy_x_back: 0.376 [ms]
[OGL LOG][lduLduBase.H:330] 
Statistics:
	Time per iteration: 3471 [mu s]
	Time per residual norm calculation: 1260.000000 [mu s]
	Time per iteration and DOF: 3.471000 [ns]
	Retrieve results bandwidth 2.659000 [GByte/s]
[OGL LOG][Proc: 0]p: solve_multi_gpu: 1019.41 [ms]
BJcudaGKOCG:  Solving for p, Initial residual = 0.00957013, Final residual = 8.60176e-05, No Iterations 288
[INFO] SolveP: 1026.35 [ms]
time step continuity errors : sum local = 1.2834e-08, global = -1.44007e-21, cumulative = -3.11099e-20
[INFO] ContinuityError: 2.358 [ms]
[INFO] CorrectBoundary: 0.101 [ms]
[INFO] PISOStep: 1064.49 [ms]
[INFO] MatrixAssemblyPI: 19.769 [ms]
[INFO] AdjustPhi: 0.92 [ms]
[INFO] ConstrainPressure: 0.002 [ms]
[INFO] MatrixAssemblyPII: 6.465 [ms]
[OGL LOG][Proc: 0]: global_index_init: 0.01 [ms]
[OGL LOG][Proc: 0]p_local_coeffs: call_update: 0 [ms]
[OGL LOG][Proc: 0]p_non_local_coeffs: call_update: 0 [ms]
[OGL LOG][Proc: 0]p: update_local_matrix_data: 5.36 [ms]
[OGL LOG][Proc: 0]p: update_non_local_matrix_data: 0.05 [ms]
[OGL LOG][Proc: 0]p: regenerate_distributed_matrix: 16.542 [ms]
[OGL LOG][Proc: 0]p_matrix: call_update: 17.136 [ms]
[OGL LOG][Proc: 0]p_rhs: call_update: 0.691 [ms]
[OGL LOG][Preconditioner.H:121] Generate preconditioner BJ MaxBlockSize 1
[OGL LOG][Proc: 0]p: init_precond: 0.391 [ms]
[OGL LOG][StoppingCriterion.H:237] Creating stopping criterion with minIter 172 frequency 7
[OGL LOG][Proc: 0]p: generate_solver: 0.001 [ms]
[OGL LOG][Proc: 0]p: solve: 967.182 [ms]
[OGL LOG][Proc: 0]p: copy_x_back: 0.546 [ms]
[OGL LOG][lduLduBase.H:330] 
Statistics:
	Time per iteration: 3441 [mu s]
	Time per residual norm calculation: 1251.000000 [mu s]
	Time per iteration and DOF: 3.441000 [ns]
	Retrieve results bandwidth 1.831000 [GByte/s]
[OGL LOG][Proc: 0]p: solve_multi_gpu: 987.18 [ms]
BJcudaGKOCG:  Solving for p, Initial residual = 0.00900618, Final residual = 9.47997e-05, No Iterations 281
[INFO] SolveP: 993.649 [ms]
time step continuity errors : sum local = 1.35578e-08, global = -6.45436e-21, cumulative = -3.75643e-20
[INFO] ContinuityError: 2.353 [ms]
[INFO] CorrectBoundary: 0.09 [ms]
[INFO] PISOStep: 1031.19 [ms]
[INFO] TimeStep: 2279.45 [ms]
ExecutionTime = 72.76 s  ClockTime = 74 s

Time = 0.0095

Courant Number mean: 0.0726862 max: 0.478326
[INFO] MatrixAssemblyU: 18.071 [ms]
DILUPBiCGStab:  Solving for Ux, Initial residual = 0.00395181, Final residual = 1.0439e-05, No Iterations 5
DILUPBiCGStab:  Solving for Uy, Initial residual = 0.0085201, Final residual = 1.80483e-05, No Iterations 5
DILUPBiCGStab:  Solving for Uz, Initial residual = 0.0175025, Final residual = 4.0264e-05, No Iterations 5
[INFO] MomentumPredictor: 159.812 [ms]
[INFO] MatrixAssemblyPI: 20.251 [ms]
[INFO] AdjustPhi: 1.064 [ms]
[INFO] ConstrainPressure: 0.002 [ms]
[INFO] MatrixAssemblyPII: 6.27 [ms]
[OGL LOG][Proc: 0]: global_index_init: 0.007 [ms]
[OGL LOG][Proc: 0]p_local_coeffs: call_update: 0 [ms]
[OGL LOG][Proc: 0]p_non_local_coeffs: call_update: 0 [ms]
[OGL LOG][Proc: 0]p: update_local_matrix_data: 5.288 [ms]
[OGL LOG][Proc: 0]p: update_non_local_matrix_data: 0.05 [ms]
[OGL LOG][Proc: 0]p: regenerate_distributed_matrix: 16.924 [ms]
[OGL LOG][Proc: 0]p_matrix: call_update: 17.581 [ms]
[OGL LOG][Proc: 0]p_rhs: call_update: 0.296 [ms]
[OGL LOG][Preconditioner.H:121] Generate preconditioner BJ MaxBlockSize 1
[OGL LOG][Proc: 0]p: init_precond: 0.392 [ms]
[OGL LOG][StoppingCriterion.H:237] Creating stopping criterion with minIter 168 frequency 7
[OGL LOG][Proc: 0]p: generate_solver: 0.001 [ms]
[OGL LOG][Proc: 0]p: solve: 1020.63 [ms]
[OGL LOG][Proc: 0]p: copy_x_back: 0.355 [ms]
[OGL LOG][lduLduBase.H:330] 
Statistics:
	Time per iteration: 3459 [mu s]
	Time per residual norm calculation: 1259.000000 [mu s]
	Time per iteration and DOF: 3.459000 [ns]
	Retrieve results bandwidth 2.816000 [GByte/s]
[OGL LOG][Proc: 0]p: solve_multi_gpu: 1040.05 [ms]
BJcudaGKOCG:  Solving for p, Initial residual = 0.00870748, Final residual = 9.8502e-05, No Iterations 295
[INFO] SolveP: 1046.97 [ms]
time step continuity errors : sum local = 1.50477e-08, global = -5.00341e-21, cumulative = -4.25677e-20
[INFO] ContinuityError: 4.744 [ms]
[INFO] CorrectBoundary: 0.089 [ms]
[INFO] PISOStep: 1087.36 [ms]
[INFO] MatrixAssemblyPI: 20.567 [ms]
[INFO] AdjustPhi: 2.43 [ms]
[INFO] ConstrainPressure: 0.002 [ms]
[INFO] MatrixAssemblyPII: 6.27 [ms]
[OGL LOG][Proc: 0]: global_index_init: 0.008 [ms]
[OGL LOG][Proc: 0]p_local_coeffs: call_update: 0 [ms]
[OGL LOG][Proc: 0]p_non_local_coeffs: call_update: 0 [ms]
[OGL LOG][Proc: 0]p: update_local_matrix_data: 5.187 [ms]
[OGL LOG][Proc: 0]p: update_non_local_matrix_data: 0.051 [ms]
[OGL LOG][Proc: 0]p: regenerate_distributed_matrix: 16.24 [ms]
[OGL LOG][Proc: 0]p_matrix: call_update: 17.381 [ms]
[OGL LOG][Proc: 0]p_rhs: call_update: 0.13 [ms]
[OGL LOG][Preconditioner.H:121] Generate preconditioner BJ MaxBlockSize 1
[OGL LOG][Proc: 0]p: init_precond: 0.396 [ms]
[OGL LOG][StoppingCriterion.H:237] Creating stopping criterion with minIter 177 frequency 7
[OGL LOG][Proc: 0]p: generate_solver: 0.001 [ms]
[OGL LOG][Proc: 0]p: solve: 998.529 [ms]
[OGL LOG][Proc: 0]p: copy_x_back: 0.361 [ms]
[OGL LOG][lduLduBase.H:330] 
Statistics:
	Time per iteration: 3467 [mu s]
	Time per residual norm calculation: 1259.000000 [mu s]
	Time per iteration and DOF: 3.467000 [ns]
	Retrieve results bandwidth 2.770000 [GByte/s]
[OGL LOG][Proc: 0]p: solve_multi_gpu: 1017.81 [ms]
BJcudaGKOCG:  Solving for p, Initial residual = 0.00823416, Final residual = 9.52836e-05, No Iterations 288
[INFO] SolveP: 1024.48 [ms]
time step continuity errors : sum local = 1.36533e-08, global = 9.78764e-21, cumulative = -3.278e-20
[INFO] ContinuityError: 2.42 [ms]
[INFO] CorrectBoundary: 0.419 [ms]
[INFO] PISOStep: 1065.29 [ms]
[INFO] TimeStep: 2334.38 [ms]
ExecutionTime = 75.09 s  ClockTime = 76 s

Time = 0.01

Courant Number mean: 0.0737032 max: 0.478702
[INFO] MatrixAssemblyU: 19.024 [ms]
DILUPBiCGStab:  Solving for Ux, Initial residual = 0.00367664, Final residual = 9.61639e-06, No Iterations 5
DILUPBiCGStab:  Solving for Uy, Initial residual = 0.00796049, Final residual = 1.68678e-05, No Iterations 5
DILUPBiCGStab:  Solving for Uz, Initial residual = 0.0163927, Final residual = 4.09348e-05, No Iterations 5
[INFO] MomentumPredictor: 160.492 [ms]
[INFO] MatrixAssemblyPI: 21.136 [ms]
[INFO] AdjustPhi: 0.932 [ms]
[INFO] ConstrainPressure: 0.002 [ms]
[INFO] MatrixAssemblyPII: 6.295 [ms]
[OGL LOG][Proc: 0]: global_index_init: 0.014 [ms]
[OGL LOG][Proc: 0]p_local_coeffs: call_update: 0 [ms]
[OGL LOG][Proc: 0]p_non_local_coeffs: call_update: 0 [ms]
[OGL LOG][Proc: 0]p: update_local_matrix_data: 5.348 [ms]
[OGL LOG][Proc: 0]p: update_non_local_matrix_data: 0.051 [ms]
[OGL LOG][Proc: 0]p: regenerate_distributed_matrix: 19.167 [ms]
[OGL LOG][Proc: 0]p_matrix: call_update: 19.824 [ms]
[OGL LOG][Proc: 0]p_rhs: call_update: 0.545 [ms]
[OGL LOG][Preconditioner.H:121] Generate preconditioner BJ MaxBlockSize 1
[OGL LOG][Proc: 0]p: init_precond: 0.388 [ms]
[OGL LOG][StoppingCriterion.H:237] Creating stopping criterion with minIter 172 frequency 7
[OGL LOG][Proc: 0]p: generate_solver: 0.001 [ms]
[OGL LOG][Proc: 0]p: solve: 1048.01 [ms]
[OGL LOG][Proc: 0]p: copy_x_back: 0.355 [ms]
[OGL LOG][lduLduBase.H:330] 
Statistics:
	Time per iteration: 3470 [mu s]
	Time per residual norm calculation: 1251.000000 [mu s]
	Time per iteration and DOF: 3.470000 [ns]
	Retrieve results bandwidth 2.816000 [GByte/s]
[OGL LOG][Proc: 0]p: solve_multi_gpu: 1069.69 [ms]
BJcudaGKOCG:  Solving for p, Initial residual = 0.00826283, Final residual = 8.94155e-05, No Iterations 302
[INFO] SolveP: 1077.54 [ms]
time step continuity errors : sum local = 1.40214e-08, global = 7.58235e-21, cumulative = -2.51977e-20
[INFO] ContinuityError: 4.487 [ms]
[INFO] CorrectBoundary: 0.924 [ms]
[INFO] PISOStep: 1120.14 [ms]
[INFO] MatrixAssemblyPI: 21.263 [ms]
[INFO] AdjustPhi: 1.207 [ms]
[INFO] ConstrainPressure: 0.002 [ms]
[INFO] MatrixAssemblyPII: 6.218 [ms]
[OGL LOG][Proc: 0]: global_index_init: 0.007 [ms]
[OGL LOG][Proc: 0]p_local_coeffs: call_update: 0 [ms]
[OGL LOG][Proc: 0]p_non_local_coeffs: call_update: 0 [ms]
[OGL LOG][Proc: 0]p: update_local_matrix_data: 5.065 [ms]
[OGL LOG][Proc: 0]p: update_non_local_matrix_data: 0.055 [ms]
[OGL LOG][Proc: 0]p: regenerate_distributed_matrix: 16.47 [ms]
[OGL LOG][Proc: 0]p_matrix: call_update: 16.768 [ms]
[OGL LOG][Proc: 0]p_rhs: call_update: 0.917 [ms]
[OGL LOG][Preconditioner.H:121] Generate preconditioner BJ MaxBlockSize 1
[OGL LOG][Proc: 0]p: init_precond: 0.393 [ms]
[OGL LOG][StoppingCriterion.H:237] Creating stopping criterion with minIter 181 frequency 7
[OGL LOG][Proc: 0]p: generate_solver: 0.001 [ms]
[OGL LOG][Proc: 0]p: solve: 1026.44 [ms]
[OGL LOG][Proc: 0]p: copy_x_back: 0.356 [ms]
[OGL LOG][lduLduBase.H:330] 
Statistics:
	Time per iteration: 3479 [mu s]
	Time per residual norm calculation: 1252.000000 [mu s]
	Time per iteration and DOF: 3.479000 [ns]
	Retrieve results bandwidth 2.808000 [GByte/s]
[OGL LOG][Proc: 0]p: solve_multi_gpu: 1046.21 [ms]
BJcudaGKOCG:  Solving for p, Initial residual = 0.00783624, Final residual = 9.05464e-05, No Iterations 295
[INFO] SolveP: 1052.7 [ms]
time step continuity errors : sum local = 1.31546e-08, global = 1.05745e-21, cumulative = -2.41403e-20
[INFO] ContinuityError: 2.487 [ms]
[INFO] CorrectBoundary: 0.085 [ms]
[INFO] PISOStep: 1092.5 [ms]
[INFO] TimeStep: 2395.87 [ms]
ExecutionTime = 77.49 s  ClockTime = 79 s

End

Finalising parallel run
