/*---------------------------------------------------------------------------*\
| =========                 |                                                 |
| \\      /  F ield         | OpenFOAM: The Open Source CFD Toolbox           |
|  \\    /   O peration     | Version:  2306                                  |
|   \\  /    A nd           | Website:  www.openfoam.com                      |
|    \\/     M anipulation  |                                                 |
\*---------------------------------------------------------------------------*/
Build  : c423ebec-20231012 OPENFOAM=2306 version=v2306
Arch   : "LSB;label=32;scalar=64"
Exec   : simpleFoam -parallel -case /hkfs/work/workspace/scratch/eq4036-windsorbody_setup/workspace/088e85f405066bc443d5862a734316ab/case
Date   : Feb 16 2024
Time   : 20:33:26
Host   : hkn0424.localdomain
PID    : 124655
I/O    : uncollated
Case   : /hkfs/work/workspace/scratch/eq4036-windsorbody_setup/workspace/088e85f405066bc443d5862a734316ab/case
nProcs : 8
Hosts  :
(
    (hkn0424.localdomain 8)
)
Pstream initialized with:
    floatTransfer      : false
    nProcsSimpleSum    : 0
    nonBlockingExchange: 0 (tuning: 0)
    exchange algorithm : -1
    commsType          : nonBlocking
    polling iterations : 0
trapFpe: Floating point exception trapping enabled (FOAM_SIGFPE).
fileModificationChecking : Monitoring run-time modified files using timeStampMaster (fileModificationSkew 5, maxFileModificationPolls 20)
allowSystemOperations : Allowing user-supplied system call operations

// * * * * * * * * * * * * * * * * * * * * * * * * * * * * * * * * * * * * * //
Create time

--> FOAM Warning : 
    From void* Foam::dlLibraryTable::openLibrary(const Foam::fileName&, bool)
    in file db/dynamicLibrary/dlLibraryTable/dlLibraryTable.C at line 188
    Could not load "libpetscFoam.so"
libpetscFoam.so: cannot open shared object file: No such file or directory
Create mesh for time = 0


SIMPLE: convergence criteria
    field p	 tolerance 1e-08
    field U	 tolerance 1e-08
    field k	 tolerance 1e-08
    field omega	 tolerance 1e-08
    field nuTilda	 tolerance 1e-08

Reading field p

Reading field U

Reading/calculating face flux field phi

Selecting incompressible transport model Newtonian
Selecting turbulence model type RAS
Selecting RAS turbulence model SpalartAllmaras
Selecting patchDistMethod meshWave
ft2 term: inactive
RAS
{
    RASModel        SpalartAllmaras;
    turbulence      on;
    printCoeffs     on;
    sigmaNut        0.66666;
    kappa           0.41;
    Cb1             0.1355;
    Cb2             0.622;
    Cw2             0.3;
    Cw3             2;
    Cv1             7.1;
    Cs              0.3;
    ck              0.07000000000000001;
    ft2             false;
    Ct3             1.2;
    Ct4             0.5;
}

No MRF models present

Creating finite volume options from "system/fvOptions"

Selecting finite volume options type velocityDampingConstraint
    Source: velocityDamping
    - selecting all cells
    - selected 25228544 cell(s) with volume 111.3033220638994

Starting time loop

--> FOAM Warning : 
    From bool Foam::functionObjectList::read()
    in file db/functionObjects/functionObjectList/functionObjectList.C at line 1035
    Reading "system/controlDict" at line 2 to 41
    Entry 'lref' is not a dictionary
--> FOAM Warning : 
    From bool Foam::functionObjectList::read()
    in file db/functionObjects/functionObjectList/functionObjectList.C at line 1035
    Reading "system/controlDict" at line 2 to 41
    Entry 'Aref' is not a dictionary
--> FOAM Warning : 
    From bool Foam::functionObjectList::read()
    in file db/functionObjects/functionObjectList/functionObjectList.C at line 1035
    Reading "system/controlDict" at line 2 to 41
    Entry 'yawAngle' is not a dictionary
--> FOAM Warning : 
    From bool Foam::functionObjectList::read()
    in file db/functionObjects/functionObjectList/functionObjectList.C at line 1035
    Reading "system/controlDict" at line 2 to 41
    Entry 'lDomain' is not a dictionary
--> FOAM Warning : 
    From bool Foam::functionObjectList::read()
    in file db/functionObjects/functionObjectList/functionObjectList.C at line 1035
    Reading "system/controlDict" at line 2 to 41
    Entry 'bDomain' is not a dictionary
--> FOAM Warning : 
    From bool Foam::functionObjectList::read()
    in file db/functionObjects/functionObjectList/functionObjectList.C at line 1035
    Reading "system/controlDict" at line 2 to 41
    Entry 'hDomain' is not a dictionary
--> FOAM Warning : 
    From bool Foam::functionObjectList::read()
    in file db/functionObjects/functionObjectList/functionObjectList.C at line 1035
    Reading "system/controlDict" at line 2 to 41
    Entry 'xCenter' is not a dictionary
--> FOAM Warning : 
    From bool Foam::functionObjectList::read()
    in file db/functionObjects/functionObjectList/functionObjectList.C at line 1035
    Reading "system/controlDict" at line 2 to 41
    Entry 'yCenter' is not a dictionary
--> FOAM Warning : 
    From bool Foam::functionObjectList::read()
    in file db/functionObjects/functionObjectList/functionObjectList.C at line 1035
    Reading "system/controlDict" at line 2 to 41
    Entry 'zCenter' is not a dictionary
--> FOAM Warning : 
    From bool Foam::functionObjectList::read()
    in file db/functionObjects/functionObjectList/functionObjectList.C at line 1035
    Reading "system/controlDict" at line 2 to 41
    Entry 'inletPatch' is not a dictionary
--> FOAM Warning : 
    From bool Foam::functionObjectList::read()
    in file db/functionObjects/functionObjectList/functionObjectList.C at line 1035
    Reading "system/controlDict" at line 2 to 41
    Entry 'outletPatch' is not a dictionary
--> FOAM Warning : 
    From bool Foam::functionObjectList::read()
    in file db/functionObjects/functionObjectList/functionObjectList.C at line 1035
    Reading "system/controlDict" at line 2 to 41
    Entry 'wallPatches' is not a dictionary
--> FOAM Warning : 
    From bool Foam::functionObjectList::read()
    in file db/functionObjects/functionObjectList/functionObjectList.C at line 1035
    Reading "system/controlDict" at line 2 to 41
    Entry 'forcesWallPatches' is not a dictionary
--> FOAM Warning : 
    From bool Foam::functionObjectList::read()
    in file db/functionObjects/functionObjectList/functionObjectList.C at line 1035
    Reading "system/controlDict" at line 2 to 41
    Entry 'symmPatches' is not a dictionary
--> FOAM Warning : 
    From bool Foam::functionObjectList::read()
    in file db/functionObjects/functionObjectList/functionObjectList.C at line 1035
    Reading "system/controlDict" at line 2 to 41
    Entry 'Uinf' is not a dictionary
--> FOAM Warning : 
    From bool Foam::functionObjectList::read()
    in file db/functionObjects/functionObjectList/functionObjectList.C at line 1035
    Reading "system/controlDict" at line 2 to 41
    Entry 'UinfMag' is not a dictionary
--> FOAM Warning : 
    From bool Foam::functionObjectList::read()
    in file db/functionObjects/functionObjectList/functionObjectList.C at line 1035
    Reading "system/controlDict" at line 2 to 41
    Entry 'nu' is not a dictionary
--> FOAM Warning : 
    From bool Foam::functionObjectList::read()
    in file db/functionObjects/functionObjectList/functionObjectList.C at line 1035
    Reading "system/controlDict" at line 2 to 41
    Entry 'pref' is not a dictionary
--> FOAM Warning : 
    From bool Foam::functionObjectList::read()
    in file db/functionObjects/functionObjectList/functionObjectList.C at line 1035
    Reading "system/controlDict" at line 2 to 41
    Entry 'viscRatio' is not a dictionary
--> FOAM Warning : 
    From bool Foam::functionObjectList::read()
    in file db/functionObjects/functionObjectList/functionObjectList.C at line 1035
    Reading "system/controlDict" at line 2 to 41
    Entry 'Tu' is not a dictionary
--> FOAM Warning : 
    From bool Foam::functionObjectList::read()
    in file db/functionObjects/functionObjectList/functionObjectList.C at line 1035
    Reading "system/controlDict" at line 2 to 41
    Entry 'LESturbModel' is not a dictionary
--> FOAM Warning : 
    From bool Foam::functionObjectList::read()
    in file db/functionObjects/functionObjectList/functionObjectList.C at line 1035
    Reading "system/controlDict" at line 2 to 41
    Entry 'RASturbModel' is not a dictionary
--> FOAM Warning : 
    From bool Foam::functionObjectList::read()
    in file db/functionObjects/functionObjectList/functionObjectList.C at line 1035
    Reading "system/controlDict" at line 2 to 41
    Entry 'deltaTurb' is not a dictionary
--> FOAM Warning : 
    From bool Foam::functionObjectList::read()
    in file db/functionObjects/functionObjectList/functionObjectList.C at line 1035
    Reading "system/controlDict" at line 2 to 41
    Entry 'dt' is not a dictionary
--> FOAM Warning : 
    From bool Foam::functionObjectList::read()
    in file db/functionObjects/functionObjectList/functionObjectList.C at line 1035
    Reading "system/controlDict" at line 2 to 41
    Entry 'tAvg' is not a dictionary
--> FOAM Warning : 
    From bool Foam::functionObjectList::read()
    in file db/functionObjects/functionObjectList/functionObjectList.C at line 1035
    Reading "system/controlDict" at line 2 to 41
    Entry 'tEnd' is not a dictionary
--> FOAM Warning : 
    From bool Foam::functionObjectList::read()
    in file db/functionObjects/functionObjectList/functionObjectList.C at line 1035
    Reading "system/controlDict" at line 2 to 41
    Entry 'writeInterval_' is not a dictionary
--> FOAM Warning : 
    From bool Foam::functionObjectList::read()
    in file db/functionObjects/functionObjectList/functionObjectList.C at line 1035
    Reading "system/controlDict" at line 2 to 41
    Entry 'nCores' is not a dictionary
--> FOAM Warning : 
    From bool Foam::functionObjectList::read()
    in file db/functionObjects/functionObjectList/functionObjectList.C at line 1035
    Reading "system/controlDict" at line 2 to 41
    Entry 'interpScheme' is not a dictionary
--> FOAM Warning : 
    From bool Foam::functionObjectList::read()
    in file db/functionObjects/functionObjectList/functionObjectList.C at line 1035
    Reading "system/controlDict" at line 2 to 41
    Entry 'probeField' is not a dictionary
wallShearStress wallShearStress:
    processing wall patches: 
        Windsor_Body
        CFDWT_Floor
        Windsor_Pins
        Windsor_Base
        Windsor_Body_2
        CFDWT_Floor_2
        Windsor_Pins_2
        Windsor_Base_2
        Windsor_Body_3
        CFDWT_Floor_3
        Windsor_Pins_3
        Windsor_Base_3
        Windsor_Body_4
        CFDWT_Floor_4
        Windsor_Pins_4
        Windsor_Base_4

pressure calc_cp:
    Operating mode: staticCoeff
    Not including hydrostatic effects

forceCoeffs forceCoeffsAll:
    rho: rhoInf
    Freestream density (rhoInf) set to 1
    Not including porosity effects
    magUInf: 40
    lRef   : 0.6375
    Aref   : 0.1124
    rhoInf : 1
    Selecting all coefficients
    - Drag force: Cd
    - Drag force front: Cd(f)
    - Drag force rear: Cd(r)
    - Lift force: Cl
    - Lift force front: Cl(f)
    - Lift force rear: Cl(r)
    - Pitch moment: CmPitch
    - Roll moment: CmRoll
    - Yaw moment: CmYaw
    - Side force: Cs
    - Side force front: Cs(f)
    - Side force rear: Cs(r)


forceCoeffs dragCoeffBase:
    rho: rhoInf
    Freestream density (rhoInf) set to 1
    Not including porosity effects
    magUInf: 40
    lRef   : 0.6375
    Aref   : 0.1124
    rhoInf : 1
    Selecting coefficients:
    - Drag force: Cd


Time = 1

velocityDampingConstraint velocityDamping damped 0 (0%) of cells, with max limit 300
[OGL LOG][lduLduBase.H:119] Initialising OGL
	OGL commit:  e75313f+
	Branch: dev 
	Build type: Debug
	Ginkgo version: 1.8.0 ( develop)
	Ginkgo commit: sparse-communicator
	MPI is GPU aware: 1
	Forces host buffer based communication: 0
	CPU ranks per GPU: 1
	Matrix format: Coo
	End OGL_INFO
[OGL LOG][Proc: 0]: global_index_init: 0.07099999999999999 [ms]
[OGL LOG][Proc: 0]Ux_local_cols: call_init: 1.472 [ms]
[OGL LOG][Proc: 0]Ux_local_rows: call_init: 0.504 [ms]
[OGL LOG][Proc: 0]Ux_local_ldu_map: call_init: 0.413 [ms]
[OGL LOG][Proc: 0]Ux_local_coeffs: call_init: 5.04 [ms]
[OGL LOG][Proc: 0]Ux_non_local_cols: call_init: 0.174 [ms]
[OGL LOG][Proc: 0]Ux_non_local_rows: call_init: 0.244 [ms]
[OGL LOG][Proc: 0]Ux_non_local_ldu_map: call_init: 0.22 [ms]
[OGL LOG][Proc: 0]Ux_non_local_coeffs: call_init: 0.255 [ms]
[OGL LOG][Proc: 0]Ux: init_local_sparsity_pattern: 130995.322 [ms]
[OGL LOG][Proc: 0]Ux: init_non_local_sparsity_pattern: 65.529 [ms]
[OGL LOG][Proc: 0]Ux: update_local_matrix_data: 173.925 [ms]
[OGL LOG][Proc: 0]Ux: update_non_local_matrix_data: 0.732 [ms]
[OGL LOG][Proc: 0]device_partition: call_init: 0.257 [ms]
[OGL LOG][Proc: 0]Ux_matrix: call_init: 295.821 [ms]
[OGL LOG][Proc: 0]Ux_rhs: call_init: 3.654 [ms]
[OGL LOG][Proc: 0]Ux_solution: call_init: 4.271 [ms]
[OGL LOG][Preconditioner.H:121] Generate preconditioner BJ MaxBlockSize 1
[OGL LOG][Proc: 0]Ux: init_precond: 17.861 [ms]
[OGL LOG][StoppingCriterion.H:239] Creating stopping criterion with minIter 0 frequency 1
[OGL LOG][Proc: 0]Ux: generate_solver: 0.308 [ms]
[OGL LOG][Proc: 0]Ux: solve: 274.427 [ms]
[OGL LOG][Proc: 0]Ux: copy_x_back: 13.624 [ms]
[OGL LOG][lduLduBase.H:330] 
Statistics:
	Time per iteration: 39203 [mu s]
	Time per residual norm calculation: 5760.000000 [mu s]
	Time per iteration and DOF: 1.553914 [ns]
	Retrieve results bandwidth 1.854000 [GByte/s]
[OGL LOG][Proc: 0]Ux: solve_multi_gpu: 740.446 [ms]
BJcudaGKOBiCGStab:  Solving for Ux, Initial residual = 1.000000000000738, Final residual = 0.04568485879118085, No Iterations 7
[OGL LOG][lduLduBase.H:119] Initialising OGL
	OGL commit:  e75313f+
	Branch: dev 
	Build type: Debug
	Ginkgo version: 1.8.0 ( develop)
	Ginkgo commit: sparse-communicator
	MPI is GPU aware: 1
	Forces host buffer based communication: 0
	CPU ranks per GPU: 1
	Matrix format: Coo
	End OGL_INFO
[OGL LOG][Proc: 0]: global_index_init: 0.426 [ms]
[OGL LOG][Proc: 0]Uy_local_cols: call_init: 0.049 [ms]
[OGL LOG][Proc: 0]Uy_local_rows: call_init: 0.025 [ms]
[OGL LOG][Proc: 0]Uy_local_ldu_map: call_init: 0.022 [ms]
[OGL LOG][Proc: 0]Uy_local_coeffs: call_init: 1.378 [ms]
[OGL LOG][Proc: 0]Uy_non_local_cols: call_init: 0.012 [ms]
[OGL LOG][Proc: 0]Uy_non_local_rows: call_init: 0.004 [ms]
[OGL LOG][Proc: 0]Uy_non_local_ldu_map: call_init: 0.004 [ms]
[OGL LOG][Proc: 0]Uy_non_local_coeffs: call_init: 0.008 [ms]
[OGL LOG][Proc: 0]Uy: init_local_sparsity_pattern: 130948.888 [ms]
[OGL LOG][Proc: 0]Uy: init_non_local_sparsity_pattern: 65.40000000000001 [ms]
[OGL LOG][Proc: 0]Uy: update_local_matrix_data: 135.186 [ms]
[OGL LOG][Proc: 0]Uy: update_non_local_matrix_data: 0.615 [ms]
[OGL LOG][Proc: 0]Uy_matrix: call_init: 295.166 [ms]
[OGL LOG][Proc: 0]Uy_rhs: call_init: 3.528 [ms]
[OGL LOG][Proc: 0]Uy_solution: call_init: 4.217 [ms]
[OGL LOG][Preconditioner.H:121] Generate preconditioner BJ MaxBlockSize 1
[OGL LOG][Proc: 0]Uy: init_precond: 2.143 [ms]
[OGL LOG][StoppingCriterion.H:239] Creating stopping criterion with minIter 0 frequency 1
[OGL LOG][Proc: 0]Uy: generate_solver: 0.023 [ms]
[OGL LOG][Proc: 0]Uy: solve: 286.714 [ms]
[OGL LOG][Proc: 0]Uy: copy_x_back: 13.394 [ms]
[OGL LOG][lduLduBase.H:330] 
Statistics:
	Time per iteration: 28671 [mu s]
	Time per residual norm calculation: 1845.000000 [mu s]
	Time per iteration and DOF: 1.136451 [ns]
	Retrieve results bandwidth 1.885000 [GByte/s]
[OGL LOG][Proc: 0]Uy: solve_multi_gpu: 736.502 [ms]
BJcudaGKOBiCGStab:  Solving for Uy, Initial residual = 0.9999999999999426, Final residual = 0.07725065439714579, No Iterations 10
[OGL LOG][lduLduBase.H:119] Initialising OGL
	OGL commit:  e75313f+
	Branch: dev 
	Build type: Debug
	Ginkgo version: 1.8.0 ( develop)
	Ginkgo commit: sparse-communicator
	MPI is GPU aware: 1
	Forces host buffer based communication: 0
	CPU ranks per GPU: 1
	Matrix format: Coo
	End OGL_INFO
[OGL LOG][Proc: 0]: global_index_init: 0.426 [ms]
[OGL LOG][Proc: 0]Uz_local_cols: call_init: 0.054 [ms]
[OGL LOG][Proc: 0]Uz_local_rows: call_init: 0.022 [ms]
[OGL LOG][Proc: 0]Uz_local_ldu_map: call_init: 0.016 [ms]
[OGL LOG][Proc: 0]Uz_local_coeffs: call_init: 1.353 [ms]
[OGL LOG][Proc: 0]Uz_non_local_cols: call_init: 0.012 [ms]
[OGL LOG][Proc: 0]Uz_non_local_rows: call_init: 0.005 [ms]
[OGL LOG][Proc: 0]Uz_non_local_ldu_map: call_init: 0.005 [ms]
[OGL LOG][Proc: 0]Uz_non_local_coeffs: call_init: 0.008999999999999999 [ms]
[OGL LOG][Proc: 0]Uz: init_local_sparsity_pattern: 130996.762 [ms]
[OGL LOG][Proc: 0]Uz: init_non_local_sparsity_pattern: 65.39 [ms]
[OGL LOG][Proc: 0]Uz: update_local_matrix_data: 136.182 [ms]
[OGL LOG][Proc: 0]Uz: update_non_local_matrix_data: 0.611 [ms]
[OGL LOG][Proc: 0]Uz_matrix: call_init: 297.123 [ms]
[OGL LOG][Proc: 0]Uz_rhs: call_init: 3.727 [ms]
[OGL LOG][Proc: 0]Uz_solution: call_init: 4.259 [ms]
[OGL LOG][Preconditioner.H:121] Generate preconditioner BJ MaxBlockSize 1
[OGL LOG][Proc: 0]Uz: init_precond: 1.986 [ms]
[OGL LOG][StoppingCriterion.H:239] Creating stopping criterion with minIter 0 frequency 1
[OGL LOG][Proc: 0]Uz: generate_solver: 0.024 [ms]
[OGL LOG][Proc: 0]Uz: solve: 178.416 [ms]
[OGL LOG][Proc: 0]Uz: copy_x_back: 13.517 [ms]
[OGL LOG][lduLduBase.H:330] 
Statistics:
	Time per iteration: 178416 [mu s]
	Time per residual norm calculation: 1389.000000 [mu s]
	Time per iteration and DOF: 7.071990 [ns]
	Retrieve results bandwidth 1.868000 [GByte/s]
[OGL LOG][Proc: 0]Uz: solve_multi_gpu: 626.778 [ms]
BJcudaGKOBiCGStab:  Solving for Uz, Initial residual = 1.000000000000018, Final residual = 0.07317246117889832, No Iterations 1
[OGL LOG][lduLduBase.H:119] Initialising OGL
	OGL commit:  e75313f+
	Branch: dev 
	Build type: Debug
	Ginkgo version: 1.8.0 ( develop)
	Ginkgo commit: sparse-communicator
	MPI is GPU aware: 1
	Forces host buffer based communication: 0
	CPU ranks per GPU: 1
	Matrix format: Coo
	End OGL_INFO
[OGL LOG][Proc: 0]: global_index_init: 1.027 [ms]
[OGL LOG][Proc: 0]p_local_cols: call_init: 0.043 [ms]
[OGL LOG][Proc: 0]p_local_rows: call_init: 0.029 [ms]
[OGL LOG][Proc: 0]p_local_ldu_map: call_init: 0.01 [ms]
[OGL LOG][Proc: 0]p_local_coeffs: call_init: 1.405 [ms]
[OGL LOG][Proc: 0]p_non_local_cols: call_init: 0.012 [ms]
[OGL LOG][Proc: 0]p_non_local_rows: call_init: 0.005 [ms]
[OGL LOG][Proc: 0]p_non_local_ldu_map: call_init: 0.004 [ms]
[OGL LOG][Proc: 0]p_non_local_coeffs: call_init: 0.01 [ms]
[OGL LOG][Proc: 0]p: init_local_sparsity_pattern: 131322.388 [ms]
[OGL LOG][Proc: 0]p: init_non_local_sparsity_pattern: 515.442 [ms]
[OGL LOG][Proc: 0]p: update_local_matrix_data: 100.134 [ms]
[OGL LOG][Proc: 0]p: update_non_local_matrix_data: 0.614 [ms]
[OGL LOG][Proc: 0]p_matrix: call_init: 295.991 [ms]
[OGL LOG][Proc: 0]p_rhs: call_init: 3.914 [ms]
[OGL LOG][Proc: 0]p_solution: call_init: 4.958 [ms]
[OGL LOG][Preconditioner.H:121] Generate preconditioner BJ MaxBlockSize 1
[OGL LOG][Proc: 0]p: init_precond: 2.115 [ms]
[OGL LOG][StoppingCriterion.H:239] Creating stopping criterion with minIter 0 frequency 1
[OGL LOG][Proc: 0]p: generate_solver: 0.174 [ms]
[OGL LOG][Proc: 0]p: solve: 6391.647 [ms]
[OGL LOG][Proc: 0]p: copy_x_back: 13.575 [ms]
[OGL LOG][lduLduBase.H:330] 
Statistics:
	Time per iteration: 5339 [mu s]
	Time per residual norm calculation: 1308.000000 [mu s]
	Time per iteration and DOF: 0.211625 [ns]
	Retrieve results bandwidth 1.860000 [GByte/s]
[OGL LOG][Proc: 0]p: solve_multi_gpu: 6833.217 [ms]
BJcudaGKOCG:  Solving for p, Initial residual = 1.000000000001167, Final residual = 0.009873171190378354, No Iterations 1197
time step continuity errors : sum local = 0.003577508693744319, global = 7.317806656029879e-05, cumulative = 7.317806656029879e-05
[OGL LOG][lduLduBase.H:119] Initialising OGL
	OGL commit:  e75313f+
	Branch: dev 
	Build type: Debug
	Ginkgo version: 1.8.0 ( develop)
	Ginkgo commit: sparse-communicator
	MPI is GPU aware: 1
	Forces host buffer based communication: 0
	CPU ranks per GPU: 1
	Matrix format: Coo
	End OGL_INFO
[OGL LOG][Proc: 0]: global_index_init: 0.024 [ms]
[OGL LOG][Proc: 0]nuTilda_local_cols: call_init: 0.044 [ms]
[OGL LOG][Proc: 0]nuTilda_local_rows: call_init: 0.034 [ms]
[OGL LOG][Proc: 0]nuTilda_local_ldu_map: call_init: 0.022 [ms]
[OGL LOG][Proc: 0]nuTilda_local_coeffs: call_init: 1.463 [ms]
[OGL LOG][Proc: 0]nuTilda_non_local_cols: call_init: 0.013 [ms]
[OGL LOG][Proc: 0]nuTilda_non_local_rows: call_init: 0.005 [ms]
[OGL LOG][Proc: 0]nuTilda_non_local_ldu_map: call_init: 0.004 [ms]
[OGL LOG][Proc: 0]nuTilda_non_local_coeffs: call_init: 0.011 [ms]
[OGL LOG][Proc: 0]nuTilda: init_local_sparsity_pattern: 131740.762 [ms]
[OGL LOG][Proc: 0]nuTilda: init_non_local_sparsity_pattern: 65.818 [ms]
[OGL LOG][Proc: 0]nuTilda: update_local_matrix_data: 122.388 [ms]
[OGL LOG][Proc: 0]nuTilda: update_non_local_matrix_data: 0.638 [ms]
[OGL LOG][Proc: 0]nuTilda_matrix: call_init: 297.322 [ms]
[OGL LOG][Proc: 0]nuTilda_rhs: call_init: 6.347 [ms]
[OGL LOG][Proc: 0]nuTilda_solution: call_init: 4.99 [ms]
[OGL LOG][Preconditioner.H:121] Generate preconditioner BJ MaxBlockSize 1
[OGL LOG][Proc: 0]nuTilda: init_precond: 2.111 [ms]
[OGL LOG][StoppingCriterion.H:239] Creating stopping criterion with minIter 0 frequency 1
[OGL LOG][Proc: 0]nuTilda: generate_solver: 0.026 [ms]
[OGL LOG][Proc: 0]nuTilda: solve: 161.691 [ms]
[OGL LOG][Proc: 0]nuTilda: copy_x_back: 9.616 [ms]
[OGL LOG][lduLduBase.H:330] 
Statistics:
	Time per iteration: 53897 [mu s]
	Time per residual norm calculation: 1759.000000 [mu s]
	Time per iteration and DOF: 2.136350 [ns]
	Retrieve results bandwidth 2.626000 [GByte/s]
[OGL LOG][Proc: 0]nuTilda: solve_multi_gpu: 612.8920000000001 [ms]
BJcudaGKOBiCGStab:  Solving for nuTilda, Initial residual = 0.9999999955158917, Final residual = 0.03403471159778915, No Iterations 3
bounding nuTilda, min: -0.0003621739383589499 max: 0.001581931250618531 average: 7.142243329859952e-05
ExecutionTime = 708.04 s  ClockTime = 714 s

--> FOAM Warning : 
    From virtual bool Foam::functionObjects::fieldSelection::checkSelection()
    in file functionObjects/fieldSelections/fieldSelection/fieldSelection.C at line 166
    Field k not found
--> FOAM Warning : 
    From virtual bool Foam::functionObjects::fieldSelection::checkSelection()
    in file functionObjects/fieldSelections/fieldSelection/fieldSelection.C at line 166
    Field gammaInt not found
--> FOAM Warning : 
    From virtual bool Foam::functionObjects::fieldSelection::checkSelection()
    in file functionObjects/fieldSelections/fieldSelection/fieldSelection.C at line 166
    Field omega not found
--> FOAM Warning : 
    From virtual bool Foam::functionObjects::fieldSelection::checkSelection()
    in file functionObjects/fieldSelections/fieldSelection/fieldSelection.C at line 166
    Field ReThetat not found
--> FOAM Warning : 
    From virtual bool Foam::functionObjects::fieldSelection::checkSelection()
    in file functionObjects/fieldSelections/fieldSelection/fieldSelection.C at line 166
    Field epsilon not found
--> FOAM Warning : 
    From virtual bool Foam::functionObjects::solverFieldSelection::updateSelection()
    in file functionObjects/fieldSelections/solverFieldSelection/solverFieldSelection.C at line 85
    Valid solver fields are: 3(U nuTilda p)Time = 2

velocityDampingConstraint velocityDamping damped 0 (0%) of cells, with max limit 300
[OGL LOG][Proc: 0]: global_index_init: 0.063 [ms]
[OGL LOG][Proc: 0]Ux_local_coeffs: call_update: 0.001 [ms]
[OGL LOG][Proc: 0]Ux_non_local_coeffs: call_update: 0 [ms]
[OGL LOG][Proc: 0]Ux: update_local_matrix_data: 179.076 [ms]
[OGL LOG][Proc: 0]Ux: update_non_local_matrix_data: 0.597 [ms]
[OGL LOG][Proc: 0]Ux_matrix: call_update: 5.139 [ms]
[OGL LOG][Proc: 0]Ux_rhs: call_update: 3.225 [ms]
[OGL LOG][Preconditioner.H:121] Generate preconditioner BJ MaxBlockSize 1
[OGL LOG][Proc: 0]Ux: init_precond: 2.093 [ms]
[OGL LOG][StoppingCriterion.H:239] Creating stopping criterion with minIter 8 frequency 1
[OGL LOG][Proc: 0]Ux: generate_solver: 0.025 [ms]
[OGL LOG][Proc: 0]Ux: solve: 173.818 [ms]
[OGL LOG][Proc: 0]Ux: copy_x_back: 9.666 [ms]
[OGL LOG][lduLduBase.H:330] 
Statistics:
	Time per iteration: 43454 [mu s]
	Time per residual norm calculation: 1457.000000 [mu s]
	Time per iteration and DOF: 1.722414 [ns]
	Retrieve results bandwidth 2.613000 [GByte/s]
[OGL LOG][Proc: 0]Ux: solve_multi_gpu: 196.112 [ms]
BJcudaGKOBiCGStab:  Solving for Ux, Initial residual = 0.8165867916661399, Final residual = 0.009486929285391438, No Iterations 4
[OGL LOG][Proc: 0]: global_index_init: 0.319 [ms]
[OGL LOG][Proc: 0]Uy_local_coeffs: call_update: 0 [ms]
[OGL LOG][Proc: 0]Uy_non_local_coeffs: call_update: 0 [ms]
[OGL LOG][Proc: 0]Uy: update_local_matrix_data: 170.922 [ms]
[OGL LOG][Proc: 0]Uy: update_non_local_matrix_data: 0.5639999999999999 [ms]
[OGL LOG][Proc: 0]Uy_matrix: call_update: 5.041 [ms]
[OGL LOG][Proc: 0]Uy_rhs: call_update: 3.382 [ms]
[OGL LOG][Preconditioner.H:121] Generate preconditioner BJ MaxBlockSize 1
[OGL LOG][Proc: 0]Uy: init_precond: 2.242 [ms]
[OGL LOG][StoppingCriterion.H:239] Creating stopping criterion with minIter 12 frequency 1
[OGL LOG][Proc: 0]Uy: generate_solver: 0.016 [ms]
[OGL LOG][Proc: 0]Uy: solve: 188.767 [ms]
[OGL LOG][Proc: 0]Uy: copy_x_back: 9.772 [ms]
[OGL LOG][lduLduBase.H:330] 
Statistics:
	Time per iteration: 26966 [mu s]
	Time per residual norm calculation: 1374.000000 [mu s]
	Time per iteration and DOF: 1.068869 [ns]
	Retrieve results bandwidth 2.584000 [GByte/s]
[OGL LOG][Proc: 0]Uy: solve_multi_gpu: 219.396 [ms]
BJcudaGKOBiCGStab:  Solving for Uy, Initial residual = 0.9994003678931598, Final residual = 0.002351407787723934, No Iterations 7
[OGL LOG][Proc: 0]: global_index_init: 0.125 [ms]
[OGL LOG][Proc: 0]Uz_local_coeffs: call_update: 0 [ms]
[OGL LOG][Proc: 0]Uz_non_local_coeffs: call_update: 0 [ms]
[OGL LOG][Proc: 0]Uz: update_local_matrix_data: 173.848 [ms]
[OGL LOG][Proc: 0]Uz: update_non_local_matrix_data: 0.589 [ms]
[OGL LOG][Proc: 0]Uz_matrix: call_update: 3.345 [ms]
[OGL LOG][Proc: 0]Uz_rhs: call_update: 4.969 [ms]
[OGL LOG][Preconditioner.H:121] Generate preconditioner BJ MaxBlockSize 1
[OGL LOG][Proc: 0]Uz: init_precond: 2.784 [ms]
[OGL LOG][StoppingCriterion.H:239] Creating stopping criterion with minIter 1 frequency 1
[OGL LOG][Proc: 0]Uz: generate_solver: 0.015 [ms]
[OGL LOG][Proc: 0]Uz: solve: 143.683 [ms]
[OGL LOG][Proc: 0]Uz: copy_x_back: 9.632999999999999 [ms]
[OGL LOG][lduLduBase.H:330] 
Statistics:
	Time per iteration: 71841 [mu s]
	Time per residual norm calculation: 1530.000000 [mu s]
	Time per iteration and DOF: 2.847608 [ns]
	Retrieve results bandwidth 2.622000 [GByte/s]
[OGL LOG][Proc: 0]Uz: solve_multi_gpu: 169.412 [ms]
BJcudaGKOBiCGStab:  Solving for Uz, Initial residual = 0.9999985098687765, Final residual = 0.09491389691613816, No Iterations 2
[OGL LOG][Proc: 0]: global_index_init: 0.018 [ms]
[OGL LOG][Proc: 0]p_local_coeffs: call_update: 0 [ms]
[OGL LOG][Proc: 0]p_non_local_coeffs: call_update: 0 [ms]
[OGL LOG][Proc: 0]p: update_local_matrix_data: 130.748 [ms]
[OGL LOG][Proc: 0]p: update_non_local_matrix_data: 0.656 [ms]
[OGL LOG][Proc: 0]p_matrix: call_update: 4.672 [ms]
[OGL LOG][Proc: 0]p_rhs: call_update: 3.454 [ms]
[OGL LOG][Preconditioner.H:121] Generate preconditioner BJ MaxBlockSize 1
[OGL LOG][Proc: 0]p: init_precond: 2.445 [ms]
[OGL LOG][StoppingCriterion.H:239] Creating stopping criterion with minIter 718 frequency 10
[OGL LOG][Proc: 0]p: generate_solver: 0.015 [ms]
[OGL LOG][Proc: 0]p: solve: 3474.189 [ms]
[OGL LOG][Proc: 0]p: copy_x_back: 9.717000000000001 [ms]
[OGL LOG][lduLduBase.H:330] 
Statistics:
	Time per iteration: 3772 [mu s]
	Time per residual norm calculation: 1298.000000 [mu s]
	Time per iteration and DOF: 0.149513 [ns]
	Retrieve results bandwidth 2.599000 [GByte/s]
[OGL LOG][Proc: 0]p: solve_multi_gpu: 3498.024 [ms]
BJcudaGKOCG:  Solving for p, Initial residual = 0.4272086098548541, Final residual = 0.003778585800380295, No Iterations 921
time step continuity errors : sum local = 0.08181481435409266, global = 0.004537331771262694, cumulative = 0.004610509837822993
[OGL LOG][Proc: 0]: global_index_init: 0.03 [ms]
[OGL LOG][Proc: 0]nuTilda_local_coeffs: call_update: 0 [ms]
[OGL LOG][Proc: 0]nuTilda_non_local_coeffs: call_update: 0 [ms]
[OGL LOG][Proc: 0]nuTilda: update_local_matrix_data: 162.214 [ms]
[OGL LOG][Proc: 0]nuTilda: update_non_local_matrix_data: 0.505 [ms]
[OGL LOG][Proc: 0]nuTilda_matrix: call_update: 5.03 [ms]
[OGL LOG][Proc: 0]nuTilda_rhs: call_update: 3.266 [ms]
[OGL LOG][Preconditioner.H:121] Generate preconditioner BJ MaxBlockSize 1
[OGL LOG][Proc: 0]nuTilda: init_precond: 2.275 [ms]
[OGL LOG][StoppingCriterion.H:239] Creating stopping criterion with minIter 3 frequency 1
[OGL LOG][Proc: 0]nuTilda: generate_solver: 0.015 [ms]
[OGL LOG][Proc: 0]nuTilda: solve: 152.496 [ms]
[OGL LOG][Proc: 0]nuTilda: copy_x_back: 9.709 [ms]
[OGL LOG][lduLduBase.H:330] 
Statistics:
	Time per iteration: 76248 [mu s]
	Time per residual norm calculation: 1753.000000 [mu s]
	Time per iteration and DOF: 3.022291 [ns]
	Retrieve results bandwidth 2.601000 [GByte/s]
[OGL LOG][Proc: 0]nuTilda: solve_multi_gpu: 176.003 [ms]
BJcudaGKOBiCGStab:  Solving for nuTilda, Initial residual = 0.2451276716217065, Final residual = 0.01654343833794802, No Iterations 2
ExecutionTime = 725.42 s  ClockTime = 753 s

Time = 3

velocityDampingConstraint velocityDamping damped 19463 (0.08%) of cells, with max limit 300
[OGL LOG][Proc: 0]: global_index_init: 0.144 [ms]
[OGL LOG][Proc: 0]Ux_local_coeffs: call_update: 0 [ms]
[OGL LOG][Proc: 0]Ux_non_local_coeffs: call_update: 0 [ms]
[OGL LOG][Proc: 0]Ux: update_local_matrix_data: 171.577 [ms]
[OGL LOG][Proc: 0]Ux: update_non_local_matrix_data: 0.597 [ms]
[OGL LOG][Proc: 0]Ux_matrix: call_update: 4.885 [ms]
[OGL LOG][Proc: 0]Ux_rhs: call_update: 3.965 [ms]
[OGL LOG][Preconditioner.H:121] Generate preconditioner BJ MaxBlockSize 1
[OGL LOG][Proc: 0]Ux: init_precond: 2.129 [ms]
[OGL LOG][StoppingCriterion.H:239] Creating stopping criterion with minIter 5 frequency 1
[OGL LOG][Proc: 0]Ux: generate_solver: 0.017 [ms]
[OGL LOG][Proc: 0]Ux: solve: 162.547 [ms]
[OGL LOG][Proc: 0]Ux: copy_x_back: 9.914 [ms]
[OGL LOG][lduLduBase.H:330] 
Statistics:
	Time per iteration: 54182 [mu s]
	Time per residual norm calculation: 1953.000000 [mu s]
	Time per iteration and DOF: 2.147647 [ns]
	Retrieve results bandwidth 2.547000 [GByte/s]
[OGL LOG][Proc: 0]Ux: solve_multi_gpu: 191.045 [ms]
BJcudaGKOBiCGStab:  Solving for Ux, Initial residual = 0.2852445044875616, Final residual = 0.004784217762846613, No Iterations 3
[OGL LOG][Proc: 0]: global_index_init: 0.308 [ms]
[OGL LOG][Proc: 0]Uy_local_coeffs: call_update: 0 [ms]
[OGL LOG][Proc: 0]Uy_non_local_coeffs: call_update: 0 [ms]
[OGL LOG][Proc: 0]Uy: update_local_matrix_data: 176.885 [ms]
[OGL LOG][Proc: 0]Uy: update_non_local_matrix_data: 0.59 [ms]
[OGL LOG][Proc: 0]Uy_matrix: call_update: 4.918 [ms]
[OGL LOG][Proc: 0]Uy_rhs: call_update: 3.215 [ms]
[OGL LOG][Preconditioner.H:121] Generate preconditioner BJ MaxBlockSize 1
[OGL LOG][Proc: 0]Uy: init_precond: 2.184 [ms]
[OGL LOG][StoppingCriterion.H:239] Creating stopping criterion with minIter 8 frequency 1
[OGL LOG][Proc: 0]Uy: generate_solver: 0.016 [ms]
[OGL LOG][Proc: 0]Uy: solve: 175.543 [ms]
[OGL LOG][Proc: 0]Uy: copy_x_back: 9.630000000000001 [ms]
[OGL LOG][lduLduBase.H:330] 
Statistics:
	Time per iteration: 43885 [mu s]
	Time per residual norm calculation: 1643.000000 [mu s]
	Time per iteration and DOF: 1.739498 [ns]
	Retrieve results bandwidth 2.623000 [GByte/s]
[OGL LOG][Proc: 0]Uy: solve_multi_gpu: 197.076 [ms]
BJcudaGKOBiCGStab:  Solving for Uy, Initial residual = 0.2820243870207979, Final residual = 0.006284594901662458, No Iterations 4
[OGL LOG][Proc: 0]: global_index_init: 0.901 [ms]
[OGL LOG][Proc: 0]Uz_local_coeffs: call_update: 0 [ms]
[OGL LOG][Proc: 0]Uz_non_local_coeffs: call_update: 0 [ms]
[OGL LOG][Proc: 0]Uz: update_local_matrix_data: 176.099 [ms]
[OGL LOG][Proc: 0]Uz: update_non_local_matrix_data: 0.634 [ms]
[OGL LOG][Proc: 0]Uz_matrix: call_update: 5.121 [ms]
[OGL LOG][Proc: 0]Uz_rhs: call_update: 3.321 [ms]
[OGL LOG][Preconditioner.H:121] Generate preconditioner BJ MaxBlockSize 1
[OGL LOG][Proc: 0]Uz: init_precond: 2.119 [ms]
[OGL LOG][StoppingCriterion.H:239] Creating stopping criterion with minIter 2 frequency 1
[OGL LOG][Proc: 0]Uz: generate_solver: 0.016 [ms]
[OGL LOG][Proc: 0]Uz: solve: 153.011 [ms]
[OGL LOG][Proc: 0]Uz: copy_x_back: 9.288 [ms]
[OGL LOG][lduLduBase.H:330] 
Statistics:
	Time per iteration: 76505 [mu s]
	Time per residual norm calculation: 1642.000000 [mu s]
	Time per iteration and DOF: 3.032478 [ns]
	Retrieve results bandwidth 2.719000 [GByte/s]
[OGL LOG][Proc: 0]Uz: solve_multi_gpu: 184.189 [ms]
BJcudaGKOBiCGStab:  Solving for Uz, Initial residual = 0.2544951348873312, Final residual = 0.02517049317901992, No Iterations 2
[OGL LOG][Proc: 0]: global_index_init: 0.159 [ms]
[OGL LOG][Proc: 0]p_local_coeffs: call_update: 0 [ms]
[OGL LOG][Proc: 0]p_non_local_coeffs: call_update: 0 [ms]
[OGL LOG][Proc: 0]p: update_local_matrix_data: 133.238 [ms]
[OGL LOG][Proc: 0]p: update_non_local_matrix_data: 0.629 [ms]
[OGL LOG][Proc: 0]p_matrix: call_update: 4.724 [ms]
[OGL LOG][Proc: 0]p_rhs: call_update: 3.212 [ms]
[OGL LOG][Preconditioner.H:121] Generate preconditioner BJ MaxBlockSize 1
[OGL LOG][Proc: 0]p: init_precond: 2.15 [ms]
[OGL LOG][StoppingCriterion.H:239] Creating stopping criterion with minIter 552 frequency 13
[OGL LOG][Proc: 0]p: generate_solver: 0.014 [ms]
[OGL LOG][Proc: 0]p: solve: 3910.403 [ms]
[OGL LOG][Proc: 0]p: copy_x_back: 9.887 [ms]
[OGL LOG][lduLduBase.H:330] 
Statistics:
	Time per iteration: 3803 [mu s]
	Time per residual norm calculation: 1445.000000 [mu s]
	Time per iteration and DOF: 0.150742 [ns]
	Retrieve results bandwidth 2.554000 [GByte/s]
[OGL LOG][Proc: 0]p: solve_multi_gpu: 3932.012 [ms]
BJcudaGKOCG:  Solving for p, Initial residual = 0.2870149192814241, Final residual = 0.00284387139754451, No Iterations 1028
time step continuity errors : sum local = 0.02324753418535569, global = -0.0001736589186214327, cumulative = 0.00443685091920156
[OGL LOG][Proc: 0]: global_index_init: 0.019 [ms]
[OGL LOG][Proc: 0]nuTilda_local_coeffs: call_update: 0 [ms]
[OGL LOG][Proc: 0]nuTilda_non_local_coeffs: call_update: 0 [ms]
[OGL LOG][Proc: 0]nuTilda: update_local_matrix_data: 158.806 [ms]
[OGL LOG][Proc: 0]nuTilda: update_non_local_matrix_data: 0.696 [ms]
[OGL LOG][Proc: 0]nuTilda_matrix: call_update: 4.337 [ms]
[OGL LOG][Proc: 0]nuTilda_rhs: call_update: 3.896 [ms]
[OGL LOG][Preconditioner.H:121] Generate preconditioner BJ MaxBlockSize 1
[OGL LOG][Proc: 0]nuTilda: init_precond: 2.191 [ms]
[OGL LOG][StoppingCriterion.H:239] Creating stopping criterion with minIter 3 frequency 1
[OGL LOG][Proc: 0]nuTilda: generate_solver: 0.018 [ms]
[OGL LOG][Proc: 0]nuTilda: solve: 146.808 [ms]
[OGL LOG][Proc: 0]nuTilda: copy_x_back: 9.795999999999999 [ms]
[OGL LOG][lduLduBase.H:330] 
Statistics:
	Time per iteration: 73404 [mu s]
	Time per residual norm calculation: 1382.000000 [mu s]
	Time per iteration and DOF: 2.909561 [ns]
	Retrieve results bandwidth 2.578000 [GByte/s]
[OGL LOG][Proc: 0]nuTilda: solve_multi_gpu: 183.545 [ms]
BJcudaGKOBiCGStab:  Solving for nuTilda, Initial residual = 0.2254243891767987, Final residual = 0.01277350414111776, No Iterations 2
ExecutionTime = 743.1900000000001 s  ClockTime = 771 s

Time = 4

velocityDampingConstraint velocityDamping damped 423 (0%) of cells, with max limit 300
[OGL LOG][Proc: 0]: global_index_init: 0.186 [ms]
[OGL LOG][Proc: 0]Ux_local_coeffs: call_update: 0 [ms]
[OGL LOG][Proc: 0]Ux_non_local_coeffs: call_update: 0 [ms]
[OGL LOG][Proc: 0]Ux: update_local_matrix_data: 182.815 [ms]
[OGL LOG][Proc: 0]Ux: update_non_local_matrix_data: 0.586 [ms]
[OGL LOG][Proc: 0]Ux_matrix: call_update: 3.192 [ms]
[OGL LOG][Proc: 0]Ux_rhs: call_update: 4.86 [ms]
[OGL LOG][Preconditioner.H:121] Generate preconditioner BJ MaxBlockSize 1
[OGL LOG][Proc: 0]Ux: init_precond: 2.695 [ms]
[OGL LOG][StoppingCriterion.H:239] Creating stopping criterion with minIter 3 frequency 1
[OGL LOG][Proc: 0]Ux: generate_solver: 0.014 [ms]
[OGL LOG][Proc: 0]Ux: solve: 179.558 [ms]
[OGL LOG][Proc: 0]Ux: copy_x_back: 9.321999999999999 [ms]
[OGL LOG][lduLduBase.H:330] 
Statistics:
	Time per iteration: 44889 [mu s]
	Time per residual norm calculation: 1820.000000 [mu s]
	Time per iteration and DOF: 1.779294 [ns]
	Retrieve results bandwidth 2.709000 [GByte/s]
[OGL LOG][Proc: 0]Ux: solve_multi_gpu: 201.265 [ms]
BJcudaGKOBiCGStab:  Solving for Ux, Initial residual = 0.04683841568725667, Final residual = 0.004641537766059279, No Iterations 4
[OGL LOG][Proc: 0]: global_index_init: 0.121 [ms]
[OGL LOG][Proc: 0]Uy_local_coeffs: call_update: 0 [ms]
[OGL LOG][Proc: 0]Uy_non_local_coeffs: call_update: 0 [ms]
[OGL LOG][Proc: 0]Uy: update_local_matrix_data: 173.833 [ms]
[OGL LOG][Proc: 0]Uy: update_non_local_matrix_data: 0.578 [ms]
[OGL LOG][Proc: 0]Uy_matrix: call_update: 4.575 [ms]
[OGL LOG][Proc: 0]Uy_rhs: call_update: 3.447 [ms]
[OGL LOG][Preconditioner.H:121] Generate preconditioner BJ MaxBlockSize 1
[OGL LOG][Proc: 0]Uy: init_precond: 2.099 [ms]
[OGL LOG][StoppingCriterion.H:239] Creating stopping criterion with minIter 5 frequency 1
[OGL LOG][Proc: 0]Uy: generate_solver: 0.016 [ms]
[OGL LOG][Proc: 0]Uy: solve: 164.435 [ms]
[OGL LOG][Proc: 0]Uy: copy_x_back: 9.304 [ms]
[OGL LOG][lduLduBase.H:330] 
Statistics:
	Time per iteration: 41108 [mu s]
	Time per residual norm calculation: 1856.000000 [mu s]
	Time per iteration and DOF: 1.629424 [ns]
	Retrieve results bandwidth 2.714000 [GByte/s]
[OGL LOG][Proc: 0]Uy: solve_multi_gpu: 188.877 [ms]
BJcudaGKOBiCGStab:  Solving for Uy, Initial residual = 0.1231808493915349, Final residual = 0.005937825260464036, No Iterations 4
[OGL LOG][Proc: 0]: global_index_init: 0.108 [ms]
[OGL LOG][Proc: 0]Uz_local_coeffs: call_update: 0 [ms]
[OGL LOG][Proc: 0]Uz_non_local_coeffs: call_update: 0 [ms]
[OGL LOG][Proc: 0]Uz: update_local_matrix_data: 173.906 [ms]
[OGL LOG][Proc: 0]Uz: update_non_local_matrix_data: 0.58 [ms]
[OGL LOG][Proc: 0]Uz_matrix: call_update: 4.726 [ms]
[OGL LOG][Proc: 0]Uz_rhs: call_update: 3.391 [ms]
[OGL LOG][Preconditioner.H:121] Generate preconditioner BJ MaxBlockSize 1
[OGL LOG][Proc: 0]Uz: init_precond: 2.096 [ms]
[OGL LOG][StoppingCriterion.H:239] Creating stopping criterion with minIter 3 frequency 1
[OGL LOG][Proc: 0]Uz: generate_solver: 0.015 [ms]
[OGL LOG][Proc: 0]Uz: solve: 163.557 [ms]
[OGL LOG][Proc: 0]Uz: copy_x_back: 9.494999999999999 [ms]
[OGL LOG][lduLduBase.H:330] 
Statistics:
	Time per iteration: 54519 [mu s]
	Time per residual norm calculation: 1829.000000 [mu s]
	Time per iteration and DOF: 2.161005 [ns]
	Retrieve results bandwidth 2.660000 [GByte/s]
[OGL LOG][Proc: 0]Uz: solve_multi_gpu: 195.399 [ms]
BJcudaGKOBiCGStab:  Solving for Uz, Initial residual = 0.1062520728031481, Final residual = 0.01009208909672587, No Iterations 3
[OGL LOG][Proc: 0]: global_index_init: 0.017 [ms]
[OGL LOG][Proc: 0]p_local_coeffs: call_update: 0 [ms]
[OGL LOG][Proc: 0]p_non_local_coeffs: call_update: 0 [ms]
[OGL LOG][Proc: 0]p: update_local_matrix_data: 132.116 [ms]
[OGL LOG][Proc: 0]p: update_non_local_matrix_data: 0.527 [ms]
[OGL LOG][Proc: 0]p_matrix: call_update: 4.604 [ms]
[OGL LOG][Proc: 0]p_rhs: call_update: 3.24 [ms]
[OGL LOG][Preconditioner.H:121] Generate preconditioner BJ MaxBlockSize 1
[OGL LOG][Proc: 0]p: init_precond: 2.18 [ms]
[OGL LOG][StoppingCriterion.H:239] Creating stopping criterion with minIter 616 frequency 14
[OGL LOG][Proc: 0]p: generate_solver: 0.014 [ms]
[OGL LOG][Proc: 0]p: solve: 2548.5 [ms]
[OGL LOG][Proc: 0]p: copy_x_back: 9.970000000000001 [ms]
[OGL LOG][lduLduBase.H:330] 
Statistics:
	Time per iteration: 4130 [mu s]
	Time per residual norm calculation: 1303.000000 [mu s]
	Time per iteration and DOF: 0.163703 [ns]
	Retrieve results bandwidth 2.533000 [GByte/s]
[OGL LOG][Proc: 0]p: solve_multi_gpu: 2571.92 [ms]
BJcudaGKOCG:  Solving for p, Initial residual = 0.3912924758589179, Final residual = 0.0003891637959517219, No Iterations 617
time step continuity errors : sum local = 0.005862089836782334, global = -0.0009454495210655256, cumulative = 0.003491401398136035
[OGL LOG][Proc: 0]: global_index_init: 0.342 [ms]
[OGL LOG][Proc: 0]nuTilda_local_coeffs: call_update: 0 [ms]
[OGL LOG][Proc: 0]nuTilda_non_local_coeffs: call_update: 0 [ms]
[OGL LOG][Proc: 0]nuTilda: update_local_matrix_data: 174.681 [ms]
[OGL LOG][Proc: 0]nuTilda: update_non_local_matrix_data: 0.629 [ms]
[OGL LOG][Proc: 0]nuTilda_matrix: call_update: 3.309 [ms]
[OGL LOG][Proc: 0]nuTilda_rhs: call_update: 4.809 [ms]
[OGL LOG][Preconditioner.H:121] Generate preconditioner BJ MaxBlockSize 1
[OGL LOG][Proc: 0]nuTilda: init_precond: 2.588 [ms]
[OGL LOG][StoppingCriterion.H:239] Creating stopping criterion with minIter 2 frequency 1
[OGL LOG][Proc: 0]nuTilda: generate_solver: 0.015 [ms]
[OGL LOG][Proc: 0]nuTilda: solve: 150.586 [ms]
[OGL LOG][Proc: 0]nuTilda: copy_x_back: 9.561 [ms]
[OGL LOG][lduLduBase.H:330] 
Statistics:
	Time per iteration: 75293 [mu s]
	Time per residual norm calculation: 1639.000000 [mu s]
	Time per iteration and DOF: 2.984437 [ns]
	Retrieve results bandwidth 2.642000 [GByte/s]
[OGL LOG][Proc: 0]nuTilda: solve_multi_gpu: 174.417 [ms]
BJcudaGKOBiCGStab:  Solving for nuTilda, Initial residual = 0.1353831347999843, Final residual = 0.007840341879156366, No Iterations 2
ExecutionTime = 759.48 s  ClockTime = 787 s

Time = 5

velocityDampingConstraint velocityDamping damped 7000 (0.03%) of cells, with max limit 300
[OGL LOG][Proc: 0]: global_index_init: 0.121 [ms]
[OGL LOG][Proc: 0]Ux_local_coeffs: call_update: 0 [ms]
[OGL LOG][Proc: 0]Ux_non_local_coeffs: call_update: 0 [ms]
[OGL LOG][Proc: 0]Ux: update_local_matrix_data: 171.939 [ms]
[OGL LOG][Proc: 0]Ux: update_non_local_matrix_data: 0.579 [ms]
[OGL LOG][Proc: 0]Ux_matrix: call_update: 5.2 [ms]
[OGL LOG][Proc: 0]Ux_rhs: call_update: 3.406 [ms]
[OGL LOG][Preconditioner.H:121] Generate preconditioner BJ MaxBlockSize 1
[OGL LOG][Proc: 0]Ux: init_precond: 2.147 [ms]
[OGL LOG][StoppingCriterion.H:239] Creating stopping criterion with minIter 5 frequency 1
[OGL LOG][Proc: 0]Ux: generate_solver: 0.025 [ms]
[OGL LOG][Proc: 0]Ux: solve: 167.091 [ms]
[OGL LOG][Proc: 0]Ux: copy_x_back: 13.36 [ms]
[OGL LOG][lduLduBase.H:330] 
Statistics:
	Time per iteration: 55697 [mu s]
	Time per residual norm calculation: 1894.000000 [mu s]
	Time per iteration and DOF: 2.207698 [ns]
	Retrieve results bandwidth 1.890000 [GByte/s]
[OGL LOG][Proc: 0]Ux: solve_multi_gpu: 197.04 [ms]
BJcudaGKOBiCGStab:  Solving for Ux, Initial residual = 0.3261922758073665, Final residual = 0.01571468015390439, No Iterations 3
[OGL LOG][Proc: 0]: global_index_init: 0.12 [ms]
[OGL LOG][Proc: 0]Uy_local_coeffs: call_update: 0 [ms]
[OGL LOG][Proc: 0]Uy_non_local_coeffs: call_update: 0 [ms]
[OGL LOG][Proc: 0]Uy: update_local_matrix_data: 179.66 [ms]
[OGL LOG][Proc: 0]Uy: update_non_local_matrix_data: 0.53 [ms]
[OGL LOG][Proc: 0]Uy_matrix: call_update: 5.117 [ms]
[OGL LOG][Proc: 0]Uy_rhs: call_update: 3.437 [ms]
[OGL LOG][Preconditioner.H:121] Generate preconditioner BJ MaxBlockSize 1
[OGL LOG][Proc: 0]Uy: init_precond: 2.123 [ms]
[OGL LOG][StoppingCriterion.H:239] Creating stopping criterion with minIter 4 frequency 1
[OGL LOG][Proc: 0]Uy: generate_solver: 0.018 [ms]
[OGL LOG][Proc: 0]Uy: solve: 168.21 [ms]
[OGL LOG][Proc: 0]Uy: copy_x_back: 9.425000000000001 [ms]
[OGL LOG][lduLduBase.H:330] 
Statistics:
	Time per iteration: 56070 [mu s]
	Time per residual norm calculation: 1453.000000 [mu s]
	Time per iteration and DOF: 2.222483 [ns]
	Retrieve results bandwidth 2.680000 [GByte/s]
[OGL LOG][Proc: 0]Uy: solve_multi_gpu: 193.228 [ms]
BJcudaGKOBiCGStab:  Solving for Uy, Initial residual = 0.4166121521926381, Final residual = 0.03247943956017295, No Iterations 3
[OGL LOG][Proc: 0]: global_index_init: 0.113 [ms]
[OGL LOG][Proc: 0]Uz_local_coeffs: call_update: 0 [ms]
[OGL LOG][Proc: 0]Uz_non_local_coeffs: call_update: 0 [ms]
[OGL LOG][Proc: 0]Uz: update_local_matrix_data: 170.323 [ms]
[OGL LOG][Proc: 0]Uz: update_non_local_matrix_data: 0.534 [ms]
[OGL LOG][Proc: 0]Uz_matrix: call_update: 4.788 [ms]
[OGL LOG][Proc: 0]Uz_rhs: call_update: 3.243 [ms]
[OGL LOG][Preconditioner.H:121] Generate preconditioner BJ MaxBlockSize 1
[OGL LOG][Proc: 0]Uz: init_precond: 2.235 [ms]
[OGL LOG][StoppingCriterion.H:239] Creating stopping criterion with minIter 3 frequency 1
[OGL LOG][Proc: 0]Uz: generate_solver: 0.014 [ms]
[OGL LOG][Proc: 0]Uz: solve: 183.895 [ms]
[OGL LOG][Proc: 0]Uz: copy_x_back: 9.605 [ms]
[OGL LOG][lduLduBase.H:330] 
Statistics:
	Time per iteration: 61298 [mu s]
	Time per residual norm calculation: 1453.000000 [mu s]
	Time per iteration and DOF: 2.429708 [ns]
	Retrieve results bandwidth 2.629000 [GByte/s]
[OGL LOG][Proc: 0]Uz: solve_multi_gpu: 209.144 [ms]
BJcudaGKOBiCGStab:  Solving for Uz, Initial residual = 0.4912286365210703, Final residual = 0.03822276275260037, No Iterations 3
[OGL LOG][Proc: 0]: global_index_init: 0.016 [ms]
[OGL LOG][Proc: 0]p_local_coeffs: call_update: 0 [ms]
[OGL LOG][Proc: 0]p_non_local_coeffs: call_update: 0 [ms]
[OGL LOG][Proc: 0]p: update_local_matrix_data: 132.514 [ms]
[OGL LOG][Proc: 0]p: update_non_local_matrix_data: 0.594 [ms]
[OGL LOG][Proc: 0]p_matrix: call_update: 5.008 [ms]
[OGL LOG][Proc: 0]p_rhs: call_update: 3.315 [ms]
[OGL LOG][Preconditioner.H:121] Generate preconditioner BJ MaxBlockSize 1
[OGL LOG][Proc: 0]p: init_precond: 2.244 [ms]
[OGL LOG][StoppingCriterion.H:239] Creating stopping criterion with minIter 370 frequency 9
[OGL LOG][Proc: 0]p: generate_solver: 0.015 [ms]
[OGL LOG][Proc: 0]p: solve: 3512.136 [ms]
[OGL LOG][Proc: 0]p: copy_x_back: 9.641999999999999 [ms]
[OGL LOG][lduLduBase.H:330] 
Statistics:
	Time per iteration: 3859 [mu s]
	Time per residual norm calculation: 1157.000000 [mu s]
	Time per iteration and DOF: 0.152962 [ns]
	Retrieve results bandwidth 2.619000 [GByte/s]
[OGL LOG][Proc: 0]p: solve_multi_gpu: 3537.305 [ms]
BJcudaGKOCG:  Solving for p, Initial residual = 0.2656902592233225, Final residual = 0.002375123746687689, No Iterations 910
time step continuity errors : sum local = 0.03490405654571681, global = -0.001163065598860592, cumulative = 0.002328335799275443
[OGL LOG][Proc: 0]: global_index_init: 0.018 [ms]
[OGL LOG][Proc: 0]nuTilda_local_coeffs: call_update: 0 [ms]
[OGL LOG][Proc: 0]nuTilda_non_local_coeffs: call_update: 0 [ms]
[OGL LOG][Proc: 0]nuTilda: update_local_matrix_data: 174.128 [ms]
[OGL LOG][Proc: 0]nuTilda: update_non_local_matrix_data: 0.672 [ms]
[OGL LOG][Proc: 0]nuTilda_matrix: call_update: 5.01 [ms]
[OGL LOG][Proc: 0]nuTilda_rhs: call_update: 3.241 [ms]
[OGL LOG][Preconditioner.H:121] Generate preconditioner BJ MaxBlockSize 1
[OGL LOG][Proc: 0]nuTilda: init_precond: 2.358 [ms]
[OGL LOG][StoppingCriterion.H:239] Creating stopping criterion with minIter 3 frequency 1
[OGL LOG][Proc: 0]nuTilda: generate_solver: 0.015 [ms]
[OGL LOG][Proc: 0]nuTilda: solve: 148.135 [ms]
[OGL LOG][Proc: 0]nuTilda: copy_x_back: 9.856 [ms]
[OGL LOG][lduLduBase.H:330] 
Statistics:
	Time per iteration: 74067 [mu s]
	Time per residual norm calculation: 1608.000000 [mu s]
	Time per iteration and DOF: 2.935841 [ns]
	Retrieve results bandwidth 2.562000 [GByte/s]
[OGL LOG][Proc: 0]nuTilda: solve_multi_gpu: 172.457 [ms]
BJcudaGKOBiCGStab:  Solving for nuTilda, Initial residual = 0.09257680479654257, Final residual = 0.004447795300179228, No Iterations 2
ExecutionTime = 776.78 s  ClockTime = 805 s

Time = 6

velocityDampingConstraint velocityDamping damped 1727 (0.01%) of cells, with max limit 300
[OGL LOG][Proc: 0]: global_index_init: 2.92 [ms]
[OGL LOG][Proc: 0]Ux_local_coeffs: call_update: 0 [ms]
[OGL LOG][Proc: 0]Ux_non_local_coeffs: call_update: 0 [ms]
[OGL LOG][Proc: 0]Ux: update_local_matrix_data: 181.24 [ms]
[OGL LOG][Proc: 0]Ux: update_non_local_matrix_data: 0.5649999999999999 [ms]
[OGL LOG][Proc: 0]Ux_matrix: call_update: 5.425 [ms]
[OGL LOG][Proc: 0]Ux_rhs: call_update: 6.074 [ms]
[OGL LOG][Preconditioner.H:121] Generate preconditioner BJ MaxBlockSize 1
[OGL LOG][Proc: 0]Ux: init_precond: 2.313 [ms]
[OGL LOG][StoppingCriterion.H:239] Creating stopping criterion with minIter 3 frequency 1
[OGL LOG][Proc: 0]Ux: generate_solver: 0.016 [ms]
[OGL LOG][Proc: 0]Ux: solve: 157.082 [ms]
[OGL LOG][Proc: 0]Ux: copy_x_back: 9.323 [ms]
[OGL LOG][lduLduBase.H:330] 
Statistics:
	Time per iteration: 78541 [mu s]
	Time per residual norm calculation: 1646.000000 [mu s]
	Time per iteration and DOF: 3.113180 [ns]
	Retrieve results bandwidth 2.709000 [GByte/s]
[OGL LOG][Proc: 0]Ux: solve_multi_gpu: 181.988 [ms]
BJcudaGKOBiCGStab:  Solving for Ux, Initial residual = 0.3215896457476223, Final residual = 0.03213416132442004, No Iterations 2
[OGL LOG][Proc: 0]: global_index_init: 12.659 [ms]
[OGL LOG][Proc: 0]Uy_local_coeffs: call_update: 0 [ms]
[OGL LOG][Proc: 0]Uy_non_local_coeffs: call_update: 0 [ms]
[OGL LOG][Proc: 0]Uy: update_local_matrix_data: 168.18 [ms]
[OGL LOG][Proc: 0]Uy: update_non_local_matrix_data: 0.61 [ms]
[OGL LOG][Proc: 0]Uy_matrix: call_update: 7.932 [ms]
[OGL LOG][Proc: 0]Uy_rhs: call_update: 4.943 [ms]
[OGL LOG][Preconditioner.H:121] Generate preconditioner BJ MaxBlockSize 1
[OGL LOG][Proc: 0]Uy: init_precond: 1.702 [ms]
[OGL LOG][StoppingCriterion.H:239] Creating stopping criterion with minIter 4 frequency 1
[OGL LOG][Proc: 0]Uy: generate_solver: 0.014 [ms]
[OGL LOG][Proc: 0]Uy: solve: 204.95 [ms]
[OGL LOG][Proc: 0]Uy: copy_x_back: 11.686 [ms]
[OGL LOG][lduLduBase.H:330] 
Statistics:
	Time per iteration: 68316 [mu s]
	Time per residual norm calculation: 1169.000000 [mu s]
	Time per iteration and DOF: 2.707885 [ns]
	Retrieve results bandwidth 2.161000 [GByte/s]
[OGL LOG][Proc: 0]Uy: solve_multi_gpu: 243.548 [ms]
BJcudaGKOBiCGStab:  Solving for Uy, Initial residual = 0.2993006255145707, Final residual = 0.02759096876631647, No Iterations 3
[OGL LOG][Proc: 0]: global_index_init: 0.128 [ms]
[OGL LOG][Proc: 0]Uz_local_coeffs: call_update: 0 [ms]
[OGL LOG][Proc: 0]Uz_non_local_coeffs: call_update: 0 [ms]
[OGL LOG][Proc: 0]Uz: update_local_matrix_data: 186.32 [ms]
[OGL LOG][Proc: 0]Uz: update_non_local_matrix_data: 0.652 [ms]
[OGL LOG][Proc: 0]Uz_matrix: call_update: 4.567 [ms]
[OGL LOG][Proc: 0]Uz_rhs: call_update: 8.196 [ms]
[OGL LOG][Preconditioner.H:121] Generate preconditioner BJ MaxBlockSize 1
[OGL LOG][Proc: 0]Uz: init_precond: 3.56 [ms]
[OGL LOG][StoppingCriterion.H:239] Creating stopping criterion with minIter 4 frequency 1
[OGL LOG][Proc: 0]Uz: generate_solver: 0.014 [ms]
[OGL LOG][Proc: 0]Uz: solve: 193.964 [ms]
[OGL LOG][Proc: 0]Uz: copy_x_back: 9.496 [ms]
[OGL LOG][lduLduBase.H:330] 
Statistics:
	Time per iteration: 64654 [mu s]
	Time per residual norm calculation: 1464.000000 [mu s]
	Time per iteration and DOF: 2.562732 [ns]
	Retrieve results bandwidth 2.660000 [GByte/s]
[OGL LOG][Proc: 0]Uz: solve_multi_gpu: 224.728 [ms]
BJcudaGKOBiCGStab:  Solving for Uz, Initial residual = 0.2923184345786886, Final residual = 0.02819848953185134, No Iterations 3
[OGL LOG][Proc: 0]: global_index_init: 0.017 [ms]
[OGL LOG][Proc: 0]p_local_coeffs: call_update: 0 [ms]
[OGL LOG][Proc: 0]p_non_local_coeffs: call_update: 0 [ms]
[OGL LOG][Proc: 0]p: update_local_matrix_data: 132.34 [ms]
[OGL LOG][Proc: 0]p: update_non_local_matrix_data: 0.665 [ms]
[OGL LOG][Proc: 0]p_matrix: call_update: 5.086 [ms]
[OGL LOG][Proc: 0]p_rhs: call_update: 3.255 [ms]
[OGL LOG][Preconditioner.H:121] Generate preconditioner BJ MaxBlockSize 1
[OGL LOG][Proc: 0]p: init_precond: 1.987 [ms]
[OGL LOG][StoppingCriterion.H:239] Creating stopping criterion with minIter 546 frequency 11
[OGL LOG][Proc: 0]p: generate_solver: 0.013 [ms]
[OGL LOG][Proc: 0]p: solve: 2181.826 [ms]
[OGL LOG][Proc: 0]p: copy_x_back: 9.436999999999999 [ms]
[OGL LOG][lduLduBase.H:330] 
Statistics:
	Time per iteration: 3882 [mu s]
	Time per residual norm calculation: 1301.000000 [mu s]
	Time per iteration and DOF: 0.153873 [ns]
	Retrieve results bandwidth 2.676000 [GByte/s]
[OGL LOG][Proc: 0]p: solve_multi_gpu: 2203.201 [ms]
BJcudaGKOCG:  Solving for p, Initial residual = 0.4460595665870116, Final residual = 0.004259888072765437, No Iterations 562
time step continuity errors : sum local = 0.03298037823643166, global = -0.003381943581330565, cumulative = -0.001053607782055123
[OGL LOG][Proc: 0]: global_index_init: 0.019 [ms]
[OGL LOG][Proc: 0]nuTilda_local_coeffs: call_update: 0 [ms]
[OGL LOG][Proc: 0]nuTilda_non_local_coeffs: call_update: 0 [ms]
[OGL LOG][Proc: 0]nuTilda: update_local_matrix_data: 164.486 [ms]
[OGL LOG][Proc: 0]nuTilda: update_non_local_matrix_data: 0.595 [ms]
[OGL LOG][Proc: 0]nuTilda_matrix: call_update: 4.756 [ms]
[OGL LOG][Proc: 0]nuTilda_rhs: call_update: 3.204 [ms]
[OGL LOG][Preconditioner.H:121] Generate preconditioner BJ MaxBlockSize 1
[OGL LOG][Proc: 0]nuTilda: init_precond: 2.169 [ms]
[OGL LOG][StoppingCriterion.H:239] Creating stopping criterion with minIter 3 frequency 1
[OGL LOG][Proc: 0]nuTilda: generate_solver: 0.016 [ms]
[OGL LOG][Proc: 0]nuTilda: solve: 145.089 [ms]
[OGL LOG][Proc: 0]nuTilda: copy_x_back: 9.567 [ms]
[OGL LOG][lduLduBase.H:330] 
Statistics:
	Time per iteration: 72544 [mu s]
	Time per residual norm calculation: 1760.000000 [mu s]
	Time per iteration and DOF: 2.875473 [ns]
	Retrieve results bandwidth 2.640000 [GByte/s]
[OGL LOG][Proc: 0]nuTilda: solve_multi_gpu: 170.96 [ms]
BJcudaGKOBiCGStab:  Solving for nuTilda, Initial residual = 0.06241971883309395, Final residual = 0.006004617449138472, No Iterations 2
bounding nuTilda, min: -6.08234469393493e-05 max: 0.001244648951857939 average: 8.075144002083186e-05
ExecutionTime = 793.13 s  ClockTime = 821 s

Time = 7

velocityDampingConstraint velocityDamping damped 1520 (0.01%) of cells, with max limit 300
[OGL LOG][Proc: 0]: global_index_init: 6.604 [ms]
[OGL LOG][Proc: 0]Ux_local_coeffs: call_update: 0 [ms]
[OGL LOG][Proc: 0]Ux_non_local_coeffs: call_update: 0 [ms]
[OGL LOG][Proc: 0]Ux: update_local_matrix_data: 180.256 [ms]
[OGL LOG][Proc: 0]Ux: update_non_local_matrix_data: 0.529 [ms]
[OGL LOG][Proc: 0]Ux_matrix: call_update: 5.05 [ms]
[OGL LOG][Proc: 0]Ux_rhs: call_update: 3.446 [ms]
[OGL LOG][Preconditioner.H:121] Generate preconditioner BJ MaxBlockSize 1
[OGL LOG][Proc: 0]Ux: init_precond: 2.192 [ms]
[OGL LOG][StoppingCriterion.H:239] Creating stopping criterion with minIter 3 frequency 1
[OGL LOG][Proc: 0]Ux: generate_solver: 0.016 [ms]
[OGL LOG][Proc: 0]Ux: solve: 175.896 [ms]
[OGL LOG][Proc: 0]Ux: copy_x_back: 9.355 [ms]
[OGL LOG][lduLduBase.H:330] 
Statistics:
	Time per iteration: 43974 [mu s]
	Time per residual norm calculation: 1751.000000 [mu s]
	Time per iteration and DOF: 1.743026 [ns]
	Retrieve results bandwidth 2.700000 [GByte/s]
[OGL LOG][Proc: 0]Ux: solve_multi_gpu: 199.104 [ms]
BJcudaGKOBiCGStab:  Solving for Ux, Initial residual = 0.2511568664667815, Final residual = 0.02244020032188864, No Iterations 4
[OGL LOG][Proc: 0]: global_index_init: 0.225 [ms]
[OGL LOG][Proc: 0]Uy_local_coeffs: call_update: 0 [ms]
[OGL LOG][Proc: 0]Uy_non_local_coeffs: call_update: 0 [ms]
[OGL LOG][Proc: 0]Uy: update_local_matrix_data: 174.861 [ms]
[OGL LOG][Proc: 0]Uy: update_non_local_matrix_data: 0.5600000000000001 [ms]
[OGL LOG][Proc: 0]Uy_matrix: call_update: 3.35 [ms]
[OGL LOG][Proc: 0]Uy_rhs: call_update: 4.993 [ms]
[OGL LOG][Preconditioner.H:121] Generate preconditioner BJ MaxBlockSize 1
[OGL LOG][Proc: 0]Uy: init_precond: 2.604 [ms]
[OGL LOG][StoppingCriterion.H:239] Creating stopping criterion with minIter 3 frequency 1
[OGL LOG][Proc: 0]Uy: generate_solver: 0.014 [ms]
[OGL LOG][Proc: 0]Uy: solve: 161.241 [ms]
[OGL LOG][Proc: 0]Uy: copy_x_back: 9.587 [ms]
[OGL LOG][lduLduBase.H:330] 
Statistics:
	Time per iteration: 53747 [mu s]
	Time per residual norm calculation: 1785.000000 [mu s]
	Time per iteration and DOF: 2.130404 [ns]
	Retrieve results bandwidth 2.634000 [GByte/s]
[OGL LOG][Proc: 0]Uy: solve_multi_gpu: 186.665 [ms]
BJcudaGKOBiCGStab:  Solving for Uy, Initial residual = 0.2292903274852644, Final residual = 0.01522612620580872, No Iterations 3
[OGL LOG][Proc: 0]: global_index_init: 0.104 [ms]
[OGL LOG][Proc: 0]Uz_local_coeffs: call_update: 0 [ms]
[OGL LOG][Proc: 0]Uz_non_local_coeffs: call_update: 0 [ms]
[OGL LOG][Proc: 0]Uz: update_local_matrix_data: 171.591 [ms]
[OGL LOG][Proc: 0]Uz: update_non_local_matrix_data: 0.528 [ms]
[OGL LOG][Proc: 0]Uz_matrix: call_update: 3.309 [ms]
[OGL LOG][Proc: 0]Uz_rhs: call_update: 6.1 [ms]
[OGL LOG][Preconditioner.H:121] Generate preconditioner BJ MaxBlockSize 1
[OGL LOG][Proc: 0]Uz: init_precond: 1.174 [ms]
[OGL LOG][StoppingCriterion.H:239] Creating stopping criterion with minIter 4 frequency 1
[OGL LOG][Proc: 0]Uz: generate_solver: 0.016 [ms]
[OGL LOG][Proc: 0]Uz: solve: 185.901 [ms]
[OGL LOG][Proc: 0]Uz: copy_x_back: 11.682 [ms]
[OGL LOG][lduLduBase.H:330] 
Statistics:
	Time per iteration: 46475 [mu s]
	Time per residual norm calculation: 1869.000000 [mu s]
	Time per iteration and DOF: 1.842159 [ns]
	Retrieve results bandwidth 2.162000 [GByte/s]
[OGL LOG][Proc: 0]Uz: solve_multi_gpu: 217.732 [ms]
BJcudaGKOBiCGStab:  Solving for Uz, Initial residual = 0.2086347255039069, Final residual = 0.01225980611962972, No Iterations 4
[OGL LOG][Proc: 0]: global_index_init: 0.017 [ms]
[OGL LOG][Proc: 0]p_local_coeffs: call_update: 0 [ms]
[OGL LOG][Proc: 0]p_non_local_coeffs: call_update: 0 [ms]
[OGL LOG][Proc: 0]p: update_local_matrix_data: 135.732 [ms]
[OGL LOG][Proc: 0]p: update_non_local_matrix_data: 0.574 [ms]
[OGL LOG][Proc: 0]p_matrix: call_update: 5.167 [ms]
[OGL LOG][Proc: 0]p_rhs: call_update: 3.292 [ms]
[OGL LOG][Preconditioner.H:121] Generate preconditioner BJ MaxBlockSize 1
[OGL LOG][Proc: 0]p: init_precond: 2.262 [ms]
[OGL LOG][StoppingCriterion.H:239] Creating stopping criterion with minIter 337 frequency 10
[OGL LOG][Proc: 0]p: generate_solver: 0.015 [ms]
[OGL LOG][Proc: 0]p: solve: 1419.731 [ms]
[OGL LOG][Proc: 0]p: copy_x_back: 9.972 [ms]
[OGL LOG][lduLduBase.H:330] 
Statistics:
	Time per iteration: 4044 [mu s]
	Time per residual norm calculation: 1148.000000 [mu s]
	Time per iteration and DOF: 0.160295 [ns]
	Retrieve results bandwidth 2.533000 [GByte/s]
[OGL LOG][Proc: 0]p: solve_multi_gpu: 1441.875 [ms]
BJcudaGKOCG:  Solving for p, Initial residual = 0.1936573367325579, Final residual = 0.001747956745470763, No Iterations 351
time step continuity errors : sum local = 0.01950057567466916, global = -0.002890624968114042, cumulative = -0.003944232750169164
[OGL LOG][Proc: 0]: global_index_init: 0.019 [ms]
[OGL LOG][Proc: 0]nuTilda_local_coeffs: call_update: 0 [ms]
[OGL LOG][Proc: 0]nuTilda_non_local_coeffs: call_update: 0 [ms]
[OGL LOG][Proc: 0]nuTilda: update_local_matrix_data: 160.778 [ms]
[OGL LOG][Proc: 0]nuTilda: update_non_local_matrix_data: 0.595 [ms]
[OGL LOG][Proc: 0]nuTilda_matrix: call_update: 4.632 [ms]
[OGL LOG][Proc: 0]nuTilda_rhs: call_update: 3.691 [ms]
[OGL LOG][Preconditioner.H:121] Generate preconditioner BJ MaxBlockSize 1
[OGL LOG][Proc: 0]nuTilda: init_precond: 2.234 [ms]
[OGL LOG][StoppingCriterion.H:239] Creating stopping criterion with minIter 2 frequency 1
[OGL LOG][Proc: 0]nuTilda: generate_solver: 0.016 [ms]
[OGL LOG][Proc: 0]nuTilda: solve: 150.014 [ms]
[OGL LOG][Proc: 0]nuTilda: copy_x_back: 9.85 [ms]
[OGL LOG][lduLduBase.H:330] 
Statistics:
	Time per iteration: 75007 [mu s]
	Time per residual norm calculation: 1552.000000 [mu s]
	Time per iteration and DOF: 2.973101 [ns]
	Retrieve results bandwidth 2.564000 [GByte/s]
[OGL LOG][Proc: 0]nuTilda: solve_multi_gpu: 185.015 [ms]
BJcudaGKOBiCGStab:  Solving for nuTilda, Initial residual = 0.0504306569785725, Final residual = 0.00303136108621354, No Iterations 2
ExecutionTime = 808.49 s  ClockTime = 837 s

Time = 8

velocityDampingConstraint velocityDamping damped 1081 (0%) of cells, with max limit 300
[OGL LOG][Proc: 0]: global_index_init: 0.148 [ms]
[OGL LOG][Proc: 0]Ux_local_coeffs: call_update: 0 [ms]
[OGL LOG][Proc: 0]Ux_non_local_coeffs: call_update: 0 [ms]
[OGL LOG][Proc: 0]Ux: update_local_matrix_data: 182.11 [ms]
[OGL LOG][Proc: 0]Ux: update_non_local_matrix_data: 0.519 [ms]
[OGL LOG][Proc: 0]Ux_matrix: call_update: 4.631 [ms]
[OGL LOG][Proc: 0]Ux_rhs: call_update: 3.281 [ms]
[OGL LOG][Preconditioner.H:121] Generate preconditioner BJ MaxBlockSize 1
[OGL LOG][Proc: 0]Ux: init_precond: 2.53 [ms]
[OGL LOG][StoppingCriterion.H:239] Creating stopping criterion with minIter 4 frequency 1
[OGL LOG][Proc: 0]Ux: generate_solver: 0.026 [ms]
[OGL LOG][Proc: 0]Ux: solve: 166.995 [ms]
[OGL LOG][Proc: 0]Ux: copy_x_back: 9.912000000000001 [ms]
[OGL LOG][lduLduBase.H:330] 
Statistics:
	Time per iteration: 41748 [mu s]
	Time per residual norm calculation: 1605.000000 [mu s]
	Time per iteration and DOF: 1.654792 [ns]
	Retrieve results bandwidth 2.548000 [GByte/s]
[OGL LOG][Proc: 0]Ux: solve_multi_gpu: 189.032 [ms]
BJcudaGKOBiCGStab:  Solving for Ux, Initial residual = 0.2276646042414226, Final residual = 0.01155854342539638, No Iterations 4
[OGL LOG][Proc: 0]: global_index_init: 0.731 [ms]
[OGL LOG][Proc: 0]Uy_local_coeffs: call_update: 0 [ms]
[OGL LOG][Proc: 0]Uy_non_local_coeffs: call_update: 0 [ms]
[OGL LOG][Proc: 0]Uy: update_local_matrix_data: 175.661 [ms]
[OGL LOG][Proc: 0]Uy: update_non_local_matrix_data: 0.548 [ms]
[OGL LOG][Proc: 0]Uy_matrix: call_update: 4.768 [ms]
[OGL LOG][Proc: 0]Uy_rhs: call_update: 3.507 [ms]
[OGL LOG][Preconditioner.H:121] Generate preconditioner BJ MaxBlockSize 1
[OGL LOG][Proc: 0]Uy: init_precond: 2.093 [ms]
[OGL LOG][StoppingCriterion.H:239] Creating stopping criterion with minIter 4 frequency 1
[OGL LOG][Proc: 0]Uy: generate_solver: 0.017 [ms]
[OGL LOG][Proc: 0]Uy: solve: 158.638 [ms]
[OGL LOG][Proc: 0]Uy: copy_x_back: 9.585000000000001 [ms]
[OGL LOG][lduLduBase.H:330] 
Statistics:
	Time per iteration: 39659 [mu s]
	Time per residual norm calculation: 1543.000000 [mu s]
	Time per iteration and DOF: 1.571989 [ns]
	Retrieve results bandwidth 2.635000 [GByte/s]
[OGL LOG][Proc: 0]Uy: solve_multi_gpu: 183.848 [ms]
BJcudaGKOBiCGStab:  Solving for Uy, Initial residual = 0.2649615864102106, Final residual = 0.008954006600257287, No Iterations 4
[OGL LOG][Proc: 0]: global_index_init: 0.12 [ms]
[OGL LOG][Proc: 0]Uz_local_coeffs: call_update: 0 [ms]
[OGL LOG][Proc: 0]Uz_non_local_coeffs: call_update: 0 [ms]
[OGL LOG][Proc: 0]Uz: update_local_matrix_data: 175.889 [ms]
[OGL LOG][Proc: 0]Uz: update_non_local_matrix_data: 0.534 [ms]
[OGL LOG][Proc: 0]Uz_matrix: call_update: 3.24 [ms]
[OGL LOG][Proc: 0]Uz_rhs: call_update: 4.507 [ms]
[OGL LOG][Preconditioner.H:121] Generate preconditioner BJ MaxBlockSize 1
[OGL LOG][Proc: 0]Uz: init_precond: 2.481 [ms]
[OGL LOG][StoppingCriterion.H:239] Creating stopping criterion with minIter 4 frequency 1
[OGL LOG][Proc: 0]Uz: generate_solver: 0.015 [ms]
[OGL LOG][Proc: 0]Uz: solve: 159.704 [ms]
[OGL LOG][Proc: 0]Uz: copy_x_back: 9.366 [ms]
[OGL LOG][lduLduBase.H:330] 
Statistics:
	Time per iteration: 39926 [mu s]
	Time per residual norm calculation: 1610.000000 [mu s]
	Time per iteration and DOF: 1.582573 [ns]
	Retrieve results bandwidth 2.697000 [GByte/s]
[OGL LOG][Proc: 0]Uz: solve_multi_gpu: 184.264 [ms]
BJcudaGKOBiCGStab:  Solving for Uz, Initial residual = 0.3352872871132404, Final residual = 0.01706804553283488, No Iterations 4
[OGL LOG][Proc: 0]: global_index_init: 0.023 [ms]
[OGL LOG][Proc: 0]p_local_coeffs: call_update: 0 [ms]
[OGL LOG][Proc: 0]p_non_local_coeffs: call_update: 0 [ms]
[OGL LOG][Proc: 0]p: update_local_matrix_data: 134.452 [ms]
[OGL LOG][Proc: 0]p: update_non_local_matrix_data: 0.574 [ms]
[OGL LOG][Proc: 0]p_matrix: call_update: 5.181 [ms]
[OGL LOG][Proc: 0]p_rhs: call_update: 3.243 [ms]
[OGL LOG][Preconditioner.H:121] Generate preconditioner BJ MaxBlockSize 1
[OGL LOG][Proc: 0]p: init_precond: 2.21 [ms]
[OGL LOG][StoppingCriterion.H:239] Creating stopping criterion with minIter 210 frequency 6
[OGL LOG][Proc: 0]p: generate_solver: 0.016 [ms]
[OGL LOG][Proc: 0]p: solve: 3513.941 [ms]
[OGL LOG][Proc: 0]p: copy_x_back: 9.656000000000001 [ms]
[OGL LOG][lduLduBase.H:330] 
Statistics:
	Time per iteration: 3926 [mu s]
	Time per residual norm calculation: 1441.000000 [mu s]
	Time per iteration and DOF: 0.155617 [ns]
	Retrieve results bandwidth 2.616000 [GByte/s]
[OGL LOG][Proc: 0]p: solve_multi_gpu: 3536.177 [ms]
BJcudaGKOCG:  Solving for p, Initial residual = 0.2386410057121465, Final residual = 0.002173775112303714, No Iterations 895
time step continuity errors : sum local = 0.02490775676383407, global = 0.0005723289089176765, cumulative = -0.003371903841251488
[OGL LOG][Proc: 0]: global_index_init: 0.024 [ms]
[OGL LOG][Proc: 0]nuTilda_local_coeffs: call_update: 0 [ms]
[OGL LOG][Proc: 0]nuTilda_non_local_coeffs: call_update: 0 [ms]
[OGL LOG][Proc: 0]nuTilda: update_local_matrix_data: 164.5 [ms]
[OGL LOG][Proc: 0]nuTilda: update_non_local_matrix_data: 0.625 [ms]
[OGL LOG][Proc: 0]nuTilda_matrix: call_update: 3.222 [ms]
[OGL LOG][Proc: 0]nuTilda_rhs: call_update: 5.063 [ms]
[OGL LOG][Preconditioner.H:121] Generate preconditioner BJ MaxBlockSize 1
[OGL LOG][Proc: 0]nuTilda: init_precond: 2.576 [ms]
[OGL LOG][StoppingCriterion.H:239] Creating stopping criterion with minIter 3 frequency 1
[OGL LOG][Proc: 0]nuTilda: generate_solver: 0.015 [ms]
[OGL LOG][Proc: 0]nuTilda: solve: 150.757 [ms]
[OGL LOG][Proc: 0]nuTilda: copy_x_back: 9.603 [ms]
[OGL LOG][lduLduBase.H:330] 
Statistics:
	Time per iteration: 75378 [mu s]
	Time per residual norm calculation: 1829.000000 [mu s]
	Time per iteration and DOF: 2.987806 [ns]
	Retrieve results bandwidth 2.630000 [GByte/s]
[OGL LOG][Proc: 0]nuTilda: solve_multi_gpu: 175.937 [ms]
BJcudaGKOBiCGStab:  Solving for nuTilda, Initial residual = 0.0410740675715121, Final residual = 0.002167999522408984, No Iterations 2
ExecutionTime = 825.74 s  ClockTime = 854 s

Time = 9

velocityDampingConstraint velocityDamping damped 480 (0%) of cells, with max limit 300
[OGL LOG][Proc: 0]: global_index_init: 0.146 [ms]
[OGL LOG][Proc: 0]Ux_local_coeffs: call_update: 0 [ms]
[OGL LOG][Proc: 0]Ux_non_local_coeffs: call_update: 0 [ms]
[OGL LOG][Proc: 0]Ux: update_local_matrix_data: 185.615 [ms]
[OGL LOG][Proc: 0]Ux: update_non_local_matrix_data: 0.717 [ms]
[OGL LOG][Proc: 0]Ux_matrix: call_update: 4.562 [ms]
[OGL LOG][Proc: 0]Ux_rhs: call_update: 7.404 [ms]
[OGL LOG][Preconditioner.H:121] Generate preconditioner BJ MaxBlockSize 1
[OGL LOG][Proc: 0]Ux: init_precond: 2.212 [ms]
[OGL LOG][StoppingCriterion.H:239] Creating stopping criterion with minIter 4 frequency 1
[OGL LOG][Proc: 0]Ux: generate_solver: 0.016 [ms]
[OGL LOG][Proc: 0]Ux: solve: 193.033 [ms]
[OGL LOG][Proc: 0]Ux: copy_x_back: 9.763 [ms]
[OGL LOG][lduLduBase.H:330] 
Statistics:
	Time per iteration: 38606 [mu s]
	Time per residual norm calculation: 1822.000000 [mu s]
	Time per iteration and DOF: 1.530251 [ns]
	Retrieve results bandwidth 2.587000 [GByte/s]
[OGL LOG][Proc: 0]Ux: solve_multi_gpu: 218.679 [ms]
BJcudaGKOBiCGStab:  Solving for Ux, Initial residual = 0.07482623974013693, Final residual = 0.001900376024688938, No Iterations 5
[OGL LOG][Proc: 0]: global_index_init: 0.171 [ms]
[OGL LOG][Proc: 0]Uy_local_coeffs: call_update: 0 [ms]
[OGL LOG][Proc: 0]Uy_non_local_coeffs: call_update: 0 [ms]
[OGL LOG][Proc: 0]Uy: update_local_matrix_data: 161.631 [ms]
[OGL LOG][Proc: 0]Uy: update_non_local_matrix_data: 0.726 [ms]
[OGL LOG][Proc: 0]Uy_matrix: call_update: 4.764 [ms]
[OGL LOG][Proc: 0]Uy_rhs: call_update: 3.281 [ms]
[OGL LOG][Preconditioner.H:121] Generate preconditioner BJ MaxBlockSize 1
[OGL LOG][Proc: 0]Uy: init_precond: 2.006 [ms]
[OGL LOG][StoppingCriterion.H:239] Creating stopping criterion with minIter 4 frequency 1
[OGL LOG][Proc: 0]Uy: generate_solver: 0.016 [ms]
[OGL LOG][Proc: 0]Uy: solve: 162.076 [ms]
[OGL LOG][Proc: 0]Uy: copy_x_back: 9.550000000000001 [ms]
[OGL LOG][lduLduBase.H:330] 
Statistics:
	Time per iteration: 54025 [mu s]
	Time per residual norm calculation: 1553.000000 [mu s]
	Time per iteration and DOF: 2.141424 [ns]
	Retrieve results bandwidth 2.645000 [GByte/s]
[OGL LOG][Proc: 0]Uy: solve_multi_gpu: 201.274 [ms]
BJcudaGKOBiCGStab:  Solving for Uy, Initial residual = 0.1563700949967522, Final residual = 0.01168847864557833, No Iterations 3
[OGL LOG][Proc: 0]: global_index_init: 0.115 [ms]
[OGL LOG][Proc: 0]Uz_local_coeffs: call_update: 0 [ms]
[OGL LOG][Proc: 0]Uz_non_local_coeffs: call_update: 0 [ms]
[OGL LOG][Proc: 0]Uz: update_local_matrix_data: 156.869 [ms]
[OGL LOG][Proc: 0]Uz: update_non_local_matrix_data: 0.6929999999999999 [ms]
[OGL LOG][Proc: 0]Uz_matrix: call_update: 4.652 [ms]
[OGL LOG][Proc: 0]Uz_rhs: call_update: 3.302 [ms]
[OGL LOG][Preconditioner.H:121] Generate preconditioner BJ MaxBlockSize 1
[OGL LOG][Proc: 0]Uz: init_precond: 2.061 [ms]
[OGL LOG][StoppingCriterion.H:239] Creating stopping criterion with minIter 4 frequency 1
[OGL LOG][Proc: 0]Uz: generate_solver: 0.014 [ms]
[OGL LOG][Proc: 0]Uz: solve: 186.069 [ms]
[OGL LOG][Proc: 0]Uz: copy_x_back: 9.266999999999999 [ms]
[OGL LOG][lduLduBase.H:330] 
Statistics:
	Time per iteration: 37213 [mu s]
	Time per residual norm calculation: 1592.000000 [mu s]
	Time per iteration and DOF: 1.475036 [ns]
	Retrieve results bandwidth 2.725000 [GByte/s]
[OGL LOG][Proc: 0]Uz: solve_multi_gpu: 225.475 [ms]
BJcudaGKOBiCGStab:  Solving for Uz, Initial residual = 0.5275407793442529, Final residual = 0.0178952912101438, No Iterations 5
[OGL LOG][Proc: 0]: global_index_init: 0.327 [ms]
[OGL LOG][Proc: 0]p_local_coeffs: call_update: 0 [ms]
[OGL LOG][Proc: 0]p_non_local_coeffs: call_update: 0 [ms]
[OGL LOG][Proc: 0]p: update_local_matrix_data: 130.443 [ms]
[OGL LOG][Proc: 0]p: update_non_local_matrix_data: 0.612 [ms]
[OGL LOG][Proc: 0]p_matrix: call_update: 5.134 [ms]
[OGL LOG][Proc: 0]p_rhs: call_update: 3.308 [ms]
[OGL LOG][Preconditioner.H:121] Generate preconditioner BJ MaxBlockSize 1
[OGL LOG][Proc: 0]p: init_precond: 2.214 [ms]
[OGL LOG][StoppingCriterion.H:239] Creating stopping criterion with minIter 537 frequency 13
[OGL LOG][Proc: 0]p: generate_solver: 0.013 [ms]
[OGL LOG][Proc: 0]p: solve: 2154.299 [ms]
[OGL LOG][Proc: 0]p: copy_x_back: 13.817 [ms]
[OGL LOG][lduLduBase.H:330] 
Statistics:
	Time per iteration: 3846 [mu s]
	Time per residual norm calculation: 1148.000000 [mu s]
	Time per iteration and DOF: 0.152446 [ns]
	Retrieve results bandwidth 1.828000 [GByte/s]
[OGL LOG][Proc: 0]p: solve_multi_gpu: 2186.585 [ms]
BJcudaGKOCG:  Solving for p, Initial residual = 0.3534037781757256, Final residual = 0.003199110312068684, No Iterations 560
time step continuity errors : sum local = 0.02862113975083696, global = 0.00301323216853601, cumulative = -0.0003586716727154776
[OGL LOG][Proc: 0]: global_index_init: 0.019 [ms]
[OGL LOG][Proc: 0]nuTilda_local_coeffs: call_update: 0 [ms]
[OGL LOG][Proc: 0]nuTilda_non_local_coeffs: call_update: 0 [ms]
[OGL LOG][Proc: 0]nuTilda: update_local_matrix_data: 164.383 [ms]
[OGL LOG][Proc: 0]nuTilda: update_non_local_matrix_data: 0.641 [ms]
[OGL LOG][Proc: 0]nuTilda_matrix: call_update: 4.49 [ms]
[OGL LOG][Proc: 0]nuTilda_rhs: call_update: 3.549 [ms]
[OGL LOG][Preconditioner.H:121] Generate preconditioner BJ MaxBlockSize 1
[OGL LOG][Proc: 0]nuTilda: init_precond: 2.577 [ms]
[OGL LOG][StoppingCriterion.H:239] Creating stopping criterion with minIter 3 frequency 1
[OGL LOG][Proc: 0]nuTilda: generate_solver: 0.015 [ms]
[OGL LOG][Proc: 0]nuTilda: solve: 149.955 [ms]
[OGL LOG][Proc: 0]nuTilda: copy_x_back: 9.94 [ms]
[OGL LOG][lduLduBase.H:330] 
Statistics:
	Time per iteration: 74977 [mu s]
	Time per residual norm calculation: 1637.000000 [mu s]
	Time per iteration and DOF: 2.971911 [ns]
	Retrieve results bandwidth 2.541000 [GByte/s]
[OGL LOG][Proc: 0]nuTilda: solve_multi_gpu: 181.031 [ms]
BJcudaGKOBiCGStab:  Solving for nuTilda, Initial residual = 0.03497450974634392, Final residual = 0.002139369740322156, No Iterations 2
ExecutionTime = 841.78 s  ClockTime = 870 s

Time = 10

velocityDampingConstraint velocityDamping damped 223 (0%) of cells, with max limit 300
[OGL LOG][Proc: 0]: global_index_init: 0.162 [ms]
[OGL LOG][Proc: 0]Ux_local_coeffs: call_update: 0 [ms]
[OGL LOG][Proc: 0]Ux_non_local_coeffs: call_update: 0 [ms]
[OGL LOG][Proc: 0]Ux: update_local_matrix_data: 183.808 [ms]
[OGL LOG][Proc: 0]Ux: update_non_local_matrix_data: 0.583 [ms]
[OGL LOG][Proc: 0]Ux_matrix: call_update: 4.958 [ms]
[OGL LOG][Proc: 0]Ux_rhs: call_update: 3.313 [ms]
[OGL LOG][Preconditioner.H:121] Generate preconditioner BJ MaxBlockSize 1
[OGL LOG][Proc: 0]Ux: init_precond: 2.121 [ms]
[OGL LOG][StoppingCriterion.H:239] Creating stopping criterion with minIter 6 frequency 1
[OGL LOG][Proc: 0]Ux: generate_solver: 0.016 [ms]
[OGL LOG][Proc: 0]Ux: solve: 165.13 [ms]
[OGL LOG][Proc: 0]Ux: copy_x_back: 9.478999999999999 [ms]
[OGL LOG][lduLduBase.H:330] 
Statistics:
	Time per iteration: 55043 [mu s]
	Time per residual norm calculation: 1642.000000 [mu s]
	Time per iteration and DOF: 2.181775 [ns]
	Retrieve results bandwidth 2.664000 [GByte/s]
[OGL LOG][Proc: 0]Ux: solve_multi_gpu: 186.692 [ms]
BJcudaGKOBiCGStab:  Solving for Ux, Initial residual = 0.0408272030218997, Final residual = 0.002680303608114386, No Iterations 3
[OGL LOG][Proc: 0]: global_index_init: 0.437 [ms]
[OGL LOG][Proc: 0]Uy_local_coeffs: call_update: 0 [ms]
[OGL LOG][Proc: 0]Uy_non_local_coeffs: call_update: 0 [ms]
[OGL LOG][Proc: 0]Uy: update_local_matrix_data: 176.073 [ms]
[OGL LOG][Proc: 0]Uy: update_non_local_matrix_data: 0.593 [ms]
[OGL LOG][Proc: 0]Uy_matrix: call_update: 4.936 [ms]
[OGL LOG][Proc: 0]Uy_rhs: call_update: 3.703 [ms]
[OGL LOG][Preconditioner.H:121] Generate preconditioner BJ MaxBlockSize 1
[OGL LOG][Proc: 0]Uy: init_precond: 1.567 [ms]
[OGL LOG][StoppingCriterion.H:239] Creating stopping criterion with minIter 3 frequency 1
[OGL LOG][Proc: 0]Uy: generate_solver: 0.018 [ms]
[OGL LOG][Proc: 0]Uy: solve: 183.122 [ms]
[OGL LOG][Proc: 0]Uy: copy_x_back: 9.282999999999999 [ms]
[OGL LOG][lduLduBase.H:330] 
Statistics:
	Time per iteration: 45780 [mu s]
	Time per residual norm calculation: 1369.000000 [mu s]
	Time per iteration and DOF: 1.814611 [ns]
	Retrieve results bandwidth 2.721000 [GByte/s]
[OGL LOG][Proc: 0]Uy: solve_multi_gpu: 207.603 [ms]
BJcudaGKOBiCGStab:  Solving for Uy, Initial residual = 0.1345342914177428, Final residual = 0.007040170933034143, No Iterations 4
[OGL LOG][Proc: 0]: global_index_init: 0.131 [ms]
[OGL LOG][Proc: 0]Uz_local_coeffs: call_update: 0 [ms]
[OGL LOG][Proc: 0]Uz_non_local_coeffs: call_update: 0 [ms]
[OGL LOG][Proc: 0]Uz: update_local_matrix_data: 176.065 [ms]
[OGL LOG][Proc: 0]Uz: update_non_local_matrix_data: 0.574 [ms]
[OGL LOG][Proc: 0]Uz_matrix: call_update: 4.4 [ms]
[OGL LOG][Proc: 0]Uz_rhs: call_update: 3.767 [ms]
[OGL LOG][Preconditioner.H:121] Generate preconditioner BJ MaxBlockSize 1
[OGL LOG][Proc: 0]Uz: init_precond: 2.271 [ms]
[OGL LOG][StoppingCriterion.H:239] Creating stopping criterion with minIter 6 frequency 1
[OGL LOG][Proc: 0]Uz: generate_solver: 0.017 [ms]
[OGL LOG][Proc: 0]Uz: solve: 157.639 [ms]
[OGL LOG][Proc: 0]Uz: copy_x_back: 9.371 [ms]
[OGL LOG][lduLduBase.H:330] 
Statistics:
	Time per iteration: 52546 [mu s]
	Time per residual norm calculation: 1262.000000 [mu s]
	Time per iteration and DOF: 2.082800 [ns]
	Retrieve results bandwidth 2.695000 [GByte/s]
[OGL LOG][Proc: 0]Uz: solve_multi_gpu: 182.366 [ms]
BJcudaGKOBiCGStab:  Solving for Uz, Initial residual = 0.1550977167189921, Final residual = 0.01436527810831901, No Iterations 3
[OGL LOG][Proc: 0]: global_index_init: 0.016 [ms]
[OGL LOG][Proc: 0]p_local_coeffs: call_update: 0 [ms]
[OGL LOG][Proc: 0]p_non_local_coeffs: call_update: 0 [ms]
[OGL LOG][Proc: 0]p: update_local_matrix_data: 133.58 [ms]
[OGL LOG][Proc: 0]p: update_non_local_matrix_data: 0.572 [ms]
[OGL LOG][Proc: 0]p_matrix: call_update: 4.888 [ms]
[OGL LOG][Proc: 0]p_rhs: call_update: 3.239 [ms]
[OGL LOG][Preconditioner.H:121] Generate preconditioner BJ MaxBlockSize 1
[OGL LOG][Proc: 0]p: init_precond: 2.207 [ms]
[OGL LOG][StoppingCriterion.H:239] Creating stopping criterion with minIter 336 frequency 8
[OGL LOG][Proc: 0]p: generate_solver: 0.013 [ms]
[OGL LOG][Proc: 0]p: solve: 1391.026 [ms]
[OGL LOG][Proc: 0]p: copy_x_back: 9.840999999999999 [ms]
[OGL LOG][lduLduBase.H:330] 
Statistics:
	Time per iteration: 4031 [mu s]
	Time per residual norm calculation: 1449.000000 [mu s]
	Time per iteration and DOF: 0.159779 [ns]
	Retrieve results bandwidth 2.566000 [GByte/s]
[OGL LOG][Proc: 0]p: solve_multi_gpu: 1414.227 [ms]
BJcudaGKOCG:  Solving for p, Initial residual = 0.2928816710323515, Final residual = 0.002925864273417449, No Iterations 345
time step continuity errors : sum local = 0.02184707100502126, global = 0.002120904243297176, cumulative = 0.001762232570581698
[OGL LOG][Proc: 0]: global_index_init: 0.9 [ms]
[OGL LOG][Proc: 0]nuTilda_local_coeffs: call_update: 0 [ms]
[OGL LOG][Proc: 0]nuTilda_non_local_coeffs: call_update: 0 [ms]
[OGL LOG][Proc: 0]nuTilda: update_local_matrix_data: 162.171 [ms]
[OGL LOG][Proc: 0]nuTilda: update_non_local_matrix_data: 0.585 [ms]
[OGL LOG][Proc: 0]nuTilda_matrix: call_update: 4.456 [ms]
[OGL LOG][Proc: 0]nuTilda_rhs: call_update: 3.307 [ms]
[OGL LOG][Preconditioner.H:121] Generate preconditioner BJ MaxBlockSize 1
[OGL LOG][Proc: 0]nuTilda: init_precond: 2.285 [ms]
[OGL LOG][StoppingCriterion.H:239] Creating stopping criterion with minIter 3 frequency 1
[OGL LOG][Proc: 0]nuTilda: generate_solver: 0.014 [ms]
[OGL LOG][Proc: 0]nuTilda: solve: 150.712 [ms]
[OGL LOG][Proc: 0]nuTilda: copy_x_back: 9.630000000000001 [ms]
[OGL LOG][lduLduBase.H:330] 
Statistics:
	Time per iteration: 75356 [mu s]
	Time per residual norm calculation: 1641.000000 [mu s]
	Time per iteration and DOF: 2.986934 [ns]
	Retrieve results bandwidth 2.623000 [GByte/s]
[OGL LOG][Proc: 0]nuTilda: solve_multi_gpu: 178.935 [ms]
BJcudaGKOBiCGStab:  Solving for nuTilda, Initial residual = 0.02967961750384551, Final residual = 0.001674037779347294, No Iterations 2
ExecutionTime = 856.91 s  ClockTime = 885 s

Time = 11

velocityDampingConstraint velocityDamping damped 120 (0%) of cells, with max limit 300
[OGL LOG][Proc: 0]: global_index_init: 0.115 [ms]
[OGL LOG][Proc: 0]Ux_local_coeffs: call_update: 0 [ms]
[OGL LOG][Proc: 0]Ux_non_local_coeffs: call_update: 0 [ms]
[OGL LOG][Proc: 0]Ux: update_local_matrix_data: 180.848 [ms]
[OGL LOG][Proc: 0]Ux: update_non_local_matrix_data: 0.5659999999999999 [ms]
[OGL LOG][Proc: 0]Ux_matrix: call_update: 5.153 [ms]
[OGL LOG][Proc: 0]Ux_rhs: call_update: 3.33 [ms]
[OGL LOG][Preconditioner.H:121] Generate preconditioner BJ MaxBlockSize 1
[OGL LOG][Proc: 0]Ux: init_precond: 2.178 [ms]
[OGL LOG][StoppingCriterion.H:239] Creating stopping criterion with minIter 4 frequency 1
[OGL LOG][Proc: 0]Ux: generate_solver: 0.016 [ms]
[OGL LOG][Proc: 0]Ux: solve: 172.274 [ms]
[OGL LOG][Proc: 0]Ux: copy_x_back: 9.951000000000001 [ms]
[OGL LOG][lduLduBase.H:330] 
Statistics:
	Time per iteration: 43068 [mu s]
	Time per residual norm calculation: 1758.000000 [mu s]
	Time per iteration and DOF: 1.707114 [ns]
	Retrieve results bandwidth 2.538000 [GByte/s]
[OGL LOG][Proc: 0]Ux: solve_multi_gpu: 194.559 [ms]
BJcudaGKOBiCGStab:  Solving for Ux, Initial residual = 0.05358044838950478, Final residual = 0.001765808637331413, No Iterations 4
[OGL LOG][Proc: 0]: global_index_init: 0.221 [ms]
[OGL LOG][Proc: 0]Uy_local_coeffs: call_update: 0 [ms]
[OGL LOG][Proc: 0]Uy_non_local_coeffs: call_update: 0 [ms]
[OGL LOG][Proc: 0]Uy: update_local_matrix_data: 170.342 [ms]
[OGL LOG][Proc: 0]Uy: update_non_local_matrix_data: 0.531 [ms]
[OGL LOG][Proc: 0]Uy_matrix: call_update: 4.572 [ms]
[OGL LOG][Proc: 0]Uy_rhs: call_update: 3.319 [ms]
[OGL LOG][Preconditioner.H:121] Generate preconditioner BJ MaxBlockSize 1
[OGL LOG][Proc: 0]Uy: init_precond: 1.987 [ms]
[OGL LOG][StoppingCriterion.H:239] Creating stopping criterion with minIter 4 frequency 1
[OGL LOG][Proc: 0]Uy: generate_solver: 0.017 [ms]
[OGL LOG][Proc: 0]Uy: solve: 161.375 [ms]
[...]
[OGL LOG][Proc: 0]: global_index_init: 0.018 [ms]
[OGL LOG][Proc: 0]nuTilda_local_coeffs: call_update: 0 [ms]
[OGL LOG][Proc: 0]nuTilda_non_local_coeffs: call_update: 0 [ms]
[OGL LOG][Proc: 0]nuTilda: update_local_matrix_data: 161.126 [ms]
[OGL LOG][Proc: 0]nuTilda: update_non_local_matrix_data: 0.696 [ms]
[OGL LOG][Proc: 0]nuTilda_matrix: call_update: 5.032 [ms]
[OGL LOG][Proc: 0]nuTilda_rhs: call_update: 3.368 [ms]
[OGL LOG][Preconditioner.H:121] Generate preconditioner BJ MaxBlockSize 1
[OGL LOG][Proc: 0]nuTilda: init_precond: 2.212 [ms]
[OGL LOG][StoppingCriterion.H:239] Creating stopping criterion with minIter 3 frequency 1
[OGL LOG][Proc: 0]nuTilda: generate_solver: 0.016 [ms]
[OGL LOG][Proc: 0]nuTilda: solve: 149.64 [ms]
[OGL LOG][Proc: 0]nuTilda: copy_x_back: 9.733000000000001 [ms]
[OGL LOG][lduLduBase.H:330] 
Statistics:
	Time per iteration: 74820 [mu s]
	Time per residual norm calculation: 1636.000000 [mu s]
	Time per iteration and DOF: 2.965688 [ns]
	Retrieve results bandwidth 2.595000 [GByte/s]
[OGL LOG][Proc: 0]nuTilda: solve_multi_gpu: 184.494 [ms]
BJcudaGKOBiCGStab:  Solving for nuTilda, Initial residual = 0.008139040234279006, Final residual = 0.0006052439948079711, No Iterations 2
bounding nuTilda, min: -4.731311243271756e-05 max: 0.02790907313256616 average: 0.001014813868616489
ExecutionTime = 2206.62 s  ClockTime = 2239 s

Time = 98

velocityDampingConstraint velocityDamping damped 0 (0%) of cells, with max limit 300
[OGL LOG][Proc: 0]: global_index_init: 9.702999999999999 [ms]
[OGL LOG][Proc: 0]Ux_local_coeffs: call_update: 0 [ms]
[OGL LOG][Proc: 0]Ux_non_local_coeffs: call_update: 0 [ms]
[OGL LOG][Proc: 0]Ux: update_local_matrix_data: 182.425 [ms]
[OGL LOG][Proc: 0]Ux: update_non_local_matrix_data: 0.634 [ms]
[OGL LOG][Proc: 0]Ux_matrix: call_update: 5.176 [ms]
[OGL LOG][Proc: 0]Ux_rhs: call_update: 3.321 [ms]
[OGL LOG][Preconditioner.H:121] Generate preconditioner BJ MaxBlockSize 1
[OGL LOG][Proc: 0]Ux: init_precond: 2.127 [ms]
[OGL LOG][StoppingCriterion.H:239] Creating stopping criterion with minIter 4 frequency 1
[OGL LOG][Proc: 0]Ux: generate_solver: 0.016 [ms]
[OGL LOG][Proc: 0]Ux: solve: 176.388 [ms]
[OGL LOG][Proc: 0]Ux: copy_x_back: 9.643000000000001 [ms]
[OGL LOG][lduLduBase.H:330] 
Statistics:
	Time per iteration: 58796 [mu s]
	Time per residual norm calculation: 1640.000000 [mu s]
	Time per iteration and DOF: 2.330535 [ns]
	Retrieve results bandwidth 2.619000 [GByte/s]
[OGL LOG][Proc: 0]Ux: solve_multi_gpu: 198.374 [ms]
BJcudaGKOBiCGStab:  Solving for Ux, Initial residual = 0.002728923208349011, Final residual = 0.0002534833426896697, No Iterations 3
[OGL LOG][Proc: 0]: global_index_init: 0.149 [ms]
[OGL LOG][Proc: 0]Uy_local_coeffs: call_update: 0 [ms]
[OGL LOG][Proc: 0]Uy_non_local_coeffs: call_update: 0 [ms]
[OGL LOG][Proc: 0]Uy: update_local_matrix_data: 170.849 [ms]
[OGL LOG][Proc: 0]Uy: update_non_local_matrix_data: 0.583 [ms]
[OGL LOG][Proc: 0]Uy_matrix: call_update: 3.133 [ms]
[OGL LOG][Proc: 0]Uy_rhs: call_update: 4.735 [ms]
[OGL LOG][Preconditioner.H:121] Generate preconditioner BJ MaxBlockSize 1
[OGL LOG][Proc: 0]Uy: init_precond: 2.535 [ms]
[OGL LOG][StoppingCriterion.H:239] Creating stopping criterion with minIter 4 frequency 1
[OGL LOG][Proc: 0]Uy: generate_solver: 0.015 [ms]
[OGL LOG][Proc: 0]Uy: solve: 173.789 [ms]
[OGL LOG][Proc: 0]Uy: copy_x_back: 9.515000000000001 [ms]
[OGL LOG][lduLduBase.H:330] 
Statistics:
	Time per iteration: 43447 [mu s]
	Time per residual norm calculation: 1933.000000 [mu s]
	Time per iteration and DOF: 1.722137 [ns]
	Retrieve results bandwidth 2.654000 [GByte/s]
[OGL LOG][Proc: 0]Uy: solve_multi_gpu: 200.633 [ms]
BJcudaGKOBiCGStab:  Solving for Uy, Initial residual = 0.01319249755586131, Final residual = 0.0006417108828730994, No Iterations 4
[OGL LOG][Proc: 0]: global_index_init: 0.116 [ms]
[OGL LOG][Proc: 0]Uz_local_coeffs: call_update: 0 [ms]
[OGL LOG][Proc: 0]Uz_non_local_coeffs: call_update: 0 [ms]
[OGL LOG][Proc: 0]Uz: update_local_matrix_data: 174.172 [ms]
[OGL LOG][Proc: 0]Uz: update_non_local_matrix_data: 0.647 [ms]
[OGL LOG][Proc: 0]Uz_matrix: call_update: 4.862 [ms]
[OGL LOG][Proc: 0]Uz_rhs: call_update: 3.398 [ms]
[OGL LOG][Preconditioner.H:121] Generate preconditioner BJ MaxBlockSize 1
[OGL LOG][Proc: 0]Uz: init_precond: 2.33 [ms]
[OGL LOG][StoppingCriterion.H:239] Creating stopping criterion with minIter 4 frequency 1
[OGL LOG][Proc: 0]Uz: generate_solver: 0.014 [ms]
[OGL LOG][Proc: 0]Uz: solve: 165.7 [ms]
[OGL LOG][Proc: 0]Uz: copy_x_back: 9.379 [ms]
[OGL LOG][lduLduBase.H:330] 
Statistics:
	Time per iteration: 41425 [mu s]
	Time per residual norm calculation: 1902.000000 [mu s]
	Time per iteration and DOF: 1.641989 [ns]
	Retrieve results bandwidth 2.693000 [GByte/s]
[OGL LOG][Proc: 0]Uz: solve_multi_gpu: 190.642 [ms]
BJcudaGKOBiCGStab:  Solving for Uz, Initial residual = 0.01295263589312721, Final residual = 0.0004894105014946262, No Iterations 4
[OGL LOG][Proc: 0]: global_index_init: 0.017 [ms]
[OGL LOG][Proc: 0]p_local_coeffs: call_update: 0 [ms]
[OGL LOG][Proc: 0]p_non_local_coeffs: call_update: 0 [ms]
[OGL LOG][Proc: 0]p: update_local_matrix_data: 105.59 [ms]
[OGL LOG][Proc: 0]p: update_non_local_matrix_data: 0.6889999999999999 [ms]
[OGL LOG][Proc: 0]p_matrix: call_update: 4.463 [ms]
[OGL LOG][Proc: 0]p_rhs: call_update: 3.386 [ms]
[OGL LOG][Preconditioner.H:121] Generate preconditioner BJ MaxBlockSize 1
[OGL LOG][Proc: 0]p: init_precond: 2.069 [ms]
[OGL LOG][StoppingCriterion.H:239] Creating stopping criterion with minIter 384 frequency 9
[OGL LOG][Proc: 0]p: generate_solver: 0.014 [ms]
[OGL LOG][Proc: 0]p: solve: 1553.465 [ms]
[OGL LOG][Proc: 0]p: copy_x_back: 10.39 [ms]
[OGL LOG][lduLduBase.H:330] 
Statistics:
	Time per iteration: 4003 [mu s]
	Time per residual norm calculation: 1436.000000 [mu s]
	Time per iteration and DOF: 0.158669 [ns]
	Retrieve results bandwidth 2.431000 [GByte/s]
[OGL LOG][Proc: 0]p: solve_multi_gpu: 1597.971 [ms]
BJcudaGKOCG:  Solving for p, Initial residual = 0.08538217145308574, Final residual = 0.0003495282214996991, No Iterations 388
time step continuity errors : sum local = 0.0002926300834871423, global = -4.054790124411293e-05, cumulative = -0.0009891293356533869
[OGL LOG][Proc: 0]: global_index_init: 0.018 [ms]
[OGL LOG][Proc: 0]nuTilda_local_coeffs: call_update: 0 [ms]
[OGL LOG][Proc: 0]nuTilda_non_local_coeffs: call_update: 0 [ms]
[OGL LOG][Proc: 0]nuTilda: update_local_matrix_data: 163.201 [ms]
[OGL LOG][Proc: 0]nuTilda: update_non_local_matrix_data: 0.551 [ms]
[OGL LOG][Proc: 0]nuTilda_matrix: call_update: 4.945 [ms]
[OGL LOG][Proc: 0]nuTilda_rhs: call_update: 3.389 [ms]
[OGL LOG][Preconditioner.H:121] Generate preconditioner BJ MaxBlockSize 1
[OGL LOG][Proc: 0]nuTilda: init_precond: 2.122 [ms]
[OGL LOG][StoppingCriterion.H:239] Creating stopping criterion with minIter 3 frequency 1
[OGL LOG][Proc: 0]nuTilda: generate_solver: 0.018 [ms]
[OGL LOG][Proc: 0]nuTilda: solve: 186.357 [ms]
[OGL LOG][Proc: 0]nuTilda: copy_x_back: 9.611000000000001 [ms]
[OGL LOG][lduLduBase.H:330] 
Statistics:
	Time per iteration: 93178 [mu s]
	Time per residual norm calculation: 1640.000000 [mu s]
	Time per iteration and DOF: 3.693356 [ns]
	Retrieve results bandwidth 2.628000 [GByte/s]
[OGL LOG][Proc: 0]nuTilda: solve_multi_gpu: 219.459 [ms]
BJcudaGKOBiCGStab:  Solving for nuTilda, Initial residual = 0.006850735454452318, Final residual = 0.0004789426568722141, No Iterations 2
bounding nuTilda, min: -1.10600054839761e-07 max: 0.02839290443335307 average: 0.001038910660763941
ExecutionTime = 2221.73 s  ClockTime = 2254 s

Time = 99

velocityDampingConstraint velocityDamping damped 0 (0%) of cells, with max limit 300
[OGL LOG][Proc: 0]: global_index_init: 0.696 [ms]
[OGL LOG][Proc: 0]Ux_local_coeffs: call_update: 0 [ms]
[OGL LOG][Proc: 0]Ux_non_local_coeffs: call_update: 0 [ms]
[OGL LOG][Proc: 0]Ux: update_local_matrix_data: 171.956 [ms]
[OGL LOG][Proc: 0]Ux: update_non_local_matrix_data: 0.575 [ms]
[OGL LOG][Proc: 0]Ux_matrix: call_update: 4.526 [ms]
[OGL LOG][Proc: 0]Ux_rhs: call_update: 6.701 [ms]
[OGL LOG][Preconditioner.H:121] Generate preconditioner BJ MaxBlockSize 1
[OGL LOG][Proc: 0]Ux: init_precond: 1.004 [ms]
[OGL LOG][StoppingCriterion.H:239] Creating stopping criterion with minIter 4 frequency 1
[OGL LOG][Proc: 0]Ux: generate_solver: 0.02 [ms]
[OGL LOG][Proc: 0]Ux: solve: 174.075 [ms]
[OGL LOG][Proc: 0]Ux: copy_x_back: 12.93 [ms]
[OGL LOG][lduLduBase.H:330] 
Statistics:
	Time per iteration: 58025 [mu s]
	Time per residual norm calculation: 1827.000000 [mu s]
	Time per iteration and DOF: 2.299974 [ns]
	Retrieve results bandwidth 1.953000 [GByte/s]
[OGL LOG][Proc: 0]Ux: solve_multi_gpu: 214.78 [ms]
BJcudaGKOBiCGStab:  Solving for Ux, Initial residual = 0.00259513887813856, Final residual = 0.0001756734247104394, No Iterations 3
[OGL LOG][Proc: 0]: global_index_init: 0.13 [ms]
[OGL LOG][Proc: 0]Uy_local_coeffs: call_update: 0 [ms]
[OGL LOG][Proc: 0]Uy_non_local_coeffs: call_update: 0 [ms]
[OGL LOG][Proc: 0]Uy: update_local_matrix_data: 178.985 [ms]
[OGL LOG][Proc: 0]Uy: update_non_local_matrix_data: 0.579 [ms]
[OGL LOG][Proc: 0]Uy_matrix: call_update: 3.264 [ms]
[OGL LOG][Proc: 0]Uy_rhs: call_update: 4.975 [ms]
[OGL LOG][Preconditioner.H:121] Generate preconditioner BJ MaxBlockSize 1
[OGL LOG][Proc: 0]Uy: init_precond: 2.056 [ms]
[OGL LOG][StoppingCriterion.H:239] Creating stopping criterion with minIter 4 frequency 1
[OGL LOG][Proc: 0]Uy: generate_solver: 0.016 [ms]
[OGL LOG][Proc: 0]Uy: solve: 184.655 [ms]
[OGL LOG][Proc: 0]Uy: copy_x_back: 9.631 [ms]
[OGL LOG][lduLduBase.H:330] 
Statistics:
	Time per iteration: 46163 [mu s]
	Time per residual norm calculation: 1930.000000 [mu s]
	Time per iteration and DOF: 1.829792 [ns]
	Retrieve results bandwidth 2.622000 [GByte/s]
[OGL LOG][Proc: 0]Uy: solve_multi_gpu: 209.38 [ms]
BJcudaGKOBiCGStab:  Solving for Uy, Initial residual = 0.01386032014796377, Final residual = 0.0006754678846365641, No Iterations 4
[OGL LOG][Proc: 0]: global_index_init: 0.114 [ms]
[OGL LOG][Proc: 0]Uz_local_coeffs: call_update: 0 [ms]
[OGL LOG][Proc: 0]Uz_non_local_coeffs: call_update: 0 [ms]
[OGL LOG][Proc: 0]Uz: update_local_matrix_data: 178.25 [ms]
[OGL LOG][Proc: 0]Uz: update_non_local_matrix_data: 0.571 [ms]
[OGL LOG][Proc: 0]Uz_matrix: call_update: 4.737 [ms]
[OGL LOG][Proc: 0]Uz_rhs: call_update: 3.283 [ms]
[OGL LOG][Preconditioner.H:121] Generate preconditioner BJ MaxBlockSize 1
[OGL LOG][Proc: 0]Uz: init_precond: 2.36 [ms]
[OGL LOG][StoppingCriterion.H:239] Creating stopping criterion with minIter 4 frequency 1
[OGL LOG][Proc: 0]Uz: generate_solver: 0.015 [ms]
[OGL LOG][Proc: 0]Uz: solve: 175.989 [ms]
[OGL LOG][Proc: 0]Uz: copy_x_back: 9.647 [ms]
[OGL LOG][lduLduBase.H:330] 
Statistics:
	Time per iteration: 43997 [mu s]
	Time per residual norm calculation: 1276.000000 [mu s]
	Time per iteration and DOF: 1.743937 [ns]
	Retrieve results bandwidth 2.618000 [GByte/s]
[OGL LOG][Proc: 0]Uz: solve_multi_gpu: 201.139 [ms]
BJcudaGKOBiCGStab:  Solving for Uz, Initial residual = 0.01357639767567786, Final residual = 0.0005109802390341804, No Iterations 4
[OGL LOG][Proc: 0]: global_index_init: 0.019 [ms]
[OGL LOG][Proc: 0]p_local_coeffs: call_update: 0 [ms]
[OGL LOG][Proc: 0]p_non_local_coeffs: call_update: 0 [ms]
[OGL LOG][Proc: 0]p: update_local_matrix_data: 118.144 [ms]
[OGL LOG][Proc: 0]p: update_non_local_matrix_data: 0.621 [ms]
[OGL LOG][Proc: 0]p_matrix: call_update: 4.384 [ms]
[OGL LOG][Proc: 0]p_rhs: call_update: 3.715 [ms]
[OGL LOG][Preconditioner.H:121] Generate preconditioner BJ MaxBlockSize 1
[OGL LOG][Proc: 0]p: init_precond: 2.056 [ms]
[OGL LOG][StoppingCriterion.H:239] Creating stopping criterion with minIter 232 frequency 8
[OGL LOG][Proc: 0]p: generate_solver: 0.015 [ms]
[OGL LOG][Proc: 0]p: solve: 2635.683 [ms]
[OGL LOG][Proc: 0]p: copy_x_back: 10.093 [ms]
[OGL LOG][lduLduBase.H:330] 
Statistics:
	Time per iteration: 3916 [mu s]
	Time per residual norm calculation: 1287.000000 [mu s]
	Time per iteration and DOF: 0.155221 [ns]
	Retrieve results bandwidth 2.502000 [GByte/s]
[OGL LOG][Proc: 0]p: solve_multi_gpu: 2674.53 [ms]
BJcudaGKOCG:  Solving for p, Initial residual = 0.07351763668319554, Final residual = 0.0006630249559330799, No Iterations 673
time step continuity errors : sum local = 0.000542345000430157, global = 5.957185416799835e-06, cumulative = -0.0009831721502365871
[OGL LOG][Proc: 0]: global_index_init: 0.019 [ms]
[OGL LOG][Proc: 0]nuTilda_local_coeffs: call_update: 0 [ms]
[OGL LOG][Proc: 0]nuTilda_non_local_coeffs: call_update: 0 [ms]
[OGL LOG][Proc: 0]nuTilda: update_local_matrix_data: 159.994 [ms]
[OGL LOG][Proc: 0]nuTilda: update_non_local_matrix_data: 0.582 [ms]
[OGL LOG][Proc: 0]nuTilda_matrix: call_update: 5.192 [ms]
[OGL LOG][Proc: 0]nuTilda_rhs: call_update: 3.395 [ms]
[OGL LOG][Preconditioner.H:121] Generate preconditioner BJ MaxBlockSize 1
[OGL LOG][Proc: 0]nuTilda: init_precond: 2.194 [ms]
[OGL LOG][StoppingCriterion.H:239] Creating stopping criterion with minIter 3 frequency 1
[OGL LOG][Proc: 0]nuTilda: generate_solver: 0.016 [ms]
[OGL LOG][Proc: 0]nuTilda: solve: 149.897 [ms]
[OGL LOG][Proc: 0]nuTilda: copy_x_back: 9.632999999999999 [ms]
[OGL LOG][lduLduBase.H:330] 
Statistics:
	Time per iteration: 74948 [mu s]
	Time per residual norm calculation: 1825.000000 [mu s]
	Time per iteration and DOF: 2.970762 [ns]
	Retrieve results bandwidth 2.622000 [GByte/s]
[OGL LOG][Proc: 0]nuTilda: solve_multi_gpu: 187.04 [ms]
BJcudaGKOBiCGStab:  Solving for nuTilda, Initial residual = 0.00792792271844742, Final residual = 0.0005837136624765708, No Iterations 2
bounding nuTilda, min: -5.87213358876601e-05 max: 0.02890682395684823 average: 0.001062620120351658
ExecutionTime = 2237.97 s  ClockTime = 2270 s

Time = 100

velocityDampingConstraint velocityDamping damped 0 (0%) of cells, with max limit 300
[OGL LOG][Proc: 0]: global_index_init: 14.993 [ms]
[OGL LOG][Proc: 0]Ux_local_coeffs: call_update: 0 [ms]
[OGL LOG][Proc: 0]Ux_non_local_coeffs: call_update: 0 [ms]
[OGL LOG][Proc: 0]Ux: update_local_matrix_data: 173.236 [ms]
[OGL LOG][Proc: 0]Ux: update_non_local_matrix_data: 0.575 [ms]
[OGL LOG][Proc: 0]Ux_matrix: call_update: 4.389 [ms]
[OGL LOG][Proc: 0]Ux_rhs: call_update: 3.463 [ms]
[OGL LOG][Preconditioner.H:121] Generate preconditioner BJ MaxBlockSize 1
[OGL LOG][Proc: 0]Ux: init_precond: 2.166 [ms]
[OGL LOG][StoppingCriterion.H:239] Creating stopping criterion with minIter 4 frequency 1
[OGL LOG][Proc: 0]Ux: generate_solver: 0.025 [ms]
[OGL LOG][Proc: 0]Ux: solve: 172.159 [ms]
[OGL LOG][Proc: 0]Ux: copy_x_back: 9.538 [ms]
[OGL LOG][lduLduBase.H:330] 
Statistics:
	Time per iteration: 57386 [mu s]
	Time per residual norm calculation: 1943.000000 [mu s]
	Time per iteration and DOF: 2.274646 [ns]
	Retrieve results bandwidth 2.648000 [GByte/s]
[OGL LOG][Proc: 0]Ux: solve_multi_gpu: 193.43 [ms]
BJcudaGKOBiCGStab:  Solving for Ux, Initial residual = 0.002536273816005144, Final residual = 0.0002285651166141048, No Iterations 3
[OGL LOG][Proc: 0]: global_index_init: 0.188 [ms]
[OGL LOG][Proc: 0]Uy_local_coeffs: call_update: 0 [ms]
[OGL LOG][Proc: 0]Uy_non_local_coeffs: call_update: 0 [ms]
[OGL LOG][Proc: 0]Uy: update_local_matrix_data: 168.4 [ms]
[OGL LOG][Proc: 0]Uy: update_non_local_matrix_data: 0.578 [ms]
[OGL LOG][Proc: 0]Uy_matrix: call_update: 4.732 [ms]
[OGL LOG][Proc: 0]Uy_rhs: call_update: 5.063 [ms]
[OGL LOG][Preconditioner.H:121] Generate preconditioner BJ MaxBlockSize 1
[OGL LOG][Proc: 0]Uy: init_precond: 1.409 [ms]
[OGL LOG][StoppingCriterion.H:239] Creating stopping criterion with minIter 4 frequency 1
[OGL LOG][Proc: 0]Uy: generate_solver: 0.018 [ms]
[OGL LOG][Proc: 0]Uy: solve: 172.647 [ms]
[OGL LOG][Proc: 0]Uy: copy_x_back: 9.436 [ms]
[OGL LOG][lduLduBase.H:330] 
Statistics:
	Time per iteration: 43161 [mu s]
	Time per residual norm calculation: 1936.000000 [mu s]
	Time per iteration and DOF: 1.710800 [ns]
	Retrieve results bandwidth 2.677000 [GByte/s]
[OGL LOG][Proc: 0]Uy: solve_multi_gpu: 208.651 [ms]
BJcudaGKOBiCGStab:  Solving for Uy, Initial residual = 0.01365127645706727, Final residual = 0.0008038198842863995, No Iterations 4
[OGL LOG][Proc: 0]: global_index_init: 0.142 [ms]
[OGL LOG][Proc: 0]Uz_local_coeffs: call_update: 0 [ms]
[OGL LOG][Proc: 0]Uz_non_local_coeffs: call_update: 0 [ms]
[OGL LOG][Proc: 0]Uz: update_local_matrix_data: 171.449 [ms]
[OGL LOG][Proc: 0]Uz: update_non_local_matrix_data: 0.541 [ms]
[OGL LOG][Proc: 0]Uz_matrix: call_update: 4.605 [ms]
[OGL LOG][Proc: 0]Uz_rhs: call_update: 3.755 [ms]
[OGL LOG][Preconditioner.H:121] Generate preconditioner BJ MaxBlockSize 1
[OGL LOG][Proc: 0]Uz: init_precond: 2.284 [ms]
[OGL LOG][StoppingCriterion.H:239] Creating stopping criterion with minIter 4 frequency 1
[OGL LOG][Proc: 0]Uz: generate_solver: 0.014 [ms]
[OGL LOG][Proc: 0]Uz: solve: 183.512 [ms]
[OGL LOG][Proc: 0]Uz: copy_x_back: 9.337999999999999 [ms]
[OGL LOG][lduLduBase.H:330] 
Statistics:
	Time per iteration: 45878 [mu s]
	Time per residual norm calculation: 1934.000000 [mu s]
	Time per iteration and DOF: 1.818496 [ns]
	Retrieve results bandwidth 2.705000 [GByte/s]
[OGL LOG][Proc: 0]Uz: solve_multi_gpu: 210.092 [ms]
BJcudaGKOBiCGStab:  Solving for Uz, Initial residual = 0.01329600796563394, Final residual = 0.0005437590693880061, No Iterations 4
[OGL LOG][Proc: 0]: global_index_init: 0.02 [ms]
[OGL LOG][Proc: 0]p_local_coeffs: call_update: 0 [ms]
[OGL LOG][Proc: 0]p_non_local_coeffs: call_update: 0 [ms]
[OGL LOG][Proc: 0]p: update_local_matrix_data: 133.121 [ms]
[OGL LOG][Proc: 0]p: update_non_local_matrix_data: 0.5639999999999999 [ms]
[OGL LOG][Proc: 0]p_matrix: call_update: 4.731 [ms]
[OGL LOG][Proc: 0]p_rhs: call_update: 3.216 [ms]
[OGL LOG][Preconditioner.H:121] Generate preconditioner BJ MaxBlockSize 1
[OGL LOG][Proc: 0]p: init_precond: 2.209 [ms]
[OGL LOG][StoppingCriterion.H:239] Creating stopping criterion with minIter 403 frequency 9
[OGL LOG][Proc: 0]p: generate_solver: 0.016 [ms]
[OGL LOG][Proc: 0]p: solve: 2610.128 [ms]
[OGL LOG][Proc: 0]p: copy_x_back: 10.212 [ms]
[OGL LOG][lduLduBase.H:330] 
Statistics:
	Time per iteration: 3861 [mu s]
	Time per residual norm calculation: 1445.000000 [mu s]
	Time per iteration and DOF: 0.153041 [ns]
	Retrieve results bandwidth 2.473000 [GByte/s]
[OGL LOG][Proc: 0]p: solve_multi_gpu: 2631.953 [ms]
BJcudaGKOCG:  Solving for p, Initial residual = 0.07607893774704427, Final residual = 0.0007261905202459931, No Iterations 676
time step continuity errors : sum local = 0.0005249286167728312, global = -3.26970818622863e-05, cumulative = -0.001015869232098873
[OGL LOG][Proc: 0]: global_index_init: 0.025 [ms]
[OGL LOG][Proc: 0]nuTilda_local_coeffs: call_update: 0 [ms]
[OGL LOG][Proc: 0]nuTilda_non_local_coeffs: call_update: 0 [ms]
[OGL LOG][Proc: 0]nuTilda: update_local_matrix_data: 164.079 [ms]
[OGL LOG][Proc: 0]nuTilda: update_non_local_matrix_data: 0.59 [ms]
[OGL LOG][Proc: 0]nuTilda_matrix: call_update: 3.932 [ms]
[OGL LOG][Proc: 0]nuTilda_rhs: call_update: 4.365 [ms]
[OGL LOG][Preconditioner.H:121] Generate preconditioner BJ MaxBlockSize 1
[OGL LOG][Proc: 0]nuTilda: init_precond: 2.626 [ms]
[OGL LOG][StoppingCriterion.H:239] Creating stopping criterion with minIter 3 frequency 1
[OGL LOG][Proc: 0]nuTilda: generate_solver: 0.016 [ms]
[OGL LOG][Proc: 0]nuTilda: solve: 148.999 [ms]
[OGL LOG][Proc: 0]nuTilda: copy_x_back: 9.614000000000001 [ms]
[OGL LOG][lduLduBase.H:330] 
Statistics:
	Time per iteration: 74499 [mu s]
	Time per residual norm calculation: 1449.000000 [mu s]
	Time per iteration and DOF: 2.952965 [ns]
	Retrieve results bandwidth 2.627000 [GByte/s]
[OGL LOG][Proc: 0]nuTilda: solve_multi_gpu: 183.686 [ms]
BJcudaGKOBiCGStab:  Solving for nuTilda, Initial residual = 0.006723565902029745, Final residual = 0.0004657617519501134, No Iterations 2
bounding nuTilda, min: -6.458789856618341e-06 max: 0.02948377594512953 average: 0.00108743643838758
ExecutionTime = 2254.24 s  ClockTime = 2286 s

End

Finalising parallel run
