/*---------------------------------------------------------------------------*\
| =========                 |                                                 |
| \\      /  F ield         | OpenFOAM: The Open Source CFD Toolbox           |
|  \\    /   O peration     | Version:  2306                                  |
|   \\  /    A nd           | Website:  www.openfoam.com                      |
|    \\/     M anipulation  |                                                 |
\*---------------------------------------------------------------------------*/
Build  : a6e826bd55-20230630 OPENFOAM=2306 version=v2306
Arch   : "LSB;label=32;scalar=64"
Exec   : icoFoam -parallel -case /tmp/lidDrivenCavity3D/workspace/8fed11381e5b8d7273c318850135f4cc/case
Date   : Dec 05 2023
Time   : 16:52:19
Host   : nla-gpu2.ianm.kit.edu
PID    : 3924285
I/O    : uncollated
Case   : /tmp/lidDrivenCavity3D/workspace/8fed11381e5b8d7273c318850135f4cc/case
nProcs : 16
Hosts  :
(
    (nla-gpu2.ianm.kit.edu 16)
)
Pstream initialized with:
    floatTransfer      : false
    nProcsSimpleSum    : 0
    nonBlockingExchange: 0 (tuning: 0)
    exchange algorithm : -1
    commsType          : nonBlocking
    polling iterations : 0
trapFpe: Floating point exception trapping enabled (FOAM_SIGFPE).
fileModificationChecking : Monitoring run-time modified files using timeStampMaster (fileModificationSkew 5, maxFileModificationPolls 20)
allowSystemOperations : Allowing user-supplied system call operations

// * * * * * * * * * * * * * * * * * * * * * * * * * * * * * * * * * * * * * //
Create time

--> FOAM Warning : 
    From void* Foam::dlLibraryTable::openLibrary(const Foam::fileName&, bool)
    in file db/dynamicLibrary/dlLibraryTable/dlLibraryTable.C at line 188
    Could not load "libpetscFoam.so"
libpetscFoam.so: cannot open shared object file: No such file or directory
Create mesh for time = 0


PISO: Operating solver in PISO mode

Reading transportProperties

Reading field p

Reading field U

Reading/calculating face flux field phi


Starting time loop

Time = 0.00025

Courant Number mean: 8.24341e-18 max: 2.08167e-14
momentum setup 74.926 [ms]
DILUPBiCGStab:  Solving for Ux, Initial residual = 1, Final residual = 0.00994539, No Iterations 5
DILUPBiCGStab:  Solving for Uy:  solution singularity
DILUPBiCGStab:  Solving for Uz:  solution singularity
piso setup 75.448 [ms]
 correctNonOrthogonal 
 setRef 
 startSolve 
GAMG:  Solving for p, Initial residual = 1, Final residual = 9.79867e-05, No Iterations 29
piso step 1569.27 [ms]
 contErrors 
time step continuity errors : sum local = 7.53028e-09, global = -3.51402e-21, cumulative = -3.51402e-21
piso setup 71.029 [ms]
 correctNonOrthogonal 
 setRef 
 startSolve 
GAMG:  Solving for p, Initial residual = 0.786399, Final residual = 9.58387e-05, No Iterations 29
piso step 1445.98 [ms]
 contErrors 
time step continuity errors : sum local = 9.23324e-09, global = 7.70674e-22, cumulative = -2.74334e-21
ExecutionTime = 4.12 s  ClockTime = 5 s

Time = 0.0005

Courant Number mean: 0.015946 max: 0.41255
momentum setup 61.804 [ms]
DILUPBiCGStab:  Solving for Ux, Initial residual = 0.129578, Final residual = 0.00549915, No Iterations 5
DILUPBiCGStab:  Solving for Uy, Initial residual = 0.426974, Final residual = 0.0140639, No Iterations 5
DILUPBiCGStab:  Solving for Uz, Initial residual = 0.984544, Final residual = 0.036337, No Iterations 5
piso setup 72.211 [ms]
 correctNonOrthogonal 
 setRef 
 startSolve 
GAMG:  Solving for p, Initial residual = 0.82519, Final residual = 8.72981e-05, No Iterations 26
piso step 1296.31 [ms]
 contErrors 
time step continuity errors : sum local = 1.29038e-08, global = -1.62494e-21, cumulative = -4.36829e-21
piso setup 70.96 [ms]
 correctNonOrthogonal 
 setRef 
 startSolve 
GAMG:  Solving for p, Initial residual = 0.768331, Final residual = 7.61867e-05, No Iterations 27
piso step 1345.95 [ms]
 contErrors 
time step continuity errors : sum local = 1.14316e-08, global = -7.74396e-22, cumulative = -5.14269e-21
ExecutionTime = 7.51 s  ClockTime = 8 s

Time = 0.00075

Courant Number mean: 0.0243301 max: 0.472023
momentum setup 59.044 [ms]
DILUPBiCGStab:  Solving for Ux, Initial residual = 0.0547714, Final residual = 0.00187196, No Iterations 5
DILUPBiCGStab:  Solving for Uy, Initial residual = 0.182216, Final residual = 0.00762616, No Iterations 5
DILUPBiCGStab:  Solving for Uz, Initial residual = 0.818202, Final residual = 0.0302568, No Iterations 5
piso setup 72.231 [ms]
 correctNonOrthogonal 
 setRef 
 startSolve 
GAMG:  Solving for p, Initial residual = 0.849503, Final residual = 6.44166e-05, No Iterations 28
piso step 1381.29 [ms]
 contErrors 
time step continuity errors : sum local = 8.67537e-09, global = -4.15555e-22, cumulative = -5.55824e-21
piso setup 70.152 [ms]
 correctNonOrthogonal 
 setRef 
 startSolve 
GAMG:  Solving for p, Initial residual = 0.815979, Final residual = 7.64996e-05, No Iterations 30
piso step 1501.39 [ms]
 contErrors 
time step continuity errors : sum local = 1.00813e-08, global = -1.25675e-21, cumulative = -6.81499e-21
ExecutionTime = 11.13 s  ClockTime = 12 s

Time = 0.001

Courant Number mean: 0.0291964 max: 0.467803
momentum setup 59.667 [ms]
DILUPBiCGStab:  Solving for Ux, Initial residual = 0.0346968, Final residual = 0.00124202, No Iterations 5
DILUPBiCGStab:  Solving for Uy, Initial residual = 0.129112, Final residual = 0.00473228, No Iterations 5
DILUPBiCGStab:  Solving for Uz, Initial residual = 0.654323, Final residual = 0.0214603, No Iterations 5
piso setup 72.071 [ms]
 correctNonOrthogonal 
 setRef 
 startSolve 
GAMG:  Solving for p, Initial residual = 0.770979, Final residual = 9.14476e-05, No Iterations 18
piso step 905.823 [ms]
 contErrors 
time step continuity errors : sum local = 1.12228e-08, global = -6.21833e-22, cumulative = -7.43682e-21
piso setup 70.037 [ms]
 correctNonOrthogonal 
 setRef 
 startSolve 
GAMG:  Solving for p, Initial residual = 0.708334, Final residual = 8.868e-05, No Iterations 20
piso step 1012.73 [ms]
 contErrors 
time step continuity errors : sum local = 1.10588e-08, global = -1.44322e-21, cumulative = -8.88004e-21
ExecutionTime = 13.79 s  ClockTime = 14 s

Time = 0.00125

Courant Number mean: 0.0333388 max: 0.472949
momentum setup 59.627 [ms]
DILUPBiCGStab:  Solving for Ux, Initial residual = 0.0271358, Final residual = 0.00090271, No Iterations 5
DILUPBiCGStab:  Solving for Uy, Initial residual = 0.081374, Final residual = 0.00356563, No Iterations 5
DILUPBiCGStab:  Solving for Uz, Initial residual = 0.560863, Final residual = 0.0237886, No Iterations 5
piso setup 71.694 [ms]
 correctNonOrthogonal 
 setRef 
 startSolve 
GAMG:  Solving for p, Initial residual = 0.77662, Final residual = 9.759e-05, No Iterations 24
piso step 1182.27 [ms]
 contErrors 
time step continuity errors : sum local = 9.95114e-09, global = 1.74664e-21, cumulative = -7.1334e-21
piso setup 69.602 [ms]
 correctNonOrthogonal 
 setRef 
 startSolve 
GAMG:  Solving for p, Initial residual = 0.725817, Final residual = 8.52453e-05, No Iterations 22
piso step 1095.63 [ms]
 contErrors 
time step continuity errors : sum local = 8.53645e-09, global = -7.68864e-22, cumulative = -7.90226e-21
ExecutionTime = 16.8 s  ClockTime = 17 s

Time = 0.0015

Courant Number mean: 0.0366394 max: 0.475603
momentum setup 62.678 [ms]
DILUPBiCGStab:  Solving for Ux, Initial residual = 0.0204312, Final residual = 0.000644974, No Iterations 5
DILUPBiCGStab:  Solving for Uy, Initial residual = 0.0658627, Final residual = 0.00245015, No Iterations 5
DILUPBiCGStab:  Solving for Uz, Initial residual = 0.428358, Final residual = 0.0174703, No Iterations 5
piso setup 71.899 [ms]
 correctNonOrthogonal 
 setRef 
 startSolve 
GAMG:  Solving for p, Initial residual = 0.684031, Final residual = 8.82946e-05, No Iterations 18
piso step 908.689 [ms]
 contErrors 
time step continuity errors : sum local = 8.27119e-09, global = -2.37633e-21, cumulative = -1.02786e-20
piso setup 70.233 [ms]
 correctNonOrthogonal 
 setRef 
 startSolve 
GAMG:  Solving for p, Initial residual = 0.623667, Final residual = 6.822e-05, No Iterations 22
piso step 1100.03 [ms]
 contErrors 
time step continuity errors : sum local = 6.40648e-09, global = -3.15936e-21, cumulative = -1.3438e-20
ExecutionTime = 19.55 s  ClockTime = 20 s

Time = 0.00175

Courant Number mean: 0.039555 max: 0.477547
momentum setup 61.106 [ms]
DILUPBiCGStab:  Solving for Ux, Initial residual = 0.0174476, Final residual = 0.0005135, No Iterations 5
DILUPBiCGStab:  Solving for Uy, Initial residual = 0.0490013, Final residual = 0.00179609, No Iterations 5
DILUPBiCGStab:  Solving for Uz, Initial residual = 0.341165, Final residual = 0.0158831, No Iterations 5
piso setup 71.474 [ms]
 correctNonOrthogonal 
 setRef 
 startSolve 
GAMG:  Solving for p, Initial residual = 0.679786, Final residual = 8.06684e-05, No Iterations 21
piso step 1046.06 [ms]
 contErrors 
time step continuity errors : sum local = 6.29452e-09, global = -3.13504e-21, cumulative = -1.6573e-20
piso setup 69.616 [ms]
 correctNonOrthogonal 
 setRef 
 startSolve 
GAMG:  Solving for p, Initial residual = 0.620706, Final residual = 8.58569e-05, No Iterations 23
piso step 1143.03 [ms]
 contErrors 
time step continuity errors : sum local = 6.66285e-09, global = -1.29177e-21, cumulative = -1.78648e-20
ExecutionTime = 22.47 s  ClockTime = 23 s

Time = 0.002

Courant Number mean: 0.0420796 max: 0.479237
momentum setup 62.83 [ms]
DILUPBiCGStab:  Solving for Ux, Initial residual = 0.0142969, Final residual = 0.000394596, No Iterations 5
DILUPBiCGStab:  Solving for Uy, Initial residual = 0.0417652, Final residual = 0.00138504, No Iterations 5
DILUPBiCGStab:  Solving for Uz, Initial residual = 0.266267, Final residual = 0.0115295, No Iterations 5
piso setup 72.266 [ms]
 correctNonOrthogonal 
 setRef 
 startSolve 
GAMG:  Solving for p, Initial residual = 0.588949, Final residual = 7.63067e-05, No Iterations 21
piso step 1042.33 [ms]
 contErrors 
time step continuity errors : sum local = 5.66145e-09, global = -2.33063e-21, cumulative = -2.01954e-20
piso setup 70.365 [ms]
 correctNonOrthogonal 
 setRef 
 startSolve 
GAMG:  Solving for p, Initial residual = 0.531832, Final residual = 6.83092e-05, No Iterations 24
piso step 1204.1 [ms]
 contErrors 
time step continuity errors : sum local = 5.05555e-09, global = -3.30821e-22, cumulative = -2.05262e-20
ExecutionTime = 25.46 s  ClockTime = 26 s

Time = 0.00225

Courant Number mean: 0.0443654 max: 0.480386
momentum setup 59.232 [ms]
DILUPBiCGStab:  Solving for Ux, Initial residual = 0.0125732, Final residual = 0.000325563, No Iterations 5
DILUPBiCGStab:  Solving for Uy, Initial residual = 0.0336539, Final residual = 0.000984328, No Iterations 5
DILUPBiCGStab:  Solving for Uz, Initial residual = 0.220679, Final residual = 0.0109745, No Iterations 5
piso setup 71.864 [ms]
 correctNonOrthogonal 
 setRef 
 startSolve 
GAMG:  Solving for p, Initial residual = 0.575964, Final residual = 8.95985e-05, No Iterations 24
piso step 1185.64 [ms]
 contErrors 
time step continuity errors : sum local = 5.77474e-09, global = -4.25155e-21, cumulative = -2.47778e-20
piso setup 70.467 [ms]
 correctNonOrthogonal 
 setRef 
 startSolve 
GAMG:  Solving for p, Initial residual = 0.515644, Final residual = 9.73456e-05, No Iterations 27
piso step 1333.01 [ms]
 contErrors 
time step continuity errors : sum local = 6.26227e-09, global = -4.33019e-21, cumulative = -2.9108e-20
ExecutionTime = 28.71 s  ClockTime = 29 s

Time = 0.0025

Courant Number mean: 0.0464195 max: 0.481483
momentum setup 60.619 [ms]
DILUPBiCGStab:  Solving for Ux, Initial residual = 0.0108271, Final residual = 0.000262357, No Iterations 5
DILUPBiCGStab:  Solving for Uy, Initial residual = 0.0294868, Final residual = 0.000804489, No Iterations 5
DILUPBiCGStab:  Solving for Uz, Initial residual = 0.187658, Final residual = 0.00925905, No Iterations 5
piso setup 71.638 [ms]
 correctNonOrthogonal 
 setRef 
 startSolve 
GAMG:  Solving for p, Initial residual = 0.499867, Final residual = 7.02231e-05, No Iterations 29
piso step 1429.39 [ms]
 contErrors 
time step continuity errors : sum local = 4.38222e-09, global = -4.05972e-21, cumulative = -3.31677e-20
piso setup 70.147 [ms]
 correctNonOrthogonal 
 setRef 
 startSolve 
GAMG:  Solving for p, Initial residual = 0.447579, Final residual = 8.3965e-05, No Iterations 23
piso step 1144.66 [ms]
 contErrors 
time step continuity errors : sum local = 5.22356e-09, global = -9.12509e-22, cumulative = -3.40802e-20
ExecutionTime = 32.02 s  ClockTime = 33 s

Time = 0.00275

Courant Number mean: 0.0483079 max: 0.482263
momentum setup 60.627 [ms]
DILUPBiCGStab:  Solving for Ux, Initial residual = 0.00969339, Final residual = 0.000220323, No Iterations 5
DILUPBiCGStab:  Solving for Uy, Initial residual = 0.0249688, Final residual = 0.00058503, No Iterations 5
DILUPBiCGStab:  Solving for Uz, Initial residual = 0.157136, Final residual = 0.00818984, No Iterations 5
piso setup 72.278 [ms]
 correctNonOrthogonal 
 setRef 
 startSolve 
GAMG:  Solving for p, Initial residual = 0.475367, Final residual = 9.40969e-05, No Iterations 28
piso step 1381.71 [ms]
 contErrors 
time step continuity errors : sum local = 5.32118e-09, global = -2.09178e-21, cumulative = -3.6172e-20
piso setup 70.935 [ms]
 correctNonOrthogonal 
 setRef 
 startSolve 
GAMG:  Solving for p, Initial residual = 0.421489, Final residual = 9.01206e-05, No Iterations 35
piso step 1711.62 [ms]
 contErrors 
time step continuity errors : sum local = 5.08969e-09, global = -4.18135e-21, cumulative = -4.03533e-20
ExecutionTime = 35.84 s  ClockTime = 36 s

Time = 0.003

Courant Number mean: 0.0500407 max: 0.483041
momentum setup 60.767 [ms]
DILUPBiCGStab:  Solving for Ux, Initial residual = 0.0086086, Final residual = 0.000183926, No Iterations 5
DILUPBiCGStab:  Solving for Uy, Initial residual = 0.0223059, Final residual = 0.000482937, No Iterations 5
DILUPBiCGStab:  Solving for Uz, Initial residual = 0.135291, Final residual = 0.00698931, No Iterations 5
piso setup 71.442 [ms]
 correctNonOrthogonal 
 setRef 
 startSolve 
GAMG:  Solving for p, Initial residual = 0.418647, Final residual = 9.36721e-05, No Iterations 24
piso step 1182.6 [ms]
 contErrors 
time step continuity errors : sum local = 5.14184e-09, global = -2.21038e-21, cumulative = -4.25637e-20
piso setup 69.754 [ms]
 correctNonOrthogonal 
 setRef 
 startSolve 
GAMG:  Solving for p, Initial residual = 0.372363, Final residual = 9.83246e-05, No Iterations 24
piso step 1185.96 [ms]
 contErrors 
time step continuity errors : sum local = 5.37251e-09, global = -4.37491e-21, cumulative = -4.69386e-20
ExecutionTime = 38.93 s  ClockTime = 39 s

Time = 0.00325

Courant Number mean: 0.0516508 max: 0.483615
momentum setup 60.93 [ms]
DILUPBiCGStab:  Solving for Ux, Initial residual = 0.0078082, Final residual = 0.000157009, No Iterations 5
DILUPBiCGStab:  Solving for Uy, Initial residual = 0.0195315, Final residual = 0.000373753, No Iterations 5
DILUPBiCGStab:  Solving for Uz, Initial residual = 0.1241, Final residual = 0.00681902, No Iterations 5
piso setup 71.902 [ms]
 correctNonOrthogonal 
 setRef 
 startSolve 
GAMG:  Solving for p, Initial residual = 0.388558, Final residual = 9.13424e-05, No Iterations 30
piso step 1468.78 [ms]
 contErrors 
time step continuity errors : sum local = 4.67913e-09, global = -5.40123e-21, cumulative = -5.23399e-20
piso setup 70.098 [ms]
 correctNonOrthogonal 
 setRef 
 startSolve 
GAMG:  Solving for p, Initial residual = 0.34267, Final residual = 9.31165e-05, No Iterations 24
piso step 1189.89 [ms]
 contErrors 
time step continuity errors : sum local = 4.7887e-09, global = -6.12098e-21, cumulative = -5.84608e-20
ExecutionTime = 42.33 s  ClockTime = 43 s

Time = 0.0035

Courant Number mean: 0.0531458 max: 0.484204
momentum setup 60.486 [ms]
DILUPBiCGStab:  Solving for Ux, Initial residual = 0.00707977, Final residual = 0.000134886, No Iterations 5
DILUPBiCGStab:  Solving for Uy, Initial residual = 0.0177121, Final residual = 0.000308546, No Iterations 5
DILUPBiCGStab:  Solving for Uz, Initial residual = 0.105285, Final residual = 0.00542959, No Iterations 5
piso setup 71.694 [ms]
 correctNonOrthogonal 
 setRef 
 startSolve 
GAMG:  Solving for p, Initial residual = 0.346595, Final residual = 9.81387e-05, No Iterations 35
piso step 1716.77 [ms]
 contErrors 
time step continuity errors : sum local = 4.88562e-09, global = 2.2109e-22, cumulative = -5.82397e-20
piso setup 70.943 [ms]
 correctNonOrthogonal 
 setRef 
 startSolve 
GAMG:  Solving for p, Initial residual = 0.30726, Final residual = 9.14115e-05, No Iterations 27
piso step 1331.47 [ms]
 contErrors 
time step continuity errors : sum local = 4.52682e-09, global = -7.02199e-22, cumulative = -5.89419e-20
ExecutionTime = 46.1 s  ClockTime = 47 s

Time = 0.00375

Courant Number mean: 0.0545475 max: 0.484647
momentum setup 60.63 [ms]
DILUPBiCGStab:  Solving for Ux, Initial residual = 0.00648818, Final residual = 0.000116821, No Iterations 5
DILUPBiCGStab:  Solving for Uy, Initial residual = 0.0158737, Final residual = 0.000257804, No Iterations 5
DILUPBiCGStab:  Solving for Uz, Initial residual = 0.0945876, Final residual = 0.00500148, No Iterations 5
piso setup 71.639 [ms]
 correctNonOrthogonal 
 setRef 
 startSolve 
GAMG:  Solving for p, Initial residual = 0.314634, Final residual = 7.45877e-05, No Iterations 22
piso step 1091.82 [ms]
 contErrors 
time step continuity errors : sum local = 3.54797e-09, global = -1.63164e-21, cumulative = -6.05736e-20
piso setup 70.245 [ms]
 correctNonOrthogonal 
 setRef 
 startSolve 
GAMG:  Solving for p, Initial residual = 0.276859, Final residual = 9.55116e-05, No Iterations 20
piso step 1001.52 [ms]
 contErrors 
time step continuity errors : sum local = 4.54838e-09, global = -1.01635e-21, cumulative = -6.15899e-20
ExecutionTime = 48.93 s  ClockTime = 50 s

Time = 0.004

Courant Number mean: 0.0558606 max: 0.485104
momentum setup 60.334 [ms]
DILUPBiCGStab:  Solving for Ux, Initial residual = 0.00596892, Final residual = 0.000102647, No Iterations 5
DILUPBiCGStab:  Solving for Uy, Initial residual = 0.0145688, Final residual = 0.000216554, No Iterations 5
DILUPBiCGStab:  Solving for Uz, Initial residual = 0.0798429, Final residual = 0.00397437, No Iterations 5
piso setup 71.451 [ms]
 correctNonOrthogonal 
 setRef 
 startSolve 
GAMG:  Solving for p, Initial residual = 0.28385, Final residual = 9.57696e-05, No Iterations 24
piso step 1182.05 [ms]
 contErrors 
time step continuity errors : sum local = 4.4043e-09, global = -2.65455e-21, cumulative = -6.42445e-20
piso setup 69.782 [ms]
 correctNonOrthogonal 
 setRef 
 startSolve 
GAMG:  Solving for p, Initial residual = 0.250916, Final residual = 9.22436e-05, No Iterations 18
piso step 902.623 [ms]
 contErrors 
time step continuity errors : sum local = 4.22608e-09, global = -4.22157e-21, cumulative = -6.8466e-20
ExecutionTime = 51.74 s  ClockTime = 52 s

Time = 0.00425

Courant Number mean: 0.0570987 max: 0.485463
momentum setup 60.644 [ms]
DILUPBiCGStab:  Solving for Ux, Initial residual = 0.0055168, Final residual = 8.99716e-05, No Iterations 5
DILUPBiCGStab:  Solving for Uy, Initial residual = 0.0132734, Final residual = 0.000193058, No Iterations 5
DILUPBiCGStab:  Solving for Uz, Initial residual = 0.0742436, Final residual = 0.00366538, No Iterations 5
piso setup 71.837 [ms]
 correctNonOrthogonal 
 setRef 
 startSolve 
GAMG:  Solving for p, Initial residual = 0.254303, Final residual = 8.73486e-05, No Iterations 22
piso step 1093.47 [ms]
 contErrors 
time step continuity errors : sum local = 3.91706e-09, global = -2.28129e-21, cumulative = -7.07473e-20
piso setup 69.99 [ms]
 correctNonOrthogonal 
 setRef 
 startSolve 
GAMG:  Solving for p, Initial residual = 0.22333, Final residual = 9.81554e-05, No Iterations 24
piso step 1184.53 [ms]
 contErrors 
time step continuity errors : sum local = 4.40989e-09, global = 5.77346e-22, cumulative = -7.017e-20
ExecutionTime = 54.75 s  ClockTime = 55 s

Time = 0.0045

Courant Number mean: 0.0582672 max: 0.48583
momentum setup 61.445 [ms]
DILUPBiCGStab:  Solving for Ux, Initial residual = 0.00512943, Final residual = 8.04258e-05, No Iterations 5
DILUPBiCGStab:  Solving for Uy, Initial residual = 0.0123027, Final residual = 0.000166834, No Iterations 5
DILUPBiCGStab:  Solving for Uz, Initial residual = 0.065887, Final residual = 0.00304961, No Iterations 5
piso setup 71.87 [ms]
 correctNonOrthogonal 
 setRef 
 startSolve 
GAMG:  Solving for p, Initial residual = 0.231107, Final residual = 8.97622e-05, No Iterations 24
piso step 1181.61 [ms]
 contErrors 
time step continuity errors : sum local = 3.90136e-09, global = -2.10285e-21, cumulative = -7.22728e-20
piso setup 70.149 [ms]
 correctNonOrthogonal 
 setRef 
 startSolve 
GAMG:  Solving for p, Initial residual = 0.203796, Final residual = 9.58694e-05, No Iterations 26
piso step 1299.16 [ms]
 contErrors 
time step continuity errors : sum local = 4.15207e-09, global = -3.18462e-21, cumulative = -7.54575e-20
ExecutionTime = 57.97 s  ClockTime = 59 s

Time = 0.00475

Courant Number mean: 0.0593741 max: 0.486132
momentum setup 60.975 [ms]
DILUPBiCGStab:  Solving for Ux, Initial residual = 0.00477496, Final residual = 7.12798e-05, No Iterations 5
DILUPBiCGStab:  Solving for Uy, Initial residual = 0.0113451, Final residual = 0.000154104, No Iterations 5
DILUPBiCGStab:  Solving for Uz, Initial residual = 0.0591615, Final residual = 0.0026023, No Iterations 5
piso setup 71.599 [ms]
 correctNonOrthogonal 
 setRef 
 startSolve 
GAMG:  Solving for p, Initial residual = 0.205044, Final residual = 8.96021e-05, No Iterations 22
piso step 1087.97 [ms]
 contErrors 
time step continuity errors : sum local = 3.83285e-09, global = -3.57337e-21, cumulative = -7.90308e-20
piso setup 69.876 [ms]
 correctNonOrthogonal 
 setRef 
 startSolve 
GAMG:  Solving for p, Initial residual = 0.179757, Final residual = 9.41983e-05, No Iterations 26
piso step 1282.06 [ms]
 contErrors 
time step continuity errors : sum local = 4.04377e-09, global = -4.93206e-21, cumulative = -8.39629e-20
ExecutionTime = 61.07 s  ClockTime = 62 s

Time = 0.005

Courant Number mean: 0.060424 max: 0.486429
momentum setup 60.502 [ms]
DILUPBiCGStab:  Solving for Ux, Initial residual = 0.00447493, Final residual = 6.45561e-05, No Iterations 5
DILUPBiCGStab:  Solving for Uy, Initial residual = 0.0106, Final residual = 0.000135969, No Iterations 5
DILUPBiCGStab:  Solving for Uz, Initial residual = 0.0546532, Final residual = 0.00224153, No Iterations 5
piso setup 71.834 [ms]
 correctNonOrthogonal 
 setRef 
 startSolve 
GAMG:  Solving for p, Initial residual = 0.18692, Final residual = 9.60217e-05, No Iterations 28
piso step 1376.69 [ms]
 contErrors 
time step continuity errors : sum local = 3.97002e-09, global = -1.52584e-21, cumulative = -8.54887e-20
piso setup 71.008 [ms]
 correctNonOrthogonal 
 setRef 
 startSolve 
GAMG:  Solving for p, Initial residual = 0.164508, Final residual = 9.5529e-05, No Iterations 23
piso step 1137.32 [ms]
 contErrors 
time step continuity errors : sum local = 3.95857e-09, global = -4.03695e-21, cumulative = -8.95257e-20
ExecutionTime = 64.31 s  ClockTime = 65 s

End

Finalising parallel run
