/*---------------------------------------------------------------------------*\
| =========                 |                                                 |
| \\      /  F ield         | OpenFOAM: The Open Source CFD Toolbox           |
|  \\    /   O peration     | Version:  2306                                  |
|   \\  /    A nd           | Website:  www.openfoam.com                      |
|    \\/     M anipulation  |                                                 |
\*---------------------------------------------------------------------------*/
Build  : c423ebec-20231012 OPENFOAM=2306 version=v2306
Arch   : "LSB;label=32;scalar=64"
Exec   : simpleFoam -parallel -case /hkfs/work/workspace/scratch/eq4036-windsorbody_setup/workspace/956501f6f808c6adcb2a4b2f38d5e13c/case
Date   : Feb 16 2024
Time   : 14:53:00
Host   : hkn0623.localdomain
PID    : 355709
I/O    : uncollated
Case   : /hkfs/work/workspace/scratch/eq4036-windsorbody_setup/workspace/956501f6f808c6adcb2a4b2f38d5e13c/case
nProcs : 12
Hosts  :
(
    (hkn0623.localdomain 6)
    (hkn0634.localdomain 6)
)
Pstream initialized with:
    floatTransfer      : false
    nProcsSimpleSum    : 0
    nonBlockingExchange: 0 (tuning: 0)
    exchange algorithm : -1
    commsType          : nonBlocking
    polling iterations : 0
trapFpe: Floating point exception trapping enabled (FOAM_SIGFPE).
fileModificationChecking : Monitoring run-time modified files using timeStampMaster (fileModificationSkew 5, maxFileModificationPolls 20)
allowSystemOperations : Allowing user-supplied system call operations

// * * * * * * * * * * * * * * * * * * * * * * * * * * * * * * * * * * * * * //
Create time

--> FOAM Warning : 
    From void* Foam::dlLibraryTable::openLibrary(const Foam::fileName&, bool)
    in file db/dynamicLibrary/dlLibraryTable/dlLibraryTable.C at line 188
    Could not load "libpetscFoam.so"
libpetscFoam.so: cannot open shared object file: No such file or directory
Create mesh for time = 0


SIMPLE: convergence criteria
    field p	 tolerance 1e-08
    field U	 tolerance 1e-08
    field k	 tolerance 1e-08
    field omega	 tolerance 1e-08
    field nuTilda	 tolerance 1e-08

Reading field p

Reading field U

Reading/calculating face flux field phi

Selecting incompressible transport model Newtonian
Selecting turbulence model type RAS
Selecting RAS turbulence model SpalartAllmaras
Selecting patchDistMethod meshWave
ft2 term: inactive
RAS
{
    RASModel        SpalartAllmaras;
    turbulence      on;
    printCoeffs     on;
    sigmaNut        0.66666;
    kappa           0.41;
    Cb1             0.1355;
    Cb2             0.622;
    Cw2             0.3;
    Cw3             2;
    Cv1             7.1;
    Cs              0.3;
    ck              0.07000000000000001;
    ft2             false;
    Ct3             1.2;
    Ct4             0.5;
}

No MRF models present

Creating finite volume options from "system/fvOptions"

Selecting finite volume options type velocityDampingConstraint
    Source: velocityDamping
    - selecting all cells
    - selected 50457088 cell(s) with volume 222.6066441270595

Starting time loop

--> FOAM Warning : 
    From bool Foam::functionObjectList::read()
    in file db/functionObjects/functionObjectList/functionObjectList.C at line 1035
    Reading "system/controlDict" at line 2 to 41
    Entry 'lref' is not a dictionary
--> FOAM Warning : 
    From bool Foam::functionObjectList::read()
    in file db/functionObjects/functionObjectList/functionObjectList.C at line 1035
    Reading "system/controlDict" at line 2 to 41
    Entry 'Aref' is not a dictionary
--> FOAM Warning : 
    From bool Foam::functionObjectList::read()
    in file db/functionObjects/functionObjectList/functionObjectList.C at line 1035
    Reading "system/controlDict" at line 2 to 41
    Entry 'yawAngle' is not a dictionary
--> FOAM Warning : 
    From bool Foam::functionObjectList::read()
    in file db/functionObjects/functionObjectList/functionObjectList.C at line 1035
    Reading "system/controlDict" at line 2 to 41
    Entry 'lDomain' is not a dictionary
--> FOAM Warning : 
    From bool Foam::functionObjectList::read()
    in file db/functionObjects/functionObjectList/functionObjectList.C at line 1035
    Reading "system/controlDict" at line 2 to 41
    Entry 'bDomain' is not a dictionary
--> FOAM Warning : 
    From bool Foam::functionObjectList::read()
    in file db/functionObjects/functionObjectList/functionObjectList.C at line 1035
    Reading "system/controlDict" at line 2 to 41
    Entry 'hDomain' is not a dictionary
--> FOAM Warning : 
    From bool Foam::functionObjectList::read()
    in file db/functionObjects/functionObjectList/functionObjectList.C at line 1035
    Reading "system/controlDict" at line 2 to 41
    Entry 'xCenter' is not a dictionary
--> FOAM Warning : 
    From bool Foam::functionObjectList::read()
    in file db/functionObjects/functionObjectList/functionObjectList.C at line 1035
    Reading "system/controlDict" at line 2 to 41
    Entry 'yCenter' is not a dictionary
--> FOAM Warning : 
    From bool Foam::functionObjectList::read()
    in file db/functionObjects/functionObjectList/functionObjectList.C at line 1035
    Reading "system/controlDict" at line 2 to 41
    Entry 'zCenter' is not a dictionary
--> FOAM Warning : 
    From bool Foam::functionObjectList::read()
    in file db/functionObjects/functionObjectList/functionObjectList.C at line 1035
    Reading "system/controlDict" at line 2 to 41
    Entry 'inletPatch' is not a dictionary
--> FOAM Warning : 
    From bool Foam::functionObjectList::read()
    in file db/functionObjects/functionObjectList/functionObjectList.C at line 1035
    Reading "system/controlDict" at line 2 to 41
    Entry 'outletPatch' is not a dictionary
--> FOAM Warning : 
    From bool Foam::functionObjectList::read()
    in file db/functionObjects/functionObjectList/functionObjectList.C at line 1035
    Reading "system/controlDict" at line 2 to 41
    Entry 'wallPatches' is not a dictionary
--> FOAM Warning : 
    From bool Foam::functionObjectList::read()
    in file db/functionObjects/functionObjectList/functionObjectList.C at line 1035
    Reading "system/controlDict" at line 2 to 41
    Entry 'forcesWallPatches' is not a dictionary
--> FOAM Warning : 
    From bool Foam::functionObjectList::read()
    in file db/functionObjects/functionObjectList/functionObjectList.C at line 1035
    Reading "system/controlDict" at line 2 to 41
    Entry 'symmPatches' is not a dictionary
--> FOAM Warning : 
    From bool Foam::functionObjectList::read()
    in file db/functionObjects/functionObjectList/functionObjectList.C at line 1035
    Reading "system/controlDict" at line 2 to 41
    Entry 'Uinf' is not a dictionary
--> FOAM Warning : 
    From bool Foam::functionObjectList::read()
    in file db/functionObjects/functionObjectList/functionObjectList.C at line 1035
    Reading "system/controlDict" at line 2 to 41
    Entry 'UinfMag' is not a dictionary
--> FOAM Warning : 
    From bool Foam::functionObjectList::read()
    in file db/functionObjects/functionObjectList/functionObjectList.C at line 1035
    Reading "system/controlDict" at line 2 to 41
    Entry 'nu' is not a dictionary
--> FOAM Warning : 
    From bool Foam::functionObjectList::read()
    in file db/functionObjects/functionObjectList/functionObjectList.C at line 1035
    Reading "system/controlDict" at line 2 to 41
    Entry 'pref' is not a dictionary
--> FOAM Warning : 
    From bool Foam::functionObjectList::read()
    in file db/functionObjects/functionObjectList/functionObjectList.C at line 1035
    Reading "system/controlDict" at line 2 to 41
    Entry 'viscRatio' is not a dictionary
--> FOAM Warning : 
    From bool Foam::functionObjectList::read()
    in file db/functionObjects/functionObjectList/functionObjectList.C at line 1035
    Reading "system/controlDict" at line 2 to 41
    Entry 'Tu' is not a dictionary
--> FOAM Warning : 
    From bool Foam::functionObjectList::read()
    in file db/functionObjects/functionObjectList/functionObjectList.C at line 1035
    Reading "system/controlDict" at line 2 to 41
    Entry 'LESturbModel' is not a dictionary
--> FOAM Warning : 
    From bool Foam::functionObjectList::read()
    in file db/functionObjects/functionObjectList/functionObjectList.C at line 1035
    Reading "system/controlDict" at line 2 to 41
    Entry 'RASturbModel' is not a dictionary
--> FOAM Warning : 
    From bool Foam::functionObjectList::read()
    in file db/functionObjects/functionObjectList/functionObjectList.C at line 1035
    Reading "system/controlDict" at line 2 to 41
    Entry 'deltaTurb' is not a dictionary
--> FOAM Warning : 
    From bool Foam::functionObjectList::read()
    in file db/functionObjects/functionObjectList/functionObjectList.C at line 1035
    Reading "system/controlDict" at line 2 to 41
    Entry 'dt' is not a dictionary
--> FOAM Warning : 
    From bool Foam::functionObjectList::read()
    in file db/functionObjects/functionObjectList/functionObjectList.C at line 1035
    Reading "system/controlDict" at line 2 to 41
    Entry 'tAvg' is not a dictionary
--> FOAM Warning : 
    From bool Foam::functionObjectList::read()
    in file db/functionObjects/functionObjectList/functionObjectList.C at line 1035
    Reading "system/controlDict" at line 2 to 41
    Entry 'tEnd' is not a dictionary
--> FOAM Warning : 
    From bool Foam::functionObjectList::read()
    in file db/functionObjects/functionObjectList/functionObjectList.C at line 1035
    Reading "system/controlDict" at line 2 to 41
    Entry 'writeInterval_' is not a dictionary
--> FOAM Warning : 
    From bool Foam::functionObjectList::read()
    in file db/functionObjects/functionObjectList/functionObjectList.C at line 1035
    Reading "system/controlDict" at line 2 to 41
    Entry 'nCores' is not a dictionary
--> FOAM Warning : 
    From bool Foam::functionObjectList::read()
    in file db/functionObjects/functionObjectList/functionObjectList.C at line 1035
    Reading "system/controlDict" at line 2 to 41
    Entry 'interpScheme' is not a dictionary
--> FOAM Warning : 
    From bool Foam::functionObjectList::read()
    in file db/functionObjects/functionObjectList/functionObjectList.C at line 1035
    Reading "system/controlDict" at line 2 to 41
    Entry 'probeField' is not a dictionary
wallShearStress wallShearStress:
    processing wall patches: 
        Windsor_Body
        CFDWT_Floor
        Windsor_Pins
        Windsor_Base
        Windsor_Body_2
        CFDWT_Floor_2
        Windsor_Pins_2
        Windsor_Base_2
        Windsor_Body_3
        CFDWT_Floor_3
        Windsor_Pins_3
        Windsor_Base_3
        Windsor_Body_4
        CFDWT_Floor_4
        Windsor_Pins_4
        Windsor_Base_4
        Windsor_Body_5
        CFDWT_Floor_5
        Windsor_Pins_5
        Windsor_Base_5
        Windsor_Body_6
        CFDWT_Floor_6
        Windsor_Pins_6
        Windsor_Base_6
        Windsor_Body_7
        CFDWT_Floor_7
        Windsor_Pins_7
        Windsor_Base_7
        Windsor_Body_8
        CFDWT_Floor_8
        Windsor_Pins_8
        Windsor_Base_8

pressure calc_cp:
    Operating mode: staticCoeff
    Not including hydrostatic effects

forceCoeffs forceCoeffsAll:
    rho: rhoInf
    Freestream density (rhoInf) set to 1
    Not including porosity effects
    magUInf: 40
    lRef   : 0.6375
    Aref   : 0.1124
    rhoInf : 1
    Selecting all coefficients
    - Drag force: Cd
    - Drag force front: Cd(f)
    - Drag force rear: Cd(r)
    - Lift force: Cl
    - Lift force front: Cl(f)
    - Lift force rear: Cl(r)
    - Pitch moment: CmPitch
    - Roll moment: CmRoll
    - Yaw moment: CmYaw
    - Side force: Cs
    - Side force front: Cs(f)
    - Side force rear: Cs(r)


forceCoeffs dragCoeffBase:
    rho: rhoInf
    Freestream density (rhoInf) set to 1
    Not including porosity effects
    magUInf: 40
    lRef   : 0.6375
    Aref   : 0.1124
    rhoInf : 1
    Selecting coefficients:
    - Drag force: Cd


Time = 1

velocityDampingConstraint velocityDamping damped 0 (0%) of cells, with max limit 300
smoothSolver:  Solving for Ux, Initial residual = 0.9999999999996524, Final residual = 0.08583851312920183, No Iterations 3
smoothSolver:  Solving for Uy, Initial residual = 1, Final residual = 0.06568043033678546, No Iterations 6
smoothSolver:  Solving for Uz, Initial residual = 1, Final residual = 0.01751034402010878, No Iterations 2
[OGL LOG][lduLduBase.H:119] Initialising OGL
	OGL commit:  e75313f+
	Branch: dev 
	Build type: Debug
	Ginkgo version: 1.8.0 ( develop)
	Ginkgo commit: sparse-communicator
	MPI is GPU aware: 1
	Forces host buffer based communication: 0
	CPU ranks per GPU: 1
	Matrix format: Coo
	End OGL_INFO
[OGL LOG][Proc: 0]: global_index_init: 2.605 [ms]
[OGL LOG][Proc: 0]p_local_cols: call_init: 0.8179999999999999 [ms]
[OGL LOG][Proc: 0]p_local_rows: call_init: 0.458 [ms]
[OGL LOG][Proc: 0]p_local_ldu_map: call_init: 0.276 [ms]
[OGL LOG][Proc: 0]p_local_coeffs: call_init: 3.961 [ms]
[OGL LOG][Proc: 0]p_non_local_cols: call_init: 0.164 [ms]
[OGL LOG][Proc: 0]p_non_local_rows: call_init: 0.082 [ms]
[OGL LOG][Proc: 0]p_non_local_ldu_map: call_init: 0.08599999999999999 [ms]
[OGL LOG][Proc: 0]p_non_local_coeffs: call_init: 0.089 [ms]
[OGL LOG][Proc: 0]p: init_local_sparsity_pattern: 194294.055 [ms]
[OGL LOG][Proc: 0]p: init_non_local_sparsity_pattern: 129.013 [ms]
[OGL LOG][Proc: 0]p: update_local_matrix_data: 170.633 [ms]
[OGL LOG][Proc: 0]p: update_non_local_matrix_data: 1.178 [ms]
[OGL LOG][Proc: 0]device_partition: call_init: 0.285 [ms]
[OGL LOG][Proc: 0]p_matrix: call_init: 380.883 [ms]
[OGL LOG][Proc: 0]p_rhs: call_init: 11.46 [ms]
[OGL LOG][Proc: 0]p_solution: call_init: 11.228 [ms]
[OGL LOG][Preconditioner.H:271] Generate preconditioner GISAI SparsityPower 1
[OGL LOG][Proc: 0]p: init_precond: 552.188 [ms]
[OGL LOG][StoppingCriterion.H:239] Creating stopping criterion with minIter 0 frequency 1
[OGL LOG][Proc: 0]p: generate_solver: 0.141 [ms]
[OGL LOG][Proc: 0]p: solve: 6991.05 [ms]
[OGL LOG][Proc: 0]p: copy_x_back: 18.081 [ms]
[OGL LOG][lduLduBase.H:330] 
Statistics:
	Time per iteration: 6984 [mu s]
	Time per residual norm calculation: 3879.000000 [mu s]
	Time per iteration and DOF: 0.138415 [ns]
	Retrieve results bandwidth 1.870000 [GByte/s]
[OGL LOG][Proc: 0]p: solve_multi_gpu: 8215.290000000001 [ms]
GISAIcudaGKOCG:  Solving for p, Initial residual = 1.00000000000145, Final residual = 1.000000000311872, No Iterations 1001
time step continuity errors : sum local = 0.3634109421694384, global = -0.0009481884392912363, cumulative = -0.0009481884392912363
smoothSolver:  Solving for nuTilda, Initial residual = 0.9999999999098805, Final residual = 0.05122087683008752, No Iterations 3
ExecutionTime = 262.9 s  ClockTime = 263 s

--> FOAM Warning : 
    From virtual bool Foam::functionObjects::fieldSelection::checkSelection()
    in file functionObjects/fieldSelections/fieldSelection/fieldSelection.C at line 166
    Field k not found
--> FOAM Warning : 
    From virtual bool Foam::functionObjects::fieldSelection::checkSelection()
    in file functionObjects/fieldSelections/fieldSelection/fieldSelection.C at line 166
    Field gammaInt not found
--> FOAM Warning : 
    From virtual bool Foam::functionObjects::fieldSelection::checkSelection()
    in file functionObjects/fieldSelections/fieldSelection/fieldSelection.C at line 166
    Field omega not found
--> FOAM Warning : 
    From virtual bool Foam::functionObjects::fieldSelection::checkSelection()
    in file functionObjects/fieldSelections/fieldSelection/fieldSelection.C at line 166
    Field ReThetat not found
--> FOAM Warning : 
    From virtual bool Foam::functionObjects::fieldSelection::checkSelection()
    in file functionObjects/fieldSelections/fieldSelection/fieldSelection.C at line 166
    Field epsilon not found
--> FOAM Warning : 
    From virtual bool Foam::functionObjects::solverFieldSelection::updateSelection()
    in file functionObjects/fieldSelections/solverFieldSelection/solverFieldSelection.C at line 85
    Valid solver fields are: 3(U nuTilda p)Time = 2

velocityDampingConstraint velocityDamping damped 0 (0%) of cells, with max limit 300
smoothSolver:  Solving for Ux, Initial residual = 0.06062487017164435, Final residual = 0.0049737650459502, No Iterations 5
smoothSolver:  Solving for Uy, Initial residual = 0.08038781361857791, Final residual = 0.007799427664297177, No Iterations 2
smoothSolver:  Solving for Uz, Initial residual = 0.1042527054196363, Final residual = 0.007934478286631417, No Iterations 2
[OGL LOG][Proc: 0]: global_index_init: 0.129 [ms]
[OGL LOG][Proc: 0]p_local_coeffs: call_update: 0.001 [ms]
[OGL LOG][Proc: 0]p_non_local_coeffs: call_update: 0 [ms]
[OGL LOG][Proc: 0]p: update_local_matrix_data: 177.955 [ms]
[OGL LOG][Proc: 0]p: update_non_local_matrix_data: 1.144 [ms]
[OGL LOG][Proc: 0]p_matrix: call_update: 5.149 [ms]
[OGL LOG][Proc: 0]p_rhs: call_update: 11.438 [ms]
[OGL LOG][Preconditioner.H:271] Generate preconditioner GISAI SparsityPower 1
[OGL LOG][Proc: 0]p: init_precond: 535.723 [ms]
[OGL LOG][StoppingCriterion.H:239] Creating stopping criterion with minIter 600 frequency 20
[OGL LOG][Proc: 0]p: generate_solver: 0.016 [ms]
[OGL LOG][Proc: 0]p: solve: 5547.855 [ms]
[OGL LOG][Proc: 0]p: copy_x_back: 12.635 [ms]
[OGL LOG][lduLduBase.H:330] 
Statistics:
	Time per iteration: 5542 [mu s]
	Time per residual norm calculation: 1319.000000 [mu s]
	Time per iteration and DOF: 0.109836 [ns]
	Retrieve results bandwidth 2.676000 [GByte/s]
[OGL LOG][Proc: 0]p: solve_multi_gpu: 6117.693 [ms]
GISAIcudaGKOCG:  Solving for p, Initial residual = 0.9999999997723737, Final residual = 0.9999999999628931, No Iterations 1001
time step continuity errors : sum local = 2.038930150121346, global = -0.001756540970254245, cumulative = -0.002704729409545481
smoothSolver:  Solving for nuTilda, Initial residual = 0.2808777869911636, Final residual = 0.02222522151264833, No Iterations 2
ExecutionTime = 287.87 s  ClockTime = 288 s

Time = 3

velocityDampingConstraint velocityDamping damped 16760 (0.03%) of cells, with max limit 300
smoothSolver:  Solving for Ux, Initial residual = 0.1273464863356261, Final residual = 0.007157842555896825, No Iterations 10
smoothSolver:  Solving for Uy, Initial residual = 0.1071743204963151, Final residual = 0.008180312015879243, No Iterations 11
smoothSolver:  Solving for Uz, Initial residual = 0.1279366310160603, Final residual = 0.01177984840488801, No Iterations 10
[OGL LOG][Proc: 0]: global_index_init: 0.021 [ms]
[OGL LOG][Proc: 0]p_local_coeffs: call_update: 0 [ms]
[OGL LOG][Proc: 0]p_non_local_coeffs: call_update: 0 [ms]
[OGL LOG][Proc: 0]p: update_local_matrix_data: 176.477 [ms]
[OGL LOG][Proc: 0]p: update_non_local_matrix_data: 1.048 [ms]
[OGL LOG][Proc: 0]p_matrix: call_update: 4.842 [ms]
[OGL LOG][Proc: 0]p_rhs: call_update: 11.524 [ms]
[OGL LOG][Preconditioner.H:271] Generate preconditioner GISAI SparsityPower 1
[OGL LOG][Proc: 0]p: init_precond: 524.843 [ms]
[OGL LOG][StoppingCriterion.H:239] Creating stopping criterion with minIter 600 frequency 10
[OGL LOG][Proc: 0]p: generate_solver: 0.016 [ms]
[OGL LOG][Proc: 0]p: solve: 5594.295 [ms]
[OGL LOG][Proc: 0]p: copy_x_back: 12.9 [ms]
[OGL LOG][lduLduBase.H:330] 
Statistics:
	Time per iteration: 5588 [mu s]
	Time per residual norm calculation: 1323.000000 [mu s]
	Time per iteration and DOF: 0.110748 [ns]
	Retrieve results bandwidth 2.621000 [GByte/s]
[OGL LOG][Proc: 0]p: solve_multi_gpu: 6154.654 [ms]
GISAIcudaGKOCG:  Solving for p, Initial residual = 0.9999999997039268, Final residual = 0.9999999998875341, No Iterations 1001
time step continuity errors : sum local = 6.877971907067283, global = -0.002395421461231255, cumulative = -0.005100150870776736
smoothSolver:  Solving for nuTilda, Initial residual = 0.349234285903103, Final residual = 0.0269526185353071, No Iterations 1
ExecutionTime = 315.53 s  ClockTime = 316 s

Time = 4

velocityDampingConstraint velocityDamping damped 229592 (0.46%) of cells, with max limit 300
smoothSolver:  Solving for Ux, Initial residual = 0.3941281634971617, Final residual = 0.01855110271681111, No Iterations 1
smoothSolver:  Solving for Uy, Initial residual = 0.3869301492512621, Final residual = 0.0280316614653293, No Iterations 1
smoothSolver:  Solving for Uz, Initial residual = 0.4070741036332081, Final residual = 0.02044292871704305, No Iterations 2
[OGL LOG][Proc: 0]: global_index_init: 0.446 [ms]
[OGL LOG][Proc: 0]p_local_coeffs: call_update: 0 [ms]
[OGL LOG][Proc: 0]p_non_local_coeffs: call_update: 0 [ms]
[OGL LOG][Proc: 0]p: update_local_matrix_data: 176.841 [ms]
[OGL LOG][Proc: 0]p: update_non_local_matrix_data: 1.129 [ms]
[OGL LOG][Proc: 0]p_matrix: call_update: 4.458 [ms]
[OGL LOG][Proc: 0]p_rhs: call_update: 11.581 [ms]
[OGL LOG][Preconditioner.H:271] Generate preconditioner GISAI SparsityPower 1
[OGL LOG][Proc: 0]p: init_precond: 552.543 [ms]
[OGL LOG][StoppingCriterion.H:239] Creating stopping criterion with minIter 600 frequency 10
[OGL LOG][Proc: 0]p: generate_solver: 0.016 [ms]
[OGL LOG][Proc: 0]p: solve: 5596.477 [ms]
[OGL LOG][Proc: 0]p: copy_x_back: 12.858 [ms]
[OGL LOG][lduLduBase.H:330] 
Statistics:
	Time per iteration: 5590 [mu s]
	Time per residual norm calculation: 1320.000000 [mu s]
	Time per iteration and DOF: 0.110787 [ns]
	Retrieve results bandwidth 2.630000 [GByte/s]
[OGL LOG][Proc: 0]p: solve_multi_gpu: 6182.142 [ms]
GISAIcudaGKOCG:  Solving for p, Initial residual = 0.9999999997132313, Final residual = 0.9999999998605879, No Iterations 1001
time step continuity errors : sum local = 19.66024353966218, global = -0.002749574937146515, cumulative = -0.007849725807923251
smoothSolver:  Solving for nuTilda, Initial residual = 0.1916001804182248, Final residual = 0.01335893527334942, No Iterations 11
ExecutionTime = 340.99 s  ClockTime = 342 s

Time = 5

velocityDampingConstraint velocityDamping damped 250640 (0.5%) of cells, with max limit 300
smoothSolver:  Solving for Ux, Initial residual = 0.4495031271515974, Final residual = 0.03117707487937612, No Iterations 6
smoothSolver:  Solving for Uy, Initial residual = 0.4334285266877169, Final residual = 0.02390320716534241, No Iterations 8
smoothSolver:  Solving for Uz, Initial residual = 0.4402216190425081, Final residual = 0.02112061724938299, No Iterations 7
[OGL LOG][Proc: 0]: global_index_init: 0.019 [ms]
[OGL LOG][Proc: 0]p_local_coeffs: call_update: 0 [ms]
[OGL LOG][Proc: 0]p_non_local_coeffs: call_update: 0 [ms]
[OGL LOG][Proc: 0]p: update_local_matrix_data: 176.298 [ms]
[OGL LOG][Proc: 0]p: update_non_local_matrix_data: 1.095 [ms]
[OGL LOG][Proc: 0]p_matrix: call_update: 3.49 [ms]
[OGL LOG][Proc: 0]p_rhs: call_update: 12.592 [ms]
[OGL LOG][Preconditioner.H:271] Generate preconditioner GISAI SparsityPower 1
[OGL LOG][Proc: 0]p: init_precond: 532.609 [ms]
[OGL LOG][StoppingCriterion.H:239] Creating stopping criterion with minIter 600 frequency 10
[OGL LOG][Proc: 0]p: generate_solver: 0.016 [ms]
[OGL LOG][Proc: 0]p: solve: 5584.454 [ms]
[OGL LOG][Proc: 0]p: copy_x_back: 12.596 [ms]
[OGL LOG][lduLduBase.H:330] 
Statistics:
	Time per iteration: 5578 [mu s]
	Time per residual norm calculation: 1322.000000 [mu s]
	Time per iteration and DOF: 0.110549 [ns]
	Retrieve results bandwidth 2.685000 [GByte/s]
[OGL LOG][Proc: 0]p: solve_multi_gpu: 6149.895 [ms]
GISAIcudaGKOCG:  Solving for p, Initial residual = 0.9999999997818269, Final residual = 0.9999999998129393, No Iterations 1001
time step continuity errors : sum local = 79.17173458821399, global = -0.003371324804353133, cumulative = -0.01122105061227638
smoothSolver:  Solving for nuTilda, Initial residual = 0.3817552632936128, Final residual = 0.02936334674749434, No Iterations 5
ExecutionTime = 371.31 s  ClockTime = 372 s

Time = 6

velocityDampingConstraint velocityDamping damped 347624 (0.6900000000000001%) of cells, with max limit 300
smoothSolver:  Solving for Ux, Initial residual = 0.4723047525545, Final residual = 0.01722212425527707, No Iterations 1
smoothSolver:  Solving for Uy, Initial residual = 0.4660436368249605, Final residual = 0.01149573952900385, No Iterations 1
smoothSolver:  Solving for Uz, Initial residual = 0.4756786062139667, Final residual = 0.02911067787868161, No Iterations 2
[OGL LOG][Proc: 0]: global_index_init: 2.878 [ms]
[OGL LOG][Proc: 0]p_local_coeffs: call_update: 0 [ms]
[OGL LOG][Proc: 0]p_non_local_coeffs: call_update: 0 [ms]
[OGL LOG][Proc: 0]p: update_local_matrix_data: 176.331 [ms]
[OGL LOG][Proc: 0]p: update_non_local_matrix_data: 1.166 [ms]
[OGL LOG][Proc: 0]p_matrix: call_update: 5.127 [ms]
[OGL LOG][Proc: 0]p_rhs: call_update: 11.061 [ms]
[OGL LOG][Preconditioner.H:271] Generate preconditioner GISAI SparsityPower 1
[OGL LOG][Proc: 0]p: init_precond: 534.803 [ms]
[OGL LOG][StoppingCriterion.H:239] Creating stopping criterion with minIter 600 frequency 10
[OGL LOG][Proc: 0]p: generate_solver: 0.016 [ms]
[OGL LOG][Proc: 0]p: solve: 5565.849 [ms]
[OGL LOG][Proc: 0]p: copy_x_back: 12.651 [ms]
[OGL LOG][lduLduBase.H:330] 
Statistics:
	Time per iteration: 5560 [mu s]
	Time per residual norm calculation: 1323.000000 [mu s]
	Time per iteration and DOF: 0.110193 [ns]
	Retrieve results bandwidth 2.673000 [GByte/s]
[OGL LOG][Proc: 0]p: solve_multi_gpu: 6134.953 [ms]
GISAIcudaGKOCG:  Solving for p, Initial residual = 0.9999999996975111, Final residual = 0.9999999996974414, No Iterations 1001
time step continuity errors : sum local = 93.65412919661573, global = -0.003700697749208344, cumulative = -0.01492174836148473
smoothSolver:  Solving for nuTilda, Initial residual = 0.2953661951899333, Final residual = 0.02067030936098006, No Iterations 8
ExecutionTime = 396.59 s  ClockTime = 397 s

Time = 7

velocityDampingConstraint velocityDamping damped 373240 (0.74%) of cells, with max limit 300
smoothSolver:  Solving for Ux, Initial residual = 0.5108277323131645, Final residual = 0.02836279617270856, No Iterations 2
smoothSolver:  Solving for Uy, Initial residual = 0.4930733159960849, Final residual = 0.04710600723087703, No Iterations 2
smoothSolver:  Solving for Uz, Initial residual = 0.5135714357077199, Final residual = 0.03445125096465385, No Iterations 2
[OGL LOG][Proc: 0]: global_index_init: 2.519 [ms]
[OGL LOG][Proc: 0]p_local_coeffs: call_update: 0 [ms]
[OGL LOG][Proc: 0]p_non_local_coeffs: call_update: 0 [ms]
[OGL LOG][Proc: 0]p: update_local_matrix_data: 178.577 [ms]
[OGL LOG][Proc: 0]p: update_non_local_matrix_data: 1.065 [ms]
[OGL LOG][Proc: 0]p_matrix: call_update: 4.686 [ms]
[OGL LOG][Proc: 0]p_rhs: call_update: 10.548 [ms]
[OGL LOG][Preconditioner.H:271] Generate preconditioner GISAI SparsityPower 1
[OGL LOG][Proc: 0]p: init_precond: 543.697 [ms]
[OGL LOG][StoppingCriterion.H:239] Creating stopping criterion with minIter 600 frequency 10
[OGL LOG][Proc: 0]p: generate_solver: 0.014 [ms]
[OGL LOG][Proc: 0]p: solve: 5568.05 [ms]
[OGL LOG][Proc: 0]p: copy_x_back: 12.675 [ms]
[OGL LOG][lduLduBase.H:330] 
Statistics:
	Time per iteration: 5562 [mu s]
	Time per residual norm calculation: 1316.000000 [mu s]
	Time per iteration and DOF: 0.110232 [ns]
	Retrieve results bandwidth 2.668000 [GByte/s]
[OGL LOG][Proc: 0]p: solve_multi_gpu: 6147.677 [ms]
GISAIcudaGKOCG:  Solving for p, Initial residual = 0.999999999791176, Final residual = 0.9999999997914261, No Iterations 1001
time step continuity errors : sum local = 191.3281692449096, global = -0.004147671132380875, cumulative = -0.0190694194938656
smoothSolver:  Solving for nuTilda, Initial residual = 0.2731599226290563, Final residual = 0.01537986887608426, No Iterations 10
ExecutionTime = 422.25 s  ClockTime = 423 s

Time = 8

velocityDampingConstraint velocityDamping damped 377392 (0.75%) of cells, with max limit 300
smoothSolver:  Solving for Ux, Initial residual = 0.4970659623762158, Final residual = 0.01748877085668296, No Iterations 3
smoothSolver:  Solving for Uy, Initial residual = 0.5256673725124457, Final residual = 0.02781370228546898, No Iterations 3
smoothSolver:  Solving for Uz, Initial residual = 0.4933673988937375, Final residual = 0.01883490811076813, No Iterations 3
[OGL LOG][Proc: 0]: global_index_init: 3.084 [ms]
[OGL LOG][Proc: 0]p_local_coeffs: call_update: 0 [ms]
[OGL LOG][Proc: 0]p_non_local_coeffs: call_update: 0 [ms]
[OGL LOG][Proc: 0]p: update_local_matrix_data: 174.499 [ms]
[OGL LOG][Proc: 0]p: update_non_local_matrix_data: 1.17 [ms]
[OGL LOG][Proc: 0]p_matrix: call_update: 5.172 [ms]
[OGL LOG][Proc: 0]p_rhs: call_update: 11.134 [ms]
[OGL LOG][Preconditioner.H:271] Generate preconditioner GISAI SparsityPower 1
[OGL LOG][Proc: 0]p: init_precond: 529.814 [ms]
[OGL LOG][StoppingCriterion.H:239] Creating stopping criterion with minIter 600 frequency 10
[OGL LOG][Proc: 0]p: generate_solver: 0.017 [ms]
[OGL LOG][Proc: 0]p: solve: 5564.482 [ms]
[OGL LOG][Proc: 0]p: copy_x_back: 12.712 [ms]
[OGL LOG][lduLduBase.H:330] 
Statistics:
	Time per iteration: 5558 [mu s]
	Time per residual norm calculation: 1323.000000 [mu s]
	Time per iteration and DOF: 0.110153 [ns]
	Retrieve results bandwidth 2.660000 [GByte/s]
[OGL LOG][Proc: 0]p: solve_multi_gpu: 6136.75 [ms]
GISAIcudaGKOCG:  Solving for p, Initial residual = 0.9999999998941715, Final residual = 0.9999999998943826, No Iterations 1001
time step continuity errors : sum local = 366.5628962855833, global = -0.00465480389899492, cumulative = -0.02372422339286052
smoothSolver:  Solving for nuTilda, Initial residual = 0.4949169256387231, Final residual = 0.03197599705413812, No Iterations 8
ExecutionTime = 448.19 s  ClockTime = 449 s

Time = 9

velocityDampingConstraint velocityDamping damped 408640 (0.8100000000000001%) of cells, with max limit 300
smoothSolver:  Solving for Ux, Initial residual = 0.4999200771215858, Final residual = 0.03105726242305301, No Iterations 3
smoothSolver:  Solving for Uy, Initial residual = 0.4952872286297996, Final residual = 0.03173472946044487, No Iterations 3
smoothSolver:  Solving for Uz, Initial residual = 0.5950470342010672, Final residual = 0.04583150686206256, No Iterations 1
[OGL LOG][Proc: 0]: global_index_init: 2.44 [ms]
[OGL LOG][Proc: 0]p_local_coeffs: call_update: 0 [ms]
[OGL LOG][Proc: 0]p_non_local_coeffs: call_update: 0 [ms]
[OGL LOG][Proc: 0]p: update_local_matrix_data: 176.574 [ms]
[OGL LOG][Proc: 0]p: update_non_local_matrix_data: 1.099 [ms]
[OGL LOG][Proc: 0]p_matrix: call_update: 3.595 [ms]
[OGL LOG][Proc: 0]p_rhs: call_update: 12.641 [ms]
[OGL LOG][Preconditioner.H:271] Generate preconditioner GISAI SparsityPower 1
[OGL LOG][Proc: 0]p: init_precond: 542.033 [ms]
[OGL LOG][StoppingCriterion.H:239] Creating stopping criterion with minIter 600 frequency 10
[OGL LOG][Proc: 0]p: generate_solver: 0.016 [ms]
[OGL LOG][Proc: 0]p: solve: 5567.394 [ms]
[OGL LOG][Proc: 0]p: copy_x_back: 12.83 [ms]
[OGL LOG][lduLduBase.H:330] 
Statistics:
	Time per iteration: 5561 [mu s]
	Time per residual norm calculation: 1321.000000 [mu s]
	Time per iteration and DOF: 0.110212 [ns]
	Retrieve results bandwidth 2.636000 [GByte/s]
[OGL LOG][Proc: 0]p: solve_multi_gpu: 6148.845 [ms]
GISAIcudaGKOCG:  Solving for p, Initial residual = 0.999999999896713, Final residual = 0.9999999998962423, No Iterations 1001
time step continuity errors : sum local = 368.3643742460982, global = -0.005144536011433476, cumulative = -0.02886875940429399
smoothSolver:  Solving for nuTilda, Initial residual = 0.301136578753767, Final residual = 0.02185501806300827, No Iterations 4
ExecutionTime = 473.38 s  ClockTime = 474 s

Time = 10

velocityDampingConstraint velocityDamping damped 417504 (0.8300000000000001%) of cells, with max limit 300
smoothSolver:  Solving for Ux, Initial residual = 0.5103801659868087, Final residual = 0.04717035997420323, No Iterations 2
smoothSolver:  Solving for Uy, Initial residual = 0.508353331505469, Final residual = 0.04960116989615535, No Iterations 2
smoothSolver:  Solving for Uz, Initial residual = 0.5029875623751192, Final residual = 0.0479435985075535, No Iterations 2
[OGL LOG][Proc: 0]: global_index_init: 3.056 [ms]
[OGL LOG][Proc: 0]p_local_coeffs: call_update: 0 [ms]
[OGL LOG][Proc: 0]p_non_local_coeffs: call_update: 0 [ms]
[OGL LOG][Proc: 0]p: update_local_matrix_data: 175.555 [ms]
[OGL LOG][Proc: 0]p: update_non_local_matrix_data: 1.182 [ms]
[OGL LOG][Proc: 0]p_matrix: call_update: 5.163 [ms]
[OGL LOG][Proc: 0]p_rhs: call_update: 11.061 [ms]
[OGL LOG][Preconditioner.H:271] Generate preconditioner GISAI SparsityPower 1
[OGL LOG][Proc: 0]p: init_precond: 547.203 [ms]
[OGL LOG][StoppingCriterion.H:239] Creating stopping criterion with minIter 600 frequency 10
[OGL LOG][Proc: 0]p: generate_solver: 0.018 [ms]
[OGL LOG][Proc: 0]p: solve: 5575.335 [ms]
[OGL LOG][Proc: 0]p: copy_x_back: 12.75 [ms]
[OGL LOG][lduLduBase.H:330] 
Statistics:
	Time per iteration: 5569 [mu s]
	Time per residual norm calculation: 1322.000000 [mu s]
	Time per iteration and DOF: 0.110371 [ns]
	Retrieve results bandwidth 2.652000 [GByte/s]
[OGL LOG][Proc: 0]p: solve_multi_gpu: 6163.406 [ms]
GISAIcudaGKOCG:  Solving for p, Initial residual = 0.9999999998870396, Final residual = 0.99999999988497, No Iterations 1001
time step continuity errors : sum local = 235.9768734430521, global = -0.005567329534882064, cumulative = -0.03443608893917606
smoothSolver:  Solving for nuTilda, Initial residual = 0.2581807346136901, Final residual = 0.01936791867246209, No Iterations 4
ExecutionTime = 498.26 s  ClockTime = 499 s

Time = 11

velocityDampingConstraint velocityDamping damped 431448 (0.86%) of cells, with max limit 300
smoothSolver:  Solving for Ux, Initial residual = 0.5302093662073003, Final residual = 0.04137138424725644, No Iterations 2
smoothSolver:  Solving for Uy, Initial residual = 0.5394929486284115, Final residual = 0.05208905563039225, No Iterations 2
smoothSolver:  Solving for Uz, Initial residual = 0.5587960066158478, Final residual = 0.03767233974614231, No Iterations 2
[OGL LOG][Proc: 0]: global_index_init: 6.99 [ms]
[OGL LOG][Proc: 0]p_local_coeffs: call_update: 0 [ms]
[OGL LOG][Proc: 0]p_non_local_coeffs: call_update: 0 [ms]
[OGL LOG][Proc: 0]p: update_local_matrix_data: 176.753 [ms]
[OGL LOG][Proc: 0]p: update_non_local_matrix_data: 1.082 [ms]
[OGL LOG][Proc: 0]p_matrix: call_update: 3.806 [ms]
[OGL LOG][Proc: 0]p_rhs: call_update: 11.725 [ms]
[OGL LOG][Preconditioner.H:271] Generate preconditioner GISAI SparsityPower 1
[OGL LOG][Proc: 0]p: init_precond: 553.468 [ms]
[OGL LOG][StoppingCriterion.H:239] Creating stopping criterion with minIter 600 frequency 10
[OGL LOG][Proc: 0]p: generate_solver: 0.016 [ms]
[OGL LOG][Proc: 0]p: solve: 5560.953 [ms]
[OGL LOG][Proc: 0]p: copy_x_back: 12.704 [ms]
[OGL LOG][lduLduBase.H:330] 
Statistics:
	Time per iteration: 5555 [mu s]
	Time per residual norm calculation: 1312.000000 [mu s]
	Time per iteration and DOF: 0.110094 [ns]
	Retrieve results bandwidth 2.662000 [GByte/s]
[OGL LOG][Proc: 0]p: solve_multi_gpu: 6152.414 [ms]
GISAIcudaGKOCG:  Solving for p, Initial residual = 0.9999999998778412, Final residual = 0.9999999998738578, No Iterations 1001
time step continuity errors : sum local = 192.3411561814714, global = -0.005989025350688669, cumulative = -0.04042511428986473
smoothSolver:  Solving for nuTilda, Initial residual = 0.2498651386974703, Final residual = 0.02290904892338675, No Iterations 5
ExecutionTime = 523.25 s  ClockTime = 524 s

Time = 12

velocityDampingConstraint velocityDamping damped 430504 (0.85%) of cells, with max limit 300
smoothSolver:  Solving for Ux, Initial residual = 0.5094871492383374, Final residual = 0.01576077842545796, No Iterations 3
smoothSolver:  Solving for Uy, Initial residual = 0.5363735080410807, Final residual = 0.02322011796928184, No Iterations 3
smoothSolver:  Solving for Uz, Initial residual = 0.5232989751604228, Final residual = 0.02439552427161037, No Iterations 3
[OGL LOG][Proc: 0]: global_index_init: 2.581 [ms]
[OGL LOG][Proc: 0]p_local_coeffs: call_update: 0 [ms]
[OGL LOG][Proc: 0]p_non_local_coeffs: call_update: 0 [ms]
[OGL LOG][Proc: 0]p: update_local_matrix_data: 176.285 [ms]
[OGL LOG][Proc: 0]p: update_non_local_matrix_data: 1.175 [ms]
[OGL LOG][Proc: 0]p_matrix: call_update: 5.017 [ms]
[OGL LOG][Proc: 0]p_rhs: call_update: 10.748 [ms]
[OGL LOG][Preconditioner.H:271] Generate preconditioner GISAI SparsityPower 1
[OGL LOG][Proc: 0]p: init_precond: 539.428 [ms]
[OGL LOG][StoppingCriterion.H:239] Creating stopping criterion with minIter 600 frequency 10
[OGL LOG][Proc: 0]p: generate_solver: 0.018 [ms]
[OGL LOG][Proc: 0]p: solve: 5563.46 [ms]
[OGL LOG][Proc: 0]p: copy_x_back: 12.748 [ms]
[OGL LOG][lduLduBase.H:330] 
Statistics:
	Time per iteration: 5557 [mu s]
	Time per residual norm calculation: 1465.000000 [mu s]
	Time per iteration and DOF: 0.110133 [ns]
	Retrieve results bandwidth 2.653000 [GByte/s]
[OGL LOG][Proc: 0]p: solve_multi_gpu: 6141.386 [ms]
GISAIcudaGKOCG:  Solving for p, Initial residual = 0.9999999998309917, Final residual = 0.9999999997781078, No Iterations 1001
time step continuity errors : sum local = 190.6457659983206, global = -0.006475697093906966, cumulative = -0.0469008113837717
smoothSolver:  Solving for nuTilda, Initial residual = 0.2414580006488862, Final residual = 0.01797282046324893, No Iterations 5
ExecutionTime = 548.67 s  ClockTime = 550 s

Time = 13

velocityDampingConstraint velocityDamping damped 417744 (0.8300000000000001%) of cells, with max limit 300
smoothSolver:  Solving for Ux, Initial residual = 0.5486878073271617, Final residual = 0.03305139571439589, No Iterations 2
smoothSolver:  Solving for Uy, Initial residual = 0.5390198523023926, Final residual = 0.01847349428124918, No Iterations 3
smoothSolver:  Solving for Uz, Initial residual = 0.5165649599831884, Final residual = 0.05065801496368619, No Iterations 2
[OGL LOG][Proc: 0]: global_index_init: 2.963 [ms]
[OGL LOG][Proc: 0]p_local_coeffs: call_update: 0 [ms]
[OGL LOG][Proc: 0]p_non_local_coeffs: call_update: 0 [ms]
[OGL LOG][Proc: 0]p: update_local_matrix_data: 175.656 [ms]
[OGL LOG][Proc: 0]p: update_non_local_matrix_data: 1.066 [ms]
[OGL LOG][Proc: 0]p_matrix: call_update: 3.586 [ms]
[OGL LOG][Proc: 0]p_rhs: call_update: 12.477 [ms]
[OGL LOG][Preconditioner.H:271] Generate preconditioner GISAI SparsityPower 1
[OGL LOG][Proc: 0]p: init_precond: 519.938 [ms]
[OGL LOG][StoppingCriterion.H:239] Creating stopping criterion with minIter 600 frequency 11
[OGL LOG][Proc: 0]p: generate_solver: 0.015 [ms]
[OGL LOG][Proc: 0]p: solve: 5598.337 [ms]
[OGL LOG][Proc: 0]p: copy_x_back: 12.562 [ms]
[OGL LOG][lduLduBase.H:330] 
Statistics:
	Time per iteration: 5587 [mu s]
	Time per residual norm calculation: 1457.000000 [mu s]
	Time per iteration and DOF: 0.110728 [ns]
	Retrieve results bandwidth 2.692000 [GByte/s]
[OGL LOG][Proc: 0]p: solve_multi_gpu: 6156.356 [ms]
GISAIcudaGKOCG:  Solving for p, Initial residual = 0.9999999997841938, Final residual = 0.9999999997738396, No Iterations 1002
time step continuity errors : sum local = 197.5952977684445, global = -0.006888961792662578, cumulative = -0.05378977317643428
smoothSolver:  Solving for nuTilda, Initial residual = 0.229836264563033, Final residual = 0.01373670405349784, No Iterations 5
ExecutionTime = 574 s  ClockTime = 575 s

Time = 14

velocityDampingConstraint velocityDamping damped 408954 (0.8100000000000001%) of cells, with max limit 300
smoothSolver:  Solving for Ux, Initial residual = 0.5202938321357019, Final residual = 0.01556662945120845, No Iterations 3
smoothSolver:  Solving for Uy, Initial residual = 0.5647656631536936, Final residual = 0.01907021272356123, No Iterations 3
smoothSolver:  Solving for Uz, Initial residual = 0.5155479012204554, Final residual = 0.01578869475170338, No Iterations 3
[OGL LOG][Proc: 0]: global_index_init: 2.695 [ms]
[OGL LOG][Proc: 0]p_local_coeffs: call_update: 0 [ms]
[OGL LOG][Proc: 0]p_non_local_coeffs: call_update: 0 [ms]
[OGL LOG][Proc: 0]p: update_local_matrix_data: 175.948 [ms]
[OGL LOG][Proc: 0]p: update_non_local_matrix_data: 1.168 [ms]
[OGL LOG][Proc: 0]p_matrix: call_update: 4.727 [ms]
[OGL LOG][Proc: 0]p_rhs: call_update: 11.269 [ms]
[OGL LOG][Preconditioner.H:271] Generate preconditioner GISAI SparsityPower 1
[OGL LOG][Proc: 0]p: init_precond: 557.523 [ms]
[OGL LOG][StoppingCriterion.H:239] Creating stopping criterion with minIter 601 frequency 11
[OGL LOG][Proc: 0]p: generate_solver: 0.018 [ms]
[OGL LOG][Proc: 0]p: solve: 5566.719 [ms]
[OGL LOG][Proc: 0]p: copy_x_back: 12.766 [ms]
[OGL LOG][lduLduBase.H:330] 
Statistics:
	Time per iteration: 5555 [mu s]
	Time per residual norm calculation: 1317.000000 [mu s]
	Time per iteration and DOF: 0.110094 [ns]
	Retrieve results bandwidth 2.649000 [GByte/s]
[OGL LOG][Proc: 0]p: solve_multi_gpu: 6164.294 [ms]
GISAIcudaGKOCG:  Solving for p, Initial residual = 0.999999999714182, Final residual = 0.9999999996857917, No Iterations 1002
time step continuity errors : sum local = 177.3589578792424, global = -0.007365972363486253, cumulative = -0.06115574553992053
smoothSolver:  Solving for nuTilda, Initial residual = 0.1908724785327085, Final residual = 0.01148573987875381, No Iterations 6
ExecutionTime = 599.64 s  ClockTime = 601 s

Time = 15

velocityDampingConstraint velocityDamping damped 393168 (0.78%) of cells, with max limit 300
smoothSolver:  Solving for Ux, Initial residual = 0.5251394154972157, Final residual = 0.04313799809847499, No Iterations 2
smoothSolver:  Solving for Uy, Initial residual = 0.5215259974639082, Final residual = 0.01443016655635344, No Iterations 3
smoothSolver:  Solving for Uz, Initial residual = 0.5560191354199762, Final residual = 0.02248983084712457, No Iterations 2
[OGL LOG][Proc: 0]: global_index_init: 2.592 [ms]
[OGL LOG][Proc: 0]p_local_coeffs: call_update: 0 [ms]
[OGL LOG][Proc: 0]p_non_local_coeffs: call_update: 0 [ms]
[OGL LOG][Proc: 0]p: update_local_matrix_data: 176.745 [ms]
[OGL LOG][Proc: 0]p: update_non_local_matrix_data: 1.073 [ms]
[OGL LOG][Proc: 0]p_matrix: call_update: 5.249 [ms]
[OGL LOG][Proc: 0]p_rhs: call_update: 11.031 [ms]
[OGL LOG][Preconditioner.H:271] Generate preconditioner GISAI SparsityPower 1
[OGL LOG][Proc: 0]p: init_precond: 539.833 [ms]
[OGL LOG][StoppingCriterion.H:239] Creating stopping criterion with minIter 601 frequency 10
[OGL LOG][Proc: 0]p: generate_solver: 0.016 [ms]
[OGL LOG][Proc: 0]p: solve: 5559.845 [ms]
[OGL LOG][Proc: 0]p: copy_x_back: 12.521 [ms]
[OGL LOG][lduLduBase.H:330] 
Statistics:
	Time per iteration: 5554 [mu s]
	Time per residual norm calculation: 1318.000000 [mu s]
	Time per iteration and DOF: 0.110074 [ns]
	Retrieve results bandwidth 2.701000 [GByte/s]
[OGL LOG][Proc: 0]p: solve_multi_gpu: 6153.84 [ms]
GISAIcudaGKOCG:  Solving for p, Initial residual = 0.9999999996706168, Final residual = 0.9999999996577454, No Iterations 1001
time step continuity errors : sum local = 175.3131401223551, global = -0.007770132646902101, cumulative = -0.06892587818682264
smoothSolver:  Solving for nuTilda, Initial residual = 0.207253667894049, Final residual = 0.01733010432872991, No Iterations 3
ExecutionTime = 624.54 s  ClockTime = 626 s

Time = 16

velocityDampingConstraint velocityDamping damped 390859 (0.77%) of cells, with max limit 300
smoothSolver:  Solving for Ux, Initial residual = 0.5257156349196598, Final residual = 0.03343761712492579, No Iterations 3
smoothSolver:  Solving for Uy, Initial residual = 0.5306109524538984, Final residual = 0.04902527074719811, No Iterations 2
smoothSolver:  Solving for Uz, Initial residual = 0.4984083525253545, Final residual = 0.03231778056050749, No Iterations 2
[OGL LOG][Proc: 0]: global_index_init: 2.925 [ms]
[OGL LOG][Proc: 0]p_local_coeffs: call_update: 0 [ms]
[OGL LOG][Proc: 0]p_non_local_coeffs: call_update: 0 [ms]
[OGL LOG][Proc: 0]p: update_local_matrix_data: 176.714 [ms]
[OGL LOG][Proc: 0]p: update_non_local_matrix_data: 1.159 [ms]
[OGL LOG][Proc: 0]p_matrix: call_update: 4.826 [ms]
[OGL LOG][Proc: 0]p_rhs: call_update: 11.109 [ms]
[OGL LOG][Preconditioner.H:271] Generate preconditioner GISAI SparsityPower 1
[OGL LOG][Proc: 0]p: init_precond: 531.338 [ms]
[OGL LOG][StoppingCriterion.H:239] Creating stopping criterion with minIter 600 frequency 10
[OGL LOG][Proc: 0]p: generate_solver: 0.019 [ms]
[OGL LOG][Proc: 0]p: solve: 5589.15 [ms]
[OGL LOG][Proc: 0]p: copy_x_back: 12.944 [ms]
[OGL LOG][lduLduBase.H:330] 
Statistics:
	Time per iteration: 5583 [mu s]
	Time per residual norm calculation: 1470.000000 [mu s]
	Time per iteration and DOF: 0.110648 [ns]
	Retrieve results bandwidth 2.612000 [GByte/s]
[OGL LOG][Proc: 0]p: solve_multi_gpu: 6159.516 [ms]
GISAIcudaGKOCG:  Solving for p, Initial residual = 0.9999999997843928, Final residual = 0.9999999997725231, No Iterations 1001
time step continuity errors : sum local = 268.352724144401, global = -0.008236937533421451, cumulative = -0.07716281572024408
smoothSolver:  Solving for nuTilda, Initial residual = 0.2563799250803806, Final residual = 0.02532110146334721, No Iterations 3
ExecutionTime = 649.55 s  ClockTime = 651 s

Time = 17

velocityDampingConstraint velocityDamping damped 375488 (0.74%) of cells, with max limit 300
smoothSolver:  Solving for Ux, Initial residual = 0.5707955346900991, Final residual = 0.01993216362513423, No Iterations 2
smoothSolver:  Solving for Uy, Initial residual = 0.5154464431636252, Final residual = 0.05079644511601859, No Iterations 2
smoothSolver:  Solving for Uz, Initial residual = 0.5362058830774498, Final residual = 0.04735784051484975, No Iterations 2
[OGL LOG][Proc: 0]: global_index_init: 3.139 [ms]
[OGL LOG][Proc: 0]p_local_coeffs: call_update: 0 [ms]
[OGL LOG][Proc: 0]p_non_local_coeffs: call_update: 0 [ms]
[OGL LOG][Proc: 0]p: update_local_matrix_data: 179.651 [ms]
[OGL LOG][Proc: 0]p: update_non_local_matrix_data: 1.025 [ms]
[OGL LOG][Proc: 0]p_matrix: call_update: 8.048 [ms]
[OGL LOG][Proc: 0]p_rhs: call_update: 11.218 [ms]
[OGL LOG][Preconditioner.H:271] Generate preconditioner GISAI SparsityPower 1
[OGL LOG][Proc: 0]p: init_precond: 534.024 [ms]
[OGL LOG][StoppingCriterion.H:239] Creating stopping criterion with minIter 600 frequency 11
[OGL LOG][Proc: 0]p: generate_solver: 0.015 [ms]
[OGL LOG][Proc: 0]p: solve: 5603.14 [ms]
[OGL LOG][Proc: 0]p: copy_x_back: 13.006 [ms]
[OGL LOG][lduLduBase.H:330] 
Statistics:
	Time per iteration: 5591 [mu s]
	Time per residual norm calculation: 1470.000000 [mu s]
	Time per iteration and DOF: 0.110807 [ns]
	Retrieve results bandwidth 2.600000 [GByte/s]
[OGL LOG][Proc: 0]p: solve_multi_gpu: 6186.743 [ms]
GISAIcudaGKOCG:  Solving for p, Initial residual = 0.9999999996282475, Final residual = 0.9999999996249759, No Iterations 1002
time step continuity errors : sum local = 327.5555988230573, global = -0.008631018814199299, cumulative = -0.08579383453444338
smoothSolver:  Solving for nuTilda, Initial residual = 0.2321818760778812, Final residual = 0.009839393420098295, No Iterations 4
ExecutionTime = 674.42 s  ClockTime = 676 s

Time = 18

velocityDampingConstraint velocityDamping damped 364054 (0.72%) of cells, with max limit 300
smoothSolver:  Solving for Ux, Initial residual = 0.505275276459305, Final residual = 0.01764546217101167, No Iterations 2
smoothSolver:  Solving for Uy, Initial residual = 0.5223392556842357, Final residual = 0.01489226977509605, No Iterations 2
smoothSolver:  Solving for Uz, Initial residual = 0.5227591918281943, Final residual = 0.02679688648905072, No Iterations 2
[OGL LOG][Proc: 0]: global_index_init: 2.71 [ms]
[OGL LOG][Proc: 0]p_local_coeffs: call_update: 0 [ms]
[OGL LOG][Proc: 0]p_non_local_coeffs: call_update: 0 [ms]
[OGL LOG][Proc: 0]p: update_local_matrix_data: 177.451 [ms]
[OGL LOG][Proc: 0]p: update_non_local_matrix_data: 1.209 [ms]
[OGL LOG][Proc: 0]p_matrix: call_update: 5.236 [ms]
[OGL LOG][Proc: 0]p_rhs: call_update: 11.101 [ms]
[OGL LOG][Preconditioner.H:271] Generate preconditioner GISAI SparsityPower 1
[OGL LOG][Proc: 0]p: init_precond: 540.977 [ms]
[OGL LOG][StoppingCriterion.H:239] Creating stopping criterion with minIter 601 frequency 11
[OGL LOG][Proc: 0]p: generate_solver: 0.019 [ms]
[OGL LOG][Proc: 0]p: solve: 5603.01 [ms]
[OGL LOG][Proc: 0]p: copy_x_back: 12.537 [ms]
[OGL LOG][lduLduBase.H:330] 
Statistics:
	Time per iteration: 5591 [mu s]
	Time per residual norm calculation: 1313.000000 [mu s]
	Time per iteration and DOF: 0.110807 [ns]
	Retrieve results bandwidth 2.697000 [GByte/s]
[OGL LOG][Proc: 0]p: solve_multi_gpu: 6181.773 [ms]
GISAIcudaGKOCG:  Solving for p, Initial residual = 0.9999999995635425, Final residual = 0.9999999995664627, No Iterations 1002
time step continuity errors : sum local = 345.3855868112128, global = -0.009028850108607584, cumulative = -0.09482268464305096
smoothSolver:  Solving for nuTilda, Initial residual = 0.2125994996245363, Final residual = 0.02114116815696891, No Iterations 5
ExecutionTime = 699.38 s  ClockTime = 701 s

Time = 19

velocityDampingConstraint velocityDamping damped 358347 (0.71%) of cells, with max limit 300
smoothSolver:  Solving for Ux, Initial residual = 0.4829514524747519, Final residual = 0.01060721558178725, No Iterations 3
smoothSolver:  Solving for Uy, Initial residual = 0.4836418839023063, Final residual = 0.0130191173151992, No Iterations 3
smoothSolver:  Solving for Uz, Initial residual = 0.4858550189941002, Final residual = 0.006519749082027694, No Iterations 3
[OGL LOG][Proc: 0]: global_index_init: 2.957 [ms]
[OGL LOG][Proc: 0]p_local_coeffs: call_update: 0 [ms]
[OGL LOG][Proc: 0]p_non_local_coeffs: call_update: 0 [ms]
[OGL LOG][Proc: 0]p: update_local_matrix_data: 175.8 [ms]
[OGL LOG][Proc: 0]p: update_non_local_matrix_data: 1.096 [ms]
[OGL LOG][Proc: 0]p_matrix: call_update: 4.986 [ms]
[OGL LOG][Proc: 0]p_rhs: call_update: 11.507 [ms]
[OGL LOG][Preconditioner.H:271] Generate preconditioner GISAI SparsityPower 1
[OGL LOG][Proc: 0]p: init_precond: 557.203 [ms]
[OGL LOG][StoppingCriterion.H:239] Creating stopping criterion with minIter 601 frequency 10
[OGL LOG][Proc: 0]p: generate_solver: 0.014 [ms]
[OGL LOG][Proc: 0]p: solve: 5562.059 [ms]
[OGL LOG][Proc: 0]p: copy_x_back: 12.698 [ms]
[OGL LOG][lduLduBase.H:330] 
Statistics:
	Time per iteration: 5556 [mu s]
	Time per residual norm calculation: 1449.000000 [mu s]
	Time per iteration and DOF: 0.110113 [ns]
	Retrieve results bandwidth 2.663000 [GByte/s]
[OGL LOG][Proc: 0]p: solve_multi_gpu: 6159.937 [ms]
GISAIcudaGKOCG:  Solving for p, Initial residual = 0.9999999996985458, Final residual = 0.9999999997016096, No Iterations 1001
time step continuity errors : sum local = 427.9856642811633, global = -0.009470325095507905, cumulative = -0.1042930097385589
smoothSolver:  Solving for nuTilda, Initial residual = 0.2331615012178664, Final residual = 0.0129983396827052, No Iterations 4
ExecutionTime = 724.85 s  ClockTime = 727 s

Time = 20

velocityDampingConstraint velocityDamping damped 346030 (0.6900000000000001%) of cells, with max limit 300
smoothSolver:  Solving for Ux, Initial residual = 0.5295170593173849, Final residual = 0.0330535894939989, No Iterations 2
smoothSolver:  Solving for Uy, Initial residual = 0.4970936419321746, Final residual = 0.04027366476408577, No Iterations 2
smoothSolver:  Solving for Uz, Initial residual = 0.5138031663078051, Final residual = 0.04084926891742519, No Iterations 2
[OGL LOG][Proc: 0]: global_index_init: 3.003 [ms]
[OGL LOG][Proc: 0]p_local_coeffs: call_update: 0 [ms]
[OGL LOG][Proc: 0]p_non_local_coeffs: call_update: 0 [ms]
[OGL LOG][Proc: 0]p: update_local_matrix_data: 176.506 [ms]
[OGL LOG][Proc: 0]p: update_non_local_matrix_data: 1.175 [ms]
[OGL LOG][Proc: 0]p_matrix: call_update: 4.998 [ms]
[OGL LOG][Proc: 0]p_rhs: call_update: 10.6 [ms]
[OGL LOG][Preconditioner.H:271] Generate preconditioner GISAI SparsityPower 1
[OGL LOG][Proc: 0]p: init_precond: 543.0700000000001 [ms]
[OGL LOG][StoppingCriterion.H:239] Creating stopping criterion with minIter 600 frequency 11
[OGL LOG][Proc: 0]p: generate_solver: 0.019 [ms]
[OGL LOG][Proc: 0]p: solve: 5569.562 [ms]
[OGL LOG][Proc: 0]p: copy_x_back: 12.81 [ms]
[OGL LOG][lduLduBase.H:330] 
Statistics:
	Time per iteration: 5558 [mu s]
	Time per residual norm calculation: 1327.000000 [mu s]
	Time per iteration and DOF: 0.110153 [ns]
	Retrieve results bandwidth 2.640000 [GByte/s]
[OGL LOG][Proc: 0]p: solve_multi_gpu: 6151.28 [ms]
GISAIcudaGKOCG:  Solving for p, Initial residual = 0.9999999994976055, Final residual = 0.9999999995595513, No Iterations 1002
time step continuity errors : sum local = 389.2433814236921, global = -0.009852964807877543, cumulative = -0.1141459745464364
smoothSolver:  Solving for nuTilda, Initial residual = 0.2073196459834453, Final residual = 0.01123489662478572, No Iterations 6
ExecutionTime = 750.09 s  ClockTime = 752 s

Time = 21

velocityDampingConstraint velocityDamping damped 340086 (0.67%) of cells, with max limit 300
smoothSolver:  Solving for Ux, Initial residual = 0.4903612294991251, Final residual = 0.02656458306453903, No Iterations 3
smoothSolver:  Solving for Uy, Initial residual = 0.5470986589861363, Final residual = 0.0282209525644221, No Iterations 3
smoothSolver:  Solving for Uz, Initial residual = 0.4955051165553067, Final residual = 0.02345965605399586, No Iterations 3
[OGL LOG][Proc: 0]: global_index_init: 3.092 [ms]
[OGL LOG][Proc: 0]p_local_coeffs: call_update: 0 [ms]
[OGL LOG][Proc: 0]p_non_local_coeffs: call_update: 0 [ms]
[OGL LOG][Proc: 0]p: update_local_matrix_data: 178.054 [ms]
[OGL LOG][Proc: 0]p: update_non_local_matrix_data: 1.123 [ms]
[OGL LOG][Proc: 0]p_matrix: call_update: 3.593 [ms]
[OGL LOG][Proc: 0]p_rhs: call_update: 12.397 [ms]
[OGL LOG][Preconditioner.H:271] Generate preconditioner GISAI SparsityPower 1
[OGL LOG][Proc: 0]p: init_precond: 521.213 [ms]
[OGL LOG][StoppingCriterion.H:239] Creating stopping criterion with minIter 601 frequency 10
[OGL LOG][Proc: 0]p: generate_solver: 0.014 [ms]
[OGL LOG][Proc: 0]p: solve: 5576.61 [ms]
[OGL LOG][Proc: 0]p: copy_x_back: 12.588 [ms]
[OGL LOG][lduLduBase.H:330] 
Statistics:
	Time per iteration: 5571 [mu s]
	Time per residual norm calculation: 1313.000000 [mu s]
	Time per iteration and DOF: 0.110411 [ns]
	Retrieve results bandwidth 2.686000 [GByte/s]
[OGL LOG][Proc: 0]p: solve_multi_gpu: 6135.631 [ms]
GISAIcudaGKOCG:  Solving for p, Initial residual = 0.9999999996621712, Final residual = 1.00000000039963, No Iterations 1001
time step continuity errors : sum local = 381.8608468560271, global = -0.01027238774314946, cumulative = -0.1244183622895859
smoothSolver:  Solving for nuTilda, Initial residual = 0.2507752744862907, Final residual = 0.02402736578550527, No Iterations 1
ExecutionTime = 774.98 s  ClockTime = 777 s

Time = 22

velocityDampingConstraint velocityDamping damped 337779 (0.67%) of cells, with max limit 300
smoothSolver:  Solving for Ux, Initial residual = 0.5767476340495872, Final residual = 0.01339413557685898, No Iterations 1
smoothSolver:  Solving for Uy, Initial residual = 0.5787468019839832, Final residual = 0.01052915216573702, No Iterations 1
smoothSolver:  Solving for Uz, Initial residual = 0.5860523965115947, Final residual = 0.009321211520307135, No Iterations 1
[OGL LOG][Proc: 0]: global_index_init: 2.949 [ms]
[OGL LOG][Proc: 0]p_local_coeffs: call_update: 0 [ms]
[OGL LOG][Proc: 0]p_non_local_coeffs: call_update: 0 [ms]
[OGL LOG][Proc: 0]p: update_local_matrix_data: 174.513 [ms]
[OGL LOG][Proc: 0]p: update_non_local_matrix_data: 1.138 [ms]
[OGL LOG][Proc: 0]p_matrix: call_update: 5.103 [ms]
[OGL LOG][Proc: 0]p_rhs: call_update: 10.731 [ms]
[OGL LOG][Preconditioner.H:271] Generate preconditioner GISAI SparsityPower 1
[OGL LOG][Proc: 0]p: init_precond: 528.1660000000001 [ms]
[OGL LOG][StoppingCriterion.H:239] Creating stopping criterion with minIter 600 frequency 10
[OGL LOG][Proc: 0]p: generate_solver: 0.019 [ms]
[OGL LOG][Proc: 0]p: solve: 5574.599 [ms]
[OGL LOG][Proc: 0]p: copy_x_back: 12.846 [ms]
[OGL LOG][lduLduBase.H:330] 
Statistics:
	Time per iteration: 5569 [mu s]
	Time per residual norm calculation: 1323.000000 [mu s]
	Time per iteration and DOF: 0.110371 [ns]
	Retrieve results bandwidth 2.632000 [GByte/s]
[OGL LOG][Proc: 0]p: solve_multi_gpu: 6144.061 [ms]
GISAIcudaGKOCG:  Solving for p, Initial residual = 0.9999999987093778, Final residual = 0.9999999985649187, No Iterations 1001
time step continuity errors : sum local = 616.6797860386636, global = -0.01054556512845622, cumulative = -0.1349639274180421
smoothSolver:  Solving for nuTilda, Initial residual = 0.2062123140502761, Final residual = 0.01742026357479022, No Iterations 7
ExecutionTime = 799.89 s  ClockTime = 802 s

Time = 23

velocityDampingConstraint velocityDamping damped 337353 (0.67%) of cells, with max limit 300
smoothSolver:  Solving for Ux, Initial residual = 0.4798434140123342, Final residual = 0.02239429579731387, No Iterations 4
smoothSolver:  Solving for Uy, Initial residual = 0.4884306387040843, Final residual = 0.02030331285029529, No Iterations 3
smoothSolver:  Solving for Uz, Initial residual = 0.463803357904775, Final residual = 0.04231241803479443, No Iterations 4
[OGL LOG][Proc: 0]: global_index_init: 2.667 [ms]
[OGL LOG][Proc: 0]p_local_coeffs: call_update: 0 [ms]
[OGL LOG][Proc: 0]p_non_local_coeffs: call_update: 0 [ms]
[OGL LOG][Proc: 0]p: update_local_matrix_data: 176.569 [ms]
[OGL LOG][Proc: 0]p: update_non_local_matrix_data: 1.067 [ms]
[OGL LOG][Proc: 0]p_matrix: call_update: 4.797 [ms]
[OGL LOG][Proc: 0]p_rhs: call_update: 11.315 [ms]
[OGL LOG][Preconditioner.H:271] Generate preconditioner GISAI SparsityPower 1
[OGL LOG][Proc: 0]p: init_precond: 550.873 [ms]
[OGL LOG][StoppingCriterion.H:239] Creating stopping criterion with minIter 600 frequency 10
[OGL LOG][Proc: 0]p: generate_solver: 0.015 [ms]
[OGL LOG][Proc: 0]p: solve: 5563.254 [ms]
[OGL LOG][Proc: 0]p: copy_x_back: 12.659 [ms]
[OGL LOG][lduLduBase.H:330] 
Statistics:
	Time per iteration: 5557 [mu s]
	Time per residual norm calculation: 1318.000000 [mu s]
	Time per iteration and DOF: 0.110133 [ns]
	Retrieve results bandwidth 2.671000 [GByte/s]
[OGL LOG][Proc: 0]p: solve_multi_gpu: 6154.25 [ms]
GISAIcudaGKOCG:  Solving for p, Initial residual = 0.9999999995179651, Final residual = 0.9999999996614173, No Iterations 1001
time step continuity errors : sum local = 1666.366536090829, global = -0.01097811841988141, cumulative = -0.1459420458379235
smoothSolver:  Solving for nuTilda, Initial residual = 0.2817868736576405, Final residual = 0.005487420988395073, No Iterations 1
ExecutionTime = 825.24 s  ClockTime = 827 s

Time = 24

velocityDampingConstraint velocityDamping damped 347454 (0.6900000000000001%) of cells, with max limit 300
smoothSolver:  Solving for Ux, Initial residual = 0.5921280393346746, Final residual = 0.0005937692691857864, No Iterations 1
smoothSolver:  Solving for Uy, Initial residual = 0.5903011029847209, Final residual = 0.003891851846416924, No Iterations 1
smoothSolver:  Solving for Uz, Initial residual = 0.5845806372362686, Final residual = 0.0005957976970086768, No Iterations 1
[OGL LOG][Proc: 0]: global_index_init: 2.691 [ms]
[OGL LOG][Proc: 0]p_local_coeffs: call_update: 0 [ms]
[OGL LOG][Proc: 0]p_non_local_coeffs: call_update: 0 [ms]
[OGL LOG][Proc: 0]p: update_local_matrix_data: 174.767 [ms]
[OGL LOG][Proc: 0]p: update_non_local_matrix_data: 1.137 [ms]
[OGL LOG][Proc: 0]p_matrix: call_update: 4.756 [ms]
[OGL LOG][Proc: 0]p_rhs: call_update: 11.149 [ms]
[OGL LOG][Preconditioner.H:271] Generate preconditioner GISAI SparsityPower 1
[OGL LOG][Proc: 0]p: init_precond: 539.149 [ms]
[OGL LOG][StoppingCriterion.H:239] Creating stopping criterion with minIter 600 frequency 10
[OGL LOG][Proc: 0]p: generate_solver: 0.02 [ms]
[OGL LOG][Proc: 0]p: solve: 5609.421 [ms]
[OGL LOG][Proc: 0]p: copy_x_back: 14.83 [ms]
[OGL LOG][lduLduBase.H:330] 
Statistics:
	Time per iteration: 5603 [mu s]
	Time per residual norm calculation: 1322.000000 [mu s]
	Time per iteration and DOF: 0.111045 [ns]
	Retrieve results bandwidth 2.280000 [GByte/s]
[OGL LOG][Proc: 0]p: solve_multi_gpu: 6192.054 [ms]
GISAIcudaGKOCG:  Solving for p, Initial residual = 0.9999999992266128, Final residual = 0.9999999992443533, No Iterations 1001
time step continuity errors : sum local = 1835.611782386719, global = -0.01123830227362267, cumulative = -0.1571803481115462
smoothSolver:  Solving for nuTilda, Initial residual = 0.2593965418783468, Final residual = 0.02585533107956346, No Iterations 6
ExecutionTime = 849.97 s  ClockTime = 852 s

Time = 25

velocityDampingConstraint velocityDamping damped 341539 (0.68%) of cells, with max limit 300
smoothSolver:  Solving for Ux, Initial residual = 0.4271958455923143, Final residual = 0.006046930469875941, No Iterations 3
smoothSolver:  Solving for Uy, Initial residual = 0.4423992043601013, Final residual = 0.007998461387964204, No Iterations 3
smoothSolver:  Solving for Uz, Initial residual = 0.4370572974433579, Final residual = 0.01002421464771254, No Iterations 3
[OGL LOG][Proc: 0]: global_index_init: 2.535 [ms]
[OGL LOG][Proc: 0]p_local_coeffs: call_update: 0 [ms]
[OGL LOG][Proc: 0]p_non_local_coeffs: call_update: 0 [ms]
[OGL LOG][Proc: 0]p: update_local_matrix_data: 179.655 [ms]
[OGL LOG][Proc: 0]p: update_non_local_matrix_data: 1.092 [ms]
[OGL LOG][Proc: 0]p_matrix: call_update: 5.326 [ms]
[OGL LOG][Proc: 0]p_rhs: call_update: 11.156 [ms]
[OGL LOG][Preconditioner.H:271] Generate preconditioner GISAI SparsityPower 1
[OGL LOG][Proc: 0]p: init_precond: 553.3819999999999 [ms]
[OGL LOG][StoppingCriterion.H:239] Creating stopping criterion with minIter 600 frequency 10
[OGL LOG][Proc: 0]p: generate_solver: 0.018 [ms]
[OGL LOG][Proc: 0]p: solve: 5560.212 [ms]
[OGL LOG][Proc: 0]p: copy_x_back: 12.708 [ms]
[OGL LOG][lduLduBase.H:330] 
Statistics:
	Time per iteration: 5554 [mu s]
	Time per residual norm calculation: 1470.000000 [mu s]
	Time per iteration and DOF: 0.110074 [ns]
	Retrieve results bandwidth 2.661000 [GByte/s]
[OGL LOG][Proc: 0]p: solve_multi_gpu: 6151.202 [ms]
GISAIcudaGKOCG:  Solving for p, Initial residual = 0.999999998428761, Final residual = 0.9999999995239766, No Iterations 1001
time step continuity errors : sum local = 868.558367740099, global = -0.01161705035845424, cumulative = -0.1687973984700004
smoothSolver:  Solving for nuTilda, Initial residual = 0.2996026308186341, Final residual = 0.01983248219049104, No Iterations 1
ExecutionTime = 874.84 s  ClockTime = 877 s


    From virtual bool Foam::regIOobject::readIfModified()
    in file db/regIOobject/regIOobjectRead.C at line 271
        Re-reading object fvSolution from file "/hkfs/work/workspace/scratch/eq4036-windsorbody_setup/workspace/956501f6f808c6adcb2a4b2f38d5e13c/case/system/fvSolution"
Time = 26

velocityDampingConstraint velocityDamping damped 358388 (0.71%) of cells, with max limit 300
smoothSolver:  Solving for Ux, Initial residual = 0.5838369818916032, Final residual = 0.04908436289724299, No Iterations 1
smoothSolver:  Solving for Uy, Initial residual = 0.5655705970870004, Final residual = 0.005594389846584251, No Iterations 3
smoothSolver:  Solving for Uz, Initial residual = 0.5755598675249907, Final residual = 0.03492843916217354, No Iterations 1
[OGL LOG][Proc: 0]: global_index_init: 2.733 [ms]
[OGL LOG][Proc: 0]p_local_coeffs: call_update: 0 [ms]
[OGL LOG][Proc: 0]p_non_local_coeffs: call_update: 0 [ms]
[OGL LOG][Proc: 0]p: update_local_matrix_data: 174.709 [ms]
[OGL LOG][Proc: 0]p: update_non_local_matrix_data: 1.032 [ms]
[OGL LOG][Proc: 0]p_matrix: call_update: 4.703 [ms]
[OGL LOG][Proc: 0]p_rhs: call_update: 11.462 [ms]
[OGL LOG][Preconditioner.H:271] Generate preconditioner GISAI SparsityPower 1
[OGL LOG][Proc: 0]p: init_precond: 519.92 [ms]
[OGL LOG][StoppingCriterion.H:239] Creating stopping criterion with minIter 600 frequency 11
[OGL LOG][Proc: 0]p: generate_solver: 0.019 [ms]
[OGL LOG][Proc: 0]p: solve: 5576.351 [ms]
[OGL LOG][Proc: 0]p: copy_x_back: 14.601 [ms]
[OGL LOG][lduLduBase.H:330] 
Statistics:
	Time per iteration: 5565 [mu s]
	Time per residual norm calculation: 1320.000000 [mu s]
	Time per iteration and DOF: 0.110292 [ns]
	Retrieve results bandwidth 2.316000 [GByte/s]
[OGL LOG][Proc: 0]p: solve_multi_gpu: 6139.699 [ms]
GISAIcudaGKOCG:  Solving for p, Initial residual = 0.9999999985530174, Final residual = 0.9999999985365285, No Iterations 1002
time step continuity errors : sum local = 1402.33201219175, global = -0.01186653757778917, cumulative = -0.1806639360477896
smoothSolver:  Solving for nuTilda, Initial residual = 0.3354140462455363, Final residual = 0.02953676427398419, No Iterations 4
ExecutionTime = 899.6900000000001 s  ClockTime = 902 s

Time = 27

velocityDampingConstraint velocityDamping damped 358803 (0.71%) of cells, with max limit 300
smoothSolver:  Solving for Ux, Initial residual = 0.5611980297409878, Final residual = 0.01541443734658333, No Iterations 3
smoothSolver:  Solving for Uy, Initial residual = 0.5536773242512345, Final residual = 0.0539668436894633, No Iterations 2
smoothSolver:  Solving for Uz, Initial residual = 0.5141550925377275, Final residual = 0.01871748867618198, No Iterations 3
[OGL LOG][Proc: 0]: global_index_init: 2.084 [ms]
[OGL LOG][Proc: 0]p_local_coeffs: call_update: 0 [ms]
[OGL LOG][Proc: 0]p_non_local_coeffs: call_update: 0 [ms]
[OGL LOG][Proc: 0]p: update_local_matrix_data: 175.597 [ms]
[OGL LOG][Proc: 0]p: update_non_local_matrix_data: 1.148 [ms]
[OGL LOG][Proc: 0]p_matrix: call_update: 5.146 [ms]
[OGL LOG][Proc: 0]p_rhs: call_update: 11.205 [ms]
[OGL LOG][Preconditioner.H:271] Generate preconditioner GISAI SparsityPower 1
[OGL LOG][Proc: 0]p: init_precond: 551.364 [ms]
[OGL LOG][StoppingCriterion.H:239] Creating stopping criterion with minIter 601 frequency 10
[OGL LOG][Proc: 0]p: generate_solver: 0.017 [ms]
[OGL LOG][Proc: 0]p: solve: 5567.991 [ms]
[OGL LOG][Proc: 0]p: copy_x_back: 13.118 [ms]
[OGL LOG][lduLduBase.H:330] 
Statistics:
	Time per iteration: 5562 [mu s]
	Time per residual norm calculation: 1311.000000 [mu s]
	Time per iteration and DOF: 0.110232 [ns]
	Retrieve results bandwidth 2.578000 [GByte/s]
[OGL LOG][Proc: 0]p: solve_multi_gpu: 6158.462 [ms]
GISAIcudaGKOCG:  Solving for p, Initial residual = 0.999999997939463, Final residual = 0.9999999978686113, No Iterations 1001
time step continuity errors : sum local = 926.577950621487, global = -0.01222132906041041, cumulative = -0.1928852651082
smoothSolver:  Solving for nuTilda, Initial residual = 0.1616577835701335, Final residual = 0.01130772595751085, No Iterations 4
ExecutionTime = 924.92 s  ClockTime = 927 s

Time = 28

velocityDampingConstraint velocityDamping damped 378210 (0.75%) of cells, with max limit 300
smoothSolver:  Solving for Ux, Initial residual = 0.6002735644950163, Final residual = 0.006024842147442994, No Iterations 3
smoothSolver:  Solving for Uy, Initial residual = 0.507006764710257, Final residual = 0.009618185295556528, No Iterations 3
smoothSolver:  Solving for Uz, Initial residual = 0.622666901301865, Final residual = 0.03253717729703647, No Iterations 2
[OGL LOG][Proc: 0]: global_index_init: 2.706 [ms]
[OGL LOG][Proc: 0]p_local_coeffs: call_update: 0 [ms]
[OGL LOG][Proc: 0]p_non_local_coeffs: call_update: 0 [ms]
[OGL LOG][Proc: 0]p: update_local_matrix_data: 175.273 [ms]
[OGL LOG][Proc: 0]p: update_non_local_matrix_data: 1.186 [ms]
[OGL LOG][Proc: 0]p_matrix: call_update: 4.926 [ms]
[OGL LOG][Proc: 0]p_rhs: call_update: 10.734 [ms]
[OGL LOG][Preconditioner.H:271] Generate preconditioner GISAI SparsityPower 1
[OGL LOG][Proc: 0]p: init_precond: 528.163 [ms]
[OGL LOG][StoppingCriterion.H:239] Creating stopping criterion with minIter 600 frequency 10
[OGL LOG][Proc: 0]p: generate_solver: 0.017 [ms]
[OGL LOG][Proc: 0]p: solve: 5570.492 [ms]
[OGL LOG][Proc: 0]p: copy_x_back: 14.648 [ms]
[OGL LOG][lduLduBase.H:330] 
Statistics:
	Time per iteration: 5564 [mu s]
	Time per residual norm calculation: 1460.000000 [mu s]
	Time per iteration and DOF: 0.110272 [ns]
	Retrieve results bandwidth 2.308000 [GByte/s]
[OGL LOG][Proc: 0]p: solve_multi_gpu: 6140.807 [ms]
GISAIcudaGKOCG:  Solving for p, Initial residual = 0.999999997312657, Final residual = 0.9999999974880416, No Iterations 1001
time step continuity errors : sum local = 599.4984116797782, global = -0.01257744081311649, cumulative = -0.2054627059213165
smoothSolver:  Solving for nuTilda, Initial residual = 0.2156691734030735, Final residual = 0.01275487588156055, No Iterations 2
ExecutionTime = 949.73 s  ClockTime = 952 s

Time = 29

velocityDampingConstraint velocityDamping damped 375021 (0.74%) of cells, with max limit 300
smoothSolver:  Solving for Ux, Initial residual = 0.5705010393961168, Final residual = 0.03512088549185721, No Iterations 2
smoothSolver:  Solving for Uy, Initial residual = 0.5588243362217231, Final residual = 0.05419328560973358, No Iterations 1
smoothSolver:  Solving for Uz, Initial residual = 0.5080094051723807, Final residual = 0.02342843294053457, No Iterations 3
[OGL LOG][Proc: 0]: global_index_init: 2.379 [ms]
[OGL LOG][Proc: 0]p_local_coeffs: call_update: 0 [ms]
[OGL LOG][Proc: 0]p_non_local_coeffs: call_update: 0 [ms]
[OGL LOG][Proc: 0]p: update_local_matrix_data: 176.507 [ms]
[OGL LOG][Proc: 0]p: update_non_local_matrix_data: 1.046 [ms]
[OGL LOG][Proc: 0]p_matrix: call_update: 3.951 [ms]
[OGL LOG][Proc: 0]p_rhs: call_update: 11.799 [ms]
[OGL LOG][Preconditioner.H:271] Generate preconditioner GISAI SparsityPower 1
[OGL LOG][Proc: 0]p: init_precond: 527.375 [ms]
[OGL LOG][StoppingCriterion.H:239] Creating stopping criterion with minIter 600 frequency 11
[OGL LOG][Proc: 0]p: generate_solver: 0.016 [ms]
[OGL LOG][Proc: 0]p: solve: 5565.127 [ms]
[OGL LOG][Proc: 0]p: copy_x_back: 12.606 [ms]
[OGL LOG][lduLduBase.H:330] 
Statistics:
	Time per iteration: 5554 [mu s]
	Time per residual norm calculation: 1318.000000 [mu s]
	Time per iteration and DOF: 0.110074 [ns]
	Retrieve results bandwidth 2.682000 [GByte/s]
[OGL LOG][Proc: 0]p: solve_multi_gpu: 6130.009 [ms]
GISAIcudaGKOCG:  Solving for p, Initial residual = 0.9999999978189653, Final residual = 1.000000000346373, No Iterations 1002
time step continuity errors : sum local = 709.9574129065405, global = -0.01285079375207025, cumulative = -0.2183134996733867
smoothSolver:  Solving for nuTilda, Initial residual = 0.2031714518162348, Final residual = 0.01257802839576019, No Iterations 3
ExecutionTime = 975.67 s  ClockTime = 978 s

Time = 30

velocityDampingConstraint velocityDamping damped 373313 (0.74%) of cells, with max limit 300
smoothSolver:  Solving for Ux, Initial residual = 0.5795472905822934, Final residual = 0.01719139544520725, No Iterations 3
smoothSolver:  Solving for Uy, Initial residual = 0.5851077622547165, Final residual = 0.01977614364846347, No Iterations 3
smoothSolver:  Solving for Uz, Initial residual = 0.5818834314153685, Final residual = 0.04199424019047758, No Iterations 2
[OGL LOG][Proc: 0]: global_index_init: 2.45 [ms]
[OGL LOG][Proc: 0]p_local_coeffs: call_update: 0 [ms]
[OGL LOG][Proc: 0]p_non_local_coeffs: call_update: 0 [ms]
[OGL LOG][Proc: 0]p: update_local_matrix_data: 177.569 [ms]
[OGL LOG][Proc: 0]p: update_non_local_matrix_data: 1.138 [ms]
[OGL LOG][Proc: 0]p_matrix: call_update: 5.073 [ms]
[OGL LOG][Proc: 0]p_rhs: call_update: 10.513 [ms]
[OGL LOG][Preconditioner.H:271] Generate preconditioner GISAI SparsityPower 1
[OGL LOG][Proc: 0]p: init_precond: 536.955 [ms]
[OGL LOG][StoppingCriterion.H:239] Creating stopping criterion with minIter 601 frequency 10
[OGL LOG][Proc: 0]p: generate_solver: 0.018 [ms]
[OGL LOG][Proc: 0]p: solve: 5570.979 [ms]
[OGL LOG][Proc: 0]p: copy_x_back: 12.741 [ms]
[OGL LOG][lduLduBase.H:330] 
Statistics:
	Time per iteration: 5565 [mu s]
	Time per residual norm calculation: 1320.000000 [mu s]
	Time per iteration and DOF: 0.110292 [ns]
	Retrieve results bandwidth 2.654000 [GByte/s]
[OGL LOG][Proc: 0]p: solve_multi_gpu: 6146.953 [ms]
GISAIcudaGKOCG:  Solving for p, Initial residual = 0.9999999964339151, Final residual = 0.9999999972388329, No Iterations 1001
time step continuity errors : sum local = 661.6466110983423, global = -0.01318168982028913, cumulative = -0.2314951894936758
smoothSolver:  Solving for nuTilda, Initial residual = 0.13720579065293, Final residual = 0.007794692708244845, No Iterations 3
ExecutionTime = 1000.74 s  ClockTime = 1003 s

Time = 31

velocityDampingConstraint velocityDamping damped 374375 (0.74%) of cells, with max limit 300
smoothSolver:  Solving for Ux, Initial residual = 0.540672229200566, Final residual = 0.0307452007835246, No Iterations 2
smoothSolver:  Solving for Uy, Initial residual = 0.6266757335414607, Final residual = 0.0154058600094292, No Iterations 2
smoothSolver:  Solving for Uz, Initial residual = 0.5664537664235486, Final residual = 0.03976102430393159, No Iterations 2
[OGL LOG][Proc: 0]: global_index_init: 2.997 [ms]
[OGL LOG][Proc: 0]p_local_coeffs: call_update: 0 [ms]
[OGL LOG][Proc: 0]p_non_local_coeffs: call_update: 0 [ms]
[OGL LOG][Proc: 0]p: update_local_matrix_data: 178.559 [ms]
[OGL LOG][Proc: 0]p: update_non_local_matrix_data: 1.092 [ms]
[OGL LOG][Proc: 0]p_matrix: call_update: 4.631 [ms]
[OGL LOG][Proc: 0]p_rhs: call_update: 11.388 [ms]
[OGL LOG][Preconditioner.H:271] Generate preconditioner GISAI SparsityPower 1
[OGL LOG][Proc: 0]p: init_precond: 536.133 [ms]
[OGL LOG][StoppingCriterion.H:239] Creating stopping criterion with minIter 600 frequency 10
[OGL LOG][Proc: 0]p: generate_solver: 0.015 [ms]
[OGL LOG][Proc: 0]p: solve: 5579.061 [ms]
[OGL LOG][Proc: 0]p: copy_x_back: 13.041 [ms]
[OGL LOG][lduLduBase.H:330] 
Statistics:
	Time per iteration: 5573 [mu s]
	Time per residual norm calculation: 1317.000000 [mu s]
	Time per iteration and DOF: 0.110450 [ns]
	Retrieve results bandwidth 2.593000 [GByte/s]
[OGL LOG][Proc: 0]p: solve_multi_gpu: 6154.82 [ms]
GISAIcudaGKOCG:  Solving for p, Initial residual = 0.9999999943502486, Final residual = 0.9999999958315097, No Iterations 1001
time step continuity errors : sum local = 423.7684895367781, global = -0.01343208370844771, cumulative = -0.2449272732021235
smoothSolver:  Solving for nuTilda, Initial residual = 0.1588021014043464, Final residual = 0.01459772821785986, No Iterations 3
ExecutionTime = 1025.5 s  ClockTime = 1028 s

Time = 32

velocityDampingConstraint velocityDamping damped 374587 (0.74%) of cells, with max limit 300
smoothSolver:  Solving for Ux, Initial residual = 0.5228173241004235, Final residual = 0.02812453110116764, No Iterations 3
smoothSolver:  Solving for Uy, Initial residual = 0.5282288090985529, Final residual = 0.03061256497257131, No Iterations 3
smoothSolver:  Solving for Uz, Initial residual = 0.5236424059778119, Final residual = 0.02234318378939961, No Iterations 3
[OGL LOG][Proc: 0]: global_index_init: 2.069 [ms]
[OGL LOG][Proc: 0]p_local_coeffs: call_update: 0 [ms]
[OGL LOG][Proc: 0]p_non_local_coeffs: call_update: 0 [ms]
[OGL LOG][Proc: 0]p: update_local_matrix_data: 174.484 [ms]
[OGL LOG][Proc: 0]p: update_non_local_matrix_data: 1.294 [ms]
[OGL LOG][Proc: 0]p_matrix: call_update: 5.275 [ms]
[OGL LOG][Proc: 0]p_rhs: call_update: 10.71 [ms]
[OGL LOG][Preconditioner.H:271] Generate preconditioner GISAI SparsityPower 1
[OGL LOG][Proc: 0]p: init_precond: 533.005 [ms]
[OGL LOG][StoppingCriterion.H:239] Creating stopping criterion with minIter 600 frequency 10
[OGL LOG][Proc: 0]p: generate_solver: 0.019 [ms]
[OGL LOG][Proc: 0]p: solve: 5567.787 [ms]
[OGL LOG][Proc: 0]p: copy_x_back: 14.501 [ms]
[OGL LOG][lduLduBase.H:330] 
Statistics:
	Time per iteration: 5562 [mu s]
	Time per residual norm calculation: 1467.000000 [mu s]
	Time per iteration and DOF: 0.110232 [ns]
	Retrieve results bandwidth 2.332000 [GByte/s]
[OGL LOG][Proc: 0]p: solve_multi_gpu: 6143.876 [ms]
GISAIcudaGKOCG:  Solving for p, Initial residual = 0.9999999903714084, Final residual = 0.9999999925585691, No Iterations 1001
time step continuity errors : sum local = 446.6680033886996, global = -0.01373814969378722, cumulative = -0.2586654228959108
smoothSolver:  Solving for nuTilda, Initial residual = 0.1332371319576341, Final residual = 0.0088570707332165, No Iterations 4
ExecutionTime = 1050.66 s  ClockTime = 1053 s

Time = 33

velocityDampingConstraint velocityDamping damped 373888 (0.74%) of cells, with max limit 300
smoothSolver:  Solving for Ux, Initial residual = 0.5668361787233072, Final residual = 0.01791915893057572, No Iterations 3
smoothSolver:  Solving for Uy, Initial residual = 0.5621440313238076, Final residual = 0.02508772211119712, No Iterations 2
smoothSolver:  Solving for Uz, Initial residual = 0.5672896196400007, Final residual = 0.01363564850111987, No Iterations 3
[OGL LOG][Proc: 0]: global_index_init: 2.963 [ms]
[OGL LOG][Proc: 0]p_local_coeffs: call_update: 0 [ms]
[OGL LOG][Proc: 0]p_non_local_coeffs: call_update: 0 [ms]
[OGL LOG][Proc: 0]p: update_local_matrix_data: 177.976 [ms]
[OGL LOG][Proc: 0]p: update_non_local_matrix_data: 1.079 [ms]
[OGL LOG][Proc: 0]p_matrix: call_update: 4.974 [ms]
[OGL LOG][Proc: 0]p_rhs: call_update: 11.32 [ms]
[OGL LOG][Preconditioner.H:271] Generate preconditioner GISAI SparsityPower 1
[OGL LOG][Proc: 0]p: init_precond: 557.052 [ms]
[OGL LOG][StoppingCriterion.H:239] Creating stopping criterion with minIter 600 frequency 11
[OGL LOG][Proc: 0]p: generate_solver: 0.017 [ms]
[OGL LOG][Proc: 0]p: solve: 5564.434 [ms]
[OGL LOG][Proc: 0]p: copy_x_back: 12.821 [ms]
[OGL LOG][lduLduBase.H:330] 
Statistics:
	Time per iteration: 5553 [mu s]
	Time per residual norm calculation: 1470.000000 [mu s]
	Time per iteration and DOF: 0.110054 [ns]
	Retrieve results bandwidth 2.637000 [GByte/s]
[OGL LOG][Proc: 0]p: solve_multi_gpu: 6161.271 [ms]
GISAIcudaGKOCG:  Solving for p, Initial residual = 0.999999989337773, Final residual = 0.9999999910440359, No Iterations 1002
time step continuity errors : sum local = 503.0208435205321, global = -0.01400088421182866, cumulative = -0.2726663071077394
smoothSolver:  Solving for nuTilda, Initial residual = 0.1758446489818774, Final residual = 0.01274698752863554, No Iterations 4
ExecutionTime = 1075.94 s  ClockTime = 1078 s

Time = 34

velocityDampingConstraint velocityDamping damped 374748 (0.74%) of cells, with max limit 300
smoothSolver:  Solving for Ux, Initial residual = 0.4800223625551496, Final residual = 0.03202339307509733, No Iterations 5
smoothSolver:  Solving for Uy, Initial residual = 0.4966707302155303, Final residual = 0.02903330539909414, No Iterations 5
smoothSolver:  Solving for Uz, Initial residual = 0.4677410706866372, Final residual = 0.0418922710363499, No Iterations 5
[OGL LOG][Proc: 0]: global_index_init: 3.126 [ms]
[OGL LOG][Proc: 0]p_local_coeffs: call_update: 0 [ms]
[OGL LOG][Proc: 0]p_non_local_coeffs: call_update: 0 [ms]
[OGL LOG][Proc: 0]p: update_local_matrix_data: 177.404 [ms]
[OGL LOG][Proc: 0]p: update_non_local_matrix_data: 1.178 [ms]
[OGL LOG][Proc: 0]p_matrix: call_update: 4.814 [ms]
[OGL LOG][Proc: 0]p_rhs: call_update: 11.507 [ms]
[OGL LOG][Preconditioner.H:271] Generate preconditioner GISAI SparsityPower 1
[OGL LOG][Proc: 0]p: init_precond: 540.683 [ms]
[OGL LOG][StoppingCriterion.H:239] Creating stopping criterion with minIter 601 frequency 11
[OGL LOG][Proc: 0]p: generate_solver: 0.019 [ms]
[OGL LOG][Proc: 0]p: solve: 5571.967 [ms]
[OGL LOG][Proc: 0]p: copy_x_back: 13.094 [ms]
[OGL LOG][lduLduBase.H:330] 
Statistics:
	Time per iteration: 5560 [mu s]
	Time per residual norm calculation: 1317.000000 [mu s]
	Time per iteration and DOF: 0.110193 [ns]
	Retrieve results bandwidth 2.582000 [GByte/s]
[OGL LOG][Proc: 0]p: solve_multi_gpu: 6151.18 [ms]
GISAIcudaGKOCG:  Solving for p, Initial residual = 0.9999999967067142, Final residual = 0.9999999974279993, No Iterations 1002
time step continuity errors : sum local = 1804.90242042589, global = -0.01430226852814501, cumulative = -0.2869685756358845
smoothSolver:  Solving for nuTilda, Initial residual = 0.1501954987065017, Final residual = 0.004937690351105768, No Iterations 1
ExecutionTime = 1101.64 s  ClockTime = 1104 s

Time = 35

velocityDampingConstraint velocityDamping damped 381536 (0.76%) of cells, with max limit 300
smoothSolver:  Solving for Ux, Initial residual = 0.5914732765735629, Final residual = 0.0001886361102619106, No Iterations 1
[...]
smoothSolver:  Solving for Uz, Initial residual = 0.6189907497712096, Final residual = 0.000727503292678367, No Iterations 3
[OGL LOG][Proc: 0]: global_index_init: 2.72 [ms]
[OGL LOG][Proc: 0]p_local_coeffs: call_update: 0 [ms]
[OGL LOG][Proc: 0]p_non_local_coeffs: call_update: 0 [ms]
[OGL LOG][Proc: 0]p: update_local_matrix_data: 176.284 [ms]
[OGL LOG][Proc: 0]p: update_non_local_matrix_data: 1.045 [ms]
[OGL LOG][Proc: 0]p_matrix: call_update: 5.137 [ms]
[OGL LOG][Proc: 0]p_rhs: call_update: 11.23 [ms]
[OGL LOG][Preconditioner.H:271] Generate preconditioner GISAI SparsityPower 1
[OGL LOG][Proc: 0]p: init_precond: 541.547 [ms]
[OGL LOG][StoppingCriterion.H:239] Creating stopping criterion with minIter 0 frequency 1
[OGL LOG][Proc: 0]p: generate_solver: 0.019 [ms]
[OGL LOG][Proc: 0]p: solve: 203.416 [ms]
[OGL LOG][Proc: 0]p: copy_x_back: 12.823 [ms]
[OGL LOG][lduLduBase.H:330] 
Statistics:
	Time per iteration: 203416 [mu s]
	Time per residual norm calculation: 136423.000000 [mu s]
	Time per iteration and DOF: 4.031465 [ns]
	Retrieve results bandwidth 2.637000 [GByte/s]
[OGL LOG][Proc: 0]p: solve_multi_gpu: 785.415 [ms]
GISAIcudaGKOCG:  Solving for p, Initial residual = 4.430541293013922e-08, Final residual = 4.430541293013922e-08, No Iterations 1
time step continuity errors : sum local = 2.892749001219706e+20, global = 529938.3662079582, cumulative = 857592.9377857178
smoothSolver:  Solving for nuTilda, Initial residual = 0.3041951731069391, Final residual = 0.0204067117821179, No Iterations 5
bounding nuTilda, min: -22.59214109311918 max: 4.564549581126544e+21 average: 1268266218975830
ExecutionTime = 2516.52 s  ClockTime = 2522 s

Time = 92

velocityDampingConstraint velocityDamping damped 4116935 (8.16%) of cells, with max limit 300
smoothSolver:  Solving for Ux, Initial residual = 0.6605114503932162, Final residual = 0.04293101598660069, No Iterations 2
smoothSolver:  Solving for Uy, Initial residual = 0.6610263221720398, Final residual = 0.04674344566188931, No Iterations 2
smoothSolver:  Solving for Uz, Initial residual = 0.6601019831262981, Final residual = 0.04351249100292122, No Iterations 2
[OGL LOG][Proc: 0]: global_index_init: 2.922 [ms]
[OGL LOG][Proc: 0]p_local_coeffs: call_update: 0 [ms]
[OGL LOG][Proc: 0]p_non_local_coeffs: call_update: 0 [ms]
[OGL LOG][Proc: 0]p: update_local_matrix_data: 178.6 [ms]
[OGL LOG][Proc: 0]p: update_non_local_matrix_data: 1.109 [ms]
[OGL LOG][Proc: 0]p_matrix: call_update: 4.578 [ms]
[OGL LOG][Proc: 0]p_rhs: call_update: 11.243 [ms]
[OGL LOG][Preconditioner.H:271] Generate preconditioner GISAI SparsityPower 1
[OGL LOG][Proc: 0]p: init_precond: 544.53 [ms]
[OGL LOG][StoppingCriterion.H:239] Creating stopping criterion with minIter 0 frequency 1
[OGL LOG][Proc: 0]p: generate_solver: 0.017 [ms]
[OGL LOG][Proc: 0]p: solve: 6886.992 [ms]
[OGL LOG][Proc: 0]p: copy_x_back: 13.459 [ms]
[OGL LOG][lduLduBase.H:330] 
Statistics:
	Time per iteration: 6880 [mu s]
	Time per residual norm calculation: 1324.000000 [mu s]
	Time per iteration and DOF: 0.136353 [ns]
	Retrieve results bandwidth 2.512000 [GByte/s]
[OGL LOG][Proc: 0]p: solve_multi_gpu: 7471.737 [ms]
GISAIcudaGKOCG:  Solving for p, Initial residual = 3.929726673794515e-07, Final residual = 3.933909558943444e-07, No Iterations 1001
time step continuity errors : sum local = 2.569070444561859e+21, global = 2972825.651975408, cumulative = 3830418.589761126
smoothSolver:  Solving for nuTilda, Initial residual = 0.5821955785286735, Final residual = 0.02933706367875972, No Iterations 2
bounding nuTilda, min: -8283888.215622999 max: 2.643434883979444e+21 average: 2428053578521760
ExecutionTime = 2542.62 s  ClockTime = 2548 s

Time = 93

velocityDampingConstraint velocityDamping damped 4288813 (8.5%) of cells, with max limit 300
smoothSolver:  Solving for Ux, Initial residual = 0.6236563408110697, Final residual = 0.0007012025276718631, No Iterations 3
smoothSolver:  Solving for Uy, Initial residual = 0.6237190303415711, Final residual = 0.0005992541395658097, No Iterations 3
smoothSolver:  Solving for Uz, Initial residual = 0.6237138589048533, Final residual = 0.0006794259689465049, No Iterations 3
[OGL LOG][Proc: 0]: global_index_init: 2.548 [ms]
[OGL LOG][Proc: 0]p_local_coeffs: call_update: 0 [ms]
[OGL LOG][Proc: 0]p_non_local_coeffs: call_update: 0 [ms]
[OGL LOG][Proc: 0]p: update_local_matrix_data: 175.255 [ms]
[OGL LOG][Proc: 0]p: update_non_local_matrix_data: 0.98 [ms]
[OGL LOG][Proc: 0]p_matrix: call_update: 4.919 [ms]
[OGL LOG][Proc: 0]p_rhs: call_update: 11.18 [ms]
[OGL LOG][Preconditioner.H:271] Generate preconditioner GISAI SparsityPower 1
[OGL LOG][Proc: 0]p: init_precond: 560.246 [ms]
[OGL LOG][StoppingCriterion.H:239] Creating stopping criterion with minIter 600 frequency 8
[OGL LOG][Proc: 0]p: generate_solver: 0.021 [ms]
[OGL LOG][Proc: 0]p: solve: 189.408 [ms]
[OGL LOG][Proc: 0]p: copy_x_back: 12.824 [ms]
[OGL LOG][lduLduBase.H:330] 
Statistics:
	Time per iteration: 189408 [mu s]
	Time per residual norm calculation: 136869.000000 [mu s]
	Time per iteration and DOF: 3.753843 [ns]
	Retrieve results bandwidth 2.637000 [GByte/s]
[OGL LOG][Proc: 0]p: solve_multi_gpu: 792.295 [ms]
GISAIcudaGKOCG:  Solving for p, Initial residual = 1.038601414716676e-12, Final residual = 1.038601414716676e-12, No Iterations 1
time step continuity errors : sum local = 2.619362057845887e+21, global = 4368277.854064696, cumulative = 8198696.443825822
smoothSolver:  Solving for nuTilda, Initial residual = 0.260257730877213, Final residual = 0.0126885654276512, No Iterations 6
bounding nuTilda, min: -1499960594578191 max: 7.140688137250067e+22 average: 1.787823264697063e+16
ExecutionTime = 2563.13 s  ClockTime = 2569 s

Time = 94

velocityDampingConstraint velocityDamping damped 4512157 (8.94%) of cells, with max limit 300
smoothSolver:  Solving for Ux, Initial residual = 0.6575893706938187, Final residual = 0.01834525605717264, No Iterations 3
smoothSolver:  Solving for Uy, Initial residual = 0.6586401370255269, Final residual = 0.01603265978655818, No Iterations 3
smoothSolver:  Solving for Uz, Initial residual = 0.6566495527182026, Final residual = 0.01791676010676063, No Iterations 3
[OGL LOG][Proc: 0]: global_index_init: 5.596 [ms]
[OGL LOG][Proc: 0]p_local_coeffs: call_update: 0 [ms]
[OGL LOG][Proc: 0]p_non_local_coeffs: call_update: 0 [ms]
[OGL LOG][Proc: 0]p: update_local_matrix_data: 176.009 [ms]
[OGL LOG][Proc: 0]p: update_non_local_matrix_data: 1.203 [ms]
[OGL LOG][Proc: 0]p_matrix: call_update: 4.927 [ms]
[OGL LOG][Proc: 0]p_rhs: call_update: 11.886 [ms]
[OGL LOG][Preconditioner.H:271] Generate preconditioner GISAI SparsityPower 1
[OGL LOG][Proc: 0]p: init_precond: 558.6660000000001 [ms]
[OGL LOG][StoppingCriterion.H:239] Creating stopping criterion with minIter 0 frequency 1
[OGL LOG][Proc: 0]p: generate_solver: 0.015 [ms]
[OGL LOG][Proc: 0]p: solve: 189.365 [ms]
[OGL LOG][Proc: 0]p: copy_x_back: 12.918 [ms]
[OGL LOG][lduLduBase.H:330] 
Statistics:
	Time per iteration: 189365 [mu s]
	Time per residual norm calculation: 136255.000000 [mu s]
	Time per iteration and DOF: 3.752991 [ns]
	Retrieve results bandwidth 2.618000 [GByte/s]
[OGL LOG][Proc: 0]p: solve_multi_gpu: 788.073 [ms]
GISAIcudaGKOCG:  Solving for p, Initial residual = 4.039900968855353e-11, Final residual = 4.039900968855353e-11, No Iterations 1
time step continuity errors : sum local = 1.019070025512688e+23, global = 98271621.12733537, cumulative = 106470317.5711612
smoothSolver:  Solving for nuTilda, Initial residual = 0.5945520999605202, Final residual = 0.0301792132213954, No Iterations 2
bounding nuTilda, min: -7916439549276.008 max: 4.07711860211257e+22 average: 3.427807935329275e+16
ExecutionTime = 2582.91 s  ClockTime = 2589 s

Time = 95

velocityDampingConstraint velocityDamping damped 4759645 (9.43%) of cells, with max limit 300
smoothSolver:  Solving for Ux, Initial residual = 0.618233545431827, Final residual = 0.001814080616902511, No Iterations 3
smoothSolver:  Solving for Uy, Initial residual = 0.6189293070515507, Final residual = 0.001469639867865437, No Iterations 3
smoothSolver:  Solving for Uz, Initial residual = 0.6183089423288223, Final residual = 0.001789104884835984, No Iterations 3
[OGL LOG][Proc: 0]: global_index_init: 3.157 [ms]
[OGL LOG][Proc: 0]p_local_coeffs: call_update: 0 [ms]
[OGL LOG][Proc: 0]p_non_local_coeffs: call_update: 0 [ms]
[OGL LOG][Proc: 0]p: update_local_matrix_data: 176.107 [ms]
[OGL LOG][Proc: 0]p: update_non_local_matrix_data: 1.058 [ms]
[OGL LOG][Proc: 0]p_matrix: call_update: 4.638 [ms]
[OGL LOG][Proc: 0]p_rhs: call_update: 11.513 [ms]
[OGL LOG][Preconditioner.H:271] Generate preconditioner GISAI SparsityPower 1
[OGL LOG][Proc: 0]p: init_precond: 522.847 [ms]
[OGL LOG][StoppingCriterion.H:239] Creating stopping criterion with minIter 0 frequency 1
[OGL LOG][Proc: 0]p: generate_solver: 0.021 [ms]
[OGL LOG][Proc: 0]p: solve: 210.905 [ms]
[OGL LOG][Proc: 0]p: copy_x_back: 12.904 [ms]
[OGL LOG][lduLduBase.H:330] 
Statistics:
	Time per iteration: 210905 [mu s]
	Time per residual norm calculation: 136263.000000 [mu s]
	Time per iteration and DOF: 4.179888 [ns]
	Retrieve results bandwidth 2.621000 [GByte/s]
[OGL LOG][Proc: 0]p: solve_multi_gpu: 770.671 [ms]
GISAIcudaGKOCG:  Solving for p, Initial residual = 4.117918860256485e-11, Final residual = 4.117918860256485e-11, No Iterations 1
time step continuity errors : sum local = 1.038515414075209e+23, global = 272547293.8070328, cumulative = 379017611.378194
smoothSolver:  Solving for nuTilda, Initial residual = 0.2836545785194665, Final residual = 0.02090471824162276, No Iterations 5
bounding nuTilda, min: -72567053700868.03 max: 5.148998331152023e+23 average: 1.579265559690995e+17
ExecutionTime = 2603.05 s  ClockTime = 2609 s

Time = 96

velocityDampingConstraint velocityDamping damped 5023458 (9.960000000000001%) of cells, with max limit 300
smoothSolver:  Solving for Ux, Initial residual = 0.6625904354400091, Final residual = 0.01996427875427781, No Iterations 2
smoothSolver:  Solving for Uy, Initial residual = 0.662321631634502, Final residual = 0.026603401857269, No Iterations 2
smoothSolver:  Solving for Uz, Initial residual = 0.6625106290513493, Final residual = 0.02043550303675696, No Iterations 2
[OGL LOG][Proc: 0]: global_index_init: 2.869 [ms]
[OGL LOG][Proc: 0]p_local_coeffs: call_update: 0 [ms]
[OGL LOG][Proc: 0]p_non_local_coeffs: call_update: 0 [ms]
[OGL LOG][Proc: 0]p: update_local_matrix_data: 181.143 [ms]
[OGL LOG][Proc: 0]p: update_non_local_matrix_data: 1.157 [ms]
[OGL LOG][Proc: 0]p_matrix: call_update: 5.095 [ms]
[OGL LOG][Proc: 0]p_rhs: call_update: 11.108 [ms]
[OGL LOG][Preconditioner.H:271] Generate preconditioner GISAI SparsityPower 1
[OGL LOG][Proc: 0]p: init_precond: 529.364 [ms]
[OGL LOG][StoppingCriterion.H:239] Creating stopping criterion with minIter 0 frequency 1
[OGL LOG][Proc: 0]p: generate_solver: 0.015 [ms]
[OGL LOG][Proc: 0]p: solve: 213.929 [ms]
[OGL LOG][Proc: 0]p: copy_x_back: 12.442 [ms]
[OGL LOG][lduLduBase.H:330] 
Statistics:
	Time per iteration: 213929 [mu s]
	Time per residual norm calculation: 136612.000000 [mu s]
	Time per iteration and DOF: 4.239821 [ns]
	Retrieve results bandwidth 2.718000 [GByte/s]
[OGL LOG][Proc: 0]p: solve_multi_gpu: 779.191 [ms]
GISAIcudaGKOCG:  Solving for p, Initial residual = 2.414273663787922e-10, Final residual = 2.414273663787922e-10, No Iterations 1
time step continuity errors : sum local = 6.089497451891461e+23, global = 696404980.3619206, cumulative = 1075422591.740115
smoothSolver:  Solving for nuTilda, Initial residual = 0.5788859619147406, Final residual = 0.04423635951707048, No Iterations 2
bounding nuTilda, min: -1896134236145.104 max: 8.013753589957245e+23 average: 3.891199111104424e+17
ExecutionTime = 2622.61 s  ClockTime = 2629 s

Time = 97

velocityDampingConstraint velocityDamping damped 5264383 (10.43%) of cells, with max limit 300
smoothSolver:  Solving for Ux, Initial residual = 0.6333354978780575, Final residual = 0.003429468263449639, No Iterations 3
smoothSolver:  Solving for Uy, Initial residual = 0.6277116446769401, Final residual = 0.001758460713180693, No Iterations 3
smoothSolver:  Solving for Uz, Initial residual = 0.6326818866505458, Final residual = 0.003226031595781683, No Iterations 3
[OGL LOG][Proc: 0]: global_index_init: 2.985 [ms]
[OGL LOG][Proc: 0]p_local_coeffs: call_update: 0 [ms]
[OGL LOG][Proc: 0]p_non_local_coeffs: call_update: 0 [ms]
[OGL LOG][Proc: 0]p: update_local_matrix_data: 176.344 [ms]
[OGL LOG][Proc: 0]p: update_non_local_matrix_data: 1.049 [ms]
[OGL LOG][Proc: 0]p_matrix: call_update: 5.076 [ms]
[OGL LOG][Proc: 0]p_rhs: call_update: 11.216 [ms]
[OGL LOG][Preconditioner.H:271] Generate preconditioner GISAI SparsityPower 1
[OGL LOG][Proc: 0]p: init_precond: 532.439 [ms]
[OGL LOG][StoppingCriterion.H:239] Creating stopping criterion with minIter 0 frequency 1
[OGL LOG][Proc: 0]p: generate_solver: 0.014 [ms]
[OGL LOG][Proc: 0]p: solve: 200.293 [ms]
[OGL LOG][Proc: 0]p: copy_x_back: 12.381 [ms]
[OGL LOG][lduLduBase.H:330] 
Statistics:
	Time per iteration: 200293 [mu s]
	Time per residual norm calculation: 136834.000000 [mu s]
	Time per iteration and DOF: 3.969571 [ns]
	Retrieve results bandwidth 2.731000 [GByte/s]
[OGL LOG][Proc: 0]p: solve_multi_gpu: 769.943 [ms]
GISAIcudaGKOCG:  Solving for p, Initial residual = 2.508727480723772e-10, Final residual = 2.508727480723772e-10, No Iterations 1
time step continuity errors : sum local = 6.326003621481286e+23, global = 930023476.5620812, cumulative = 2005446068.302196
smoothSolver:  Solving for nuTilda, Initial residual = 0.3171941938686468, Final residual = 0.02778678213149786, No Iterations 6
bounding nuTilda, min: -5585181.42474042 max: 9.13653598963169e+24 average: 2.772987990236599e+18
ExecutionTime = 2642.93 s  ClockTime = 2649 s

Time = 98

velocityDampingConstraint velocityDamping damped 5562597 (11.02%) of cells, with max limit 300
smoothSolver:  Solving for Ux, Initial residual = 0.6452339669759561, Final residual = 0.04640578485301332, No Iterations 2
smoothSolver:  Solving for Uy, Initial residual = 0.6529161906743574, Final residual = 0.01431463630476965, No Iterations 3
smoothSolver:  Solving for Uz, Initial residual = 0.6458832399512261, Final residual = 0.04963821347466005, No Iterations 2
[OGL LOG][Proc: 0]: global_index_init: 3.124 [ms]
[OGL LOG][Proc: 0]p_local_coeffs: call_update: 0 [ms]
[OGL LOG][Proc: 0]p_non_local_coeffs: call_update: 0 [ms]
[OGL LOG][Proc: 0]p: update_local_matrix_data: 175.894 [ms]
[OGL LOG][Proc: 0]p: update_non_local_matrix_data: 1.088 [ms]
[OGL LOG][Proc: 0]p_matrix: call_update: 5.039 [ms]
[OGL LOG][Proc: 0]p_rhs: call_update: 20.38 [ms]
[OGL LOG][Preconditioner.H:271] Generate preconditioner GISAI SparsityPower 1
[OGL LOG][Proc: 0]p: init_precond: 548.087 [ms]
[OGL LOG][StoppingCriterion.H:239] Creating stopping criterion with minIter 0 frequency 1
[OGL LOG][Proc: 0]p: generate_solver: 0.02 [ms]
[OGL LOG][Proc: 0]p: solve: 192.537 [ms]
[OGL LOG][Proc: 0]p: copy_x_back: 12.386 [ms]
[OGL LOG][lduLduBase.H:330] 
Statistics:
	Time per iteration: 192537 [mu s]
	Time per residual norm calculation: 137131.000000 [mu s]
	Time per iteration and DOF: 3.815856 [ns]
	Retrieve results bandwidth 2.730000 [GByte/s]
[OGL LOG][Proc: 0]p: solve_multi_gpu: 790.9349999999999 [ms]
GISAIcudaGKOCG:  Solving for p, Initial residual = 2.318052039154314e-09, Final residual = 2.318052039154314e-09, No Iterations 1
time step continuity errors : sum local = 5.845241007203233e+24, global = 5041429288.637578, cumulative = 7046875356.939774
smoothSolver:  Solving for nuTilda, Initial residual = 0.5878564683993325, Final residual = 0.02935636962798763, No Iterations 2
bounding nuTilda, min: -14183998700.52473 max: 5.213093955653628e+24 average: 5.908099931584985e+18
ExecutionTime = 2662.5 s  ClockTime = 2669 s

Time = 99

velocityDampingConstraint velocityDamping damped 5845712 (11.59%) of cells, with max limit 300
smoothSolver:  Solving for Ux, Initial residual = 0.6225966005800322, Final residual = 0.0006545640470357145, No Iterations 3
smoothSolver:  Solving for Uy, Initial residual = 0.6203011061939014, Final residual = 0.0005772480399937939, No Iterations 3
smoothSolver:  Solving for Uz, Initial residual = 0.6225050976661374, Final residual = 0.0006389362207871095, No Iterations 3
[OGL LOG][Proc: 0]: global_index_init: 2.868 [ms]
[OGL LOG][Proc: 0]p_local_coeffs: call_update: 0 [ms]
[OGL LOG][Proc: 0]p_non_local_coeffs: call_update: 0 [ms]
[OGL LOG][Proc: 0]p: update_local_matrix_data: 175.957 [ms]
[OGL LOG][Proc: 0]p: update_non_local_matrix_data: 1.195 [ms]
[OGL LOG][Proc: 0]p_matrix: call_update: 4.788 [ms]
[OGL LOG][Proc: 0]p_rhs: call_update: 11.097 [ms]
[OGL LOG][Preconditioner.H:271] Generate preconditioner GISAI SparsityPower 1
[OGL LOG][Proc: 0]p: init_precond: 555.884 [ms]
[OGL LOG][StoppingCriterion.H:239] Creating stopping criterion with minIter 0 frequency 1
[OGL LOG][Proc: 0]p: generate_solver: 0.015 [ms]
[OGL LOG][Proc: 0]p: solve: 193.163 [ms]
[OGL LOG][Proc: 0]p: copy_x_back: 12.543 [ms]
[OGL LOG][lduLduBase.H:330] 
Statistics:
	Time per iteration: 193163 [mu s]
	Time per residual norm calculation: 136526.000000 [mu s]
	Time per iteration and DOF: 3.828263 [ns]
	Retrieve results bandwidth 2.696000 [GByte/s]
[OGL LOG][Proc: 0]p: solve_multi_gpu: 788.564 [ms]
GISAIcudaGKOCG:  Solving for p, Initial residual = 2.38534530884834e-09, Final residual = 2.38534530884834e-09, No Iterations 1
time step continuity errors : sum local = 6.012743288617857e+24, global = 9978591457.581482, cumulative = 17025466814.52126
smoothSolver:  Solving for nuTilda, Initial residual = 0.2967058774331374, Final residual = 0.02049690339138346, No Iterations 5
bounding nuTilda, min: -5276924.685945398 max: 7.617285734759814e+25 average: 2.589075459046258e+19
ExecutionTime = 2682.66 s  ClockTime = 2689 s

Time = 100

velocityDampingConstraint velocityDamping damped 6163706 (12.22%) of cells, with max limit 300
smoothSolver:  Solving for Ux, Initial residual = 0.6607819165668541, Final residual = 0.04252600251622284, No Iterations 2
smoothSolver:  Solving for Uy, Initial residual = 0.6609030966457728, Final residual = 0.04967431182466037, No Iterations 2
smoothSolver:  Solving for Uz, Initial residual = 0.6604663224337987, Final residual = 0.04346580723927811, No Iterations 2
[OGL LOG][Proc: 0]: global_index_init: 3.046 [ms]
[OGL LOG][Proc: 0]p_local_coeffs: call_update: 0 [ms]
[OGL LOG][Proc: 0]p_non_local_coeffs: call_update: 0 [ms]
[OGL LOG][Proc: 0]p: update_local_matrix_data: 175.939 [ms]
[OGL LOG][Proc: 0]p: update_non_local_matrix_data: 1.085 [ms]
[OGL LOG][Proc: 0]p_matrix: call_update: 4.653 [ms]
[OGL LOG][Proc: 0]p_rhs: call_update: 11.128 [ms]
[OGL LOG][Preconditioner.H:271] Generate preconditioner GISAI SparsityPower 1
[OGL LOG][Proc: 0]p: init_precond: 553.845 [ms]
[OGL LOG][StoppingCriterion.H:239] Creating stopping criterion with minIter 0 frequency 1
[OGL LOG][Proc: 0]p: generate_solver: 0.019 [ms]
[OGL LOG][Proc: 0]p: solve: 192.885 [ms]
[OGL LOG][Proc: 0]p: copy_x_back: 12.446 [ms]
[OGL LOG][lduLduBase.H:330] 
Statistics:
	Time per iteration: 192885 [mu s]
	Time per residual norm calculation: 137159.000000 [mu s]
	Time per iteration and DOF: 3.822753 [ns]
	Retrieve results bandwidth 2.717000 [GByte/s]
[OGL LOG][Proc: 0]p: solve_multi_gpu: 785.593 [ms]
GISAIcudaGKOCG:  Solving for p, Initial residual = 2.320757447852505e-08, Final residual = 2.320757447852505e-08, No Iterations 1
time step continuity errors : sum local = 5.848670328070943e+25, global = 38111781175.13496, cumulative = 55137247989.65621
smoothSolver:  Solving for nuTilda, Initial residual = 0.5824963068936568, Final residual = 0.02921194153942017, No Iterations 2
bounding nuTilda, min: -1.110213685166991e+16 max: 4.407642496739381e+25 average: 4.862180801321532e+19
ExecutionTime = 2702.17 s  ClockTime = 2708 s

End

Finalising parallel run
