/*---------------------------------------------------------------------------*\
| =========                 |                                                 |
| \\      /  F ield         | OpenFOAM: The Open Source CFD Toolbox           |
|  \\    /   O peration     | Version:  2306                                  |
|   \\  /    A nd           | Website:  www.openfoam.com                      |
|    \\/     M anipulation  |                                                 |
\*---------------------------------------------------------------------------*/
Build  : a6e826bd55-20230630 OPENFOAM=2306 version=v2306
Arch   : "LSB;label=32;scalar=64"
Exec   : simpleFoam -parallel -case /home/greole/data/code/exasim_project/micro_benchmarks/WindsorBody/workspace/514b8559d30401569f0ec29796048a94/case
Date   : Aug 27 2023
Time   : 10:01:19
Host   : nla-gpu2.ianm.kit.edu
PID    : 3053172
I/O    : uncollated
Case   : /home/greole/data/code/exasim_project/micro_benchmarks/WindsorBody/workspace/514b8559d30401569f0ec29796048a94/case
nProcs : 32
Hosts  :
(
    (nla-gpu2.ianm.kit.edu 32)
)
Pstream initialized with:
    floatTransfer      : false
    nProcsSimpleSum    : 0
    nonBlockingExchange: 0 (tuning: 0)
    exchange algorithm : -1
    commsType          : nonBlocking
    polling iterations : 0
trapFpe: Floating point exception trapping enabled (FOAM_SIGFPE).
fileModificationChecking : Monitoring run-time modified files using timeStampMaster (fileModificationSkew 5, maxFileModificationPolls 20)
allowSystemOperations : Allowing user-supplied system call operations

// * * * * * * * * * * * * * * * * * * * * * * * * * * * * * * * * * * * * * //
Create time

--> FOAM Warning : 
    From void* Foam::dlLibraryTable::openLibrary(const Foam::fileName&, bool)
    in file db/dynamicLibrary/dlLibraryTable/dlLibraryTable.C at line 188
    Could not load "libpetscFoam.so"
libpetscFoam.so: cannot open shared object file: No such file or directory
Create mesh for time = 0


SIMPLE: convergence criteria
    field p	 tolerance 1e-08
    field U	 tolerance 1e-08
    field k	 tolerance 1e-08
    field omega	 tolerance 1e-08
    field nuTilda	 tolerance 1e-08

Reading field p

Reading field U

Reading/calculating face flux field phi

Selecting incompressible transport model Newtonian
Selecting turbulence model type RAS
Selecting RAS turbulence model SpalartAllmaras
Selecting patchDistMethod meshWave
ft2 term: inactive
RAS
{
    RASModel        SpalartAllmaras;
    turbulence      on;
    printCoeffs     on;
    sigmaNut        0.66666;
    kappa           0.41;
    Cb1             0.1355;
    Cb2             0.622;
    Cw2             0.3;
    Cw3             2;
    Cv1             7.1;
    Cs              0.3;
    ck              0.07000000000000001;
    ft2             false;
    Ct3             1.2;
    Ct4             0.5;
}

No MRF models present

Creating finite volume options from "system/fvOptions"

Selecting finite volume options type velocityDampingConstraint
    Source: velocityDamping
    - selecting all cells
    - selected 6307136 cell(s) with volume 27.82583051608611

Starting time loop

--> FOAM Warning : 
    From bool Foam::functionObjectList::read()
    in file db/functionObjects/functionObjectList/functionObjectList.C at line 1035
    Reading "system/controlDict" at line 2 to 41
    Entry 'lref' is not a dictionary
--> FOAM Warning : 
    From bool Foam::functionObjectList::read()
    in file db/functionObjects/functionObjectList/functionObjectList.C at line 1035
    Reading "system/controlDict" at line 2 to 41
    Entry 'Aref' is not a dictionary
--> FOAM Warning : 
    From bool Foam::functionObjectList::read()
    in file db/functionObjects/functionObjectList/functionObjectList.C at line 1035
    Reading "system/controlDict" at line 2 to 41
    Entry 'yawAngle' is not a dictionary
--> FOAM Warning : 
    From bool Foam::functionObjectList::read()
    in file db/functionObjects/functionObjectList/functionObjectList.C at line 1035
    Reading "system/controlDict" at line 2 to 41
    Entry 'lDomain' is not a dictionary
--> FOAM Warning : 
    From bool Foam::functionObjectList::read()
    in file db/functionObjects/functionObjectList/functionObjectList.C at line 1035
    Reading "system/controlDict" at line 2 to 41
    Entry 'bDomain' is not a dictionary
--> FOAM Warning : 
    From bool Foam::functionObjectList::read()
    in file db/functionObjects/functionObjectList/functionObjectList.C at line 1035
    Reading "system/controlDict" at line 2 to 41
    Entry 'hDomain' is not a dictionary
--> FOAM Warning : 
    From bool Foam::functionObjectList::read()
    in file db/functionObjects/functionObjectList/functionObjectList.C at line 1035
    Reading "system/controlDict" at line 2 to 41
    Entry 'xCenter' is not a dictionary
--> FOAM Warning : 
    From bool Foam::functionObjectList::read()
    in file db/functionObjects/functionObjectList/functionObjectList.C at line 1035
    Reading "system/controlDict" at line 2 to 41
    Entry 'yCenter' is not a dictionary
--> FOAM Warning : 
    From bool Foam::functionObjectList::read()
    in file db/functionObjects/functionObjectList/functionObjectList.C at line 1035
    Reading "system/controlDict" at line 2 to 41
    Entry 'zCenter' is not a dictionary
--> FOAM Warning : 
    From bool Foam::functionObjectList::read()
    in file db/functionObjects/functionObjectList/functionObjectList.C at line 1035
    Reading "system/controlDict" at line 2 to 41
    Entry 'inletPatch' is not a dictionary
--> FOAM Warning : 
    From bool Foam::functionObjectList::read()
    in file db/functionObjects/functionObjectList/functionObjectList.C at line 1035
    Reading "system/controlDict" at line 2 to 41
    Entry 'outletPatch' is not a dictionary
--> FOAM Warning : 
    From bool Foam::functionObjectList::read()
    in file db/functionObjects/functionObjectList/functionObjectList.C at line 1035
    Reading "system/controlDict" at line 2 to 41
    Entry 'wallPatches' is not a dictionary
--> FOAM Warning : 
    From bool Foam::functionObjectList::read()
    in file db/functionObjects/functionObjectList/functionObjectList.C at line 1035
    Reading "system/controlDict" at line 2 to 41
    Entry 'forcesWallPatches' is not a dictionary
--> FOAM Warning : 
    From bool Foam::functionObjectList::read()
    in file db/functionObjects/functionObjectList/functionObjectList.C at line 1035
    Reading "system/controlDict" at line 2 to 41
    Entry 'symmPatches' is not a dictionary
--> FOAM Warning : 
    From bool Foam::functionObjectList::read()
    in file db/functionObjects/functionObjectList/functionObjectList.C at line 1035
    Reading "system/controlDict" at line 2 to 41
    Entry 'Uinf' is not a dictionary
--> FOAM Warning : 
    From bool Foam::functionObjectList::read()
    in file db/functionObjects/functionObjectList/functionObjectList.C at line 1035
    Reading "system/controlDict" at line 2 to 41
    Entry 'UinfMag' is not a dictionary
--> FOAM Warning : 
    From bool Foam::functionObjectList::read()
    in file db/functionObjects/functionObjectList/functionObjectList.C at line 1035
    Reading "system/controlDict" at line 2 to 41
    Entry 'nu' is not a dictionary
--> FOAM Warning : 
    From bool Foam::functionObjectList::read()
    in file db/functionObjects/functionObjectList/functionObjectList.C at line 1035
    Reading "system/controlDict" at line 2 to 41
    Entry 'pref' is not a dictionary
--> FOAM Warning : 
    From bool Foam::functionObjectList::read()
    in file db/functionObjects/functionObjectList/functionObjectList.C at line 1035
    Reading "system/controlDict" at line 2 to 41
    Entry 'viscRatio' is not a dictionary
--> FOAM Warning : 
    From bool Foam::functionObjectList::read()
    in file db/functionObjects/functionObjectList/functionObjectList.C at line 1035
    Reading "system/controlDict" at line 2 to 41
    Entry 'Tu' is not a dictionary
--> FOAM Warning : 
    From bool Foam::functionObjectList::read()
    in file db/functionObjects/functionObjectList/functionObjectList.C at line 1035
    Reading "system/controlDict" at line 2 to 41
    Entry 'LESturbModel' is not a dictionary
--> FOAM Warning : 
    From bool Foam::functionObjectList::read()
    in file db/functionObjects/functionObjectList/functionObjectList.C at line 1035
    Reading "system/controlDict" at line 2 to 41
    Entry 'RASturbModel' is not a dictionary
--> FOAM Warning : 
    From bool Foam::functionObjectList::read()
    in file db/functionObjects/functionObjectList/functionObjectList.C at line 1035
    Reading "system/controlDict" at line 2 to 41
    Entry 'deltaTurb' is not a dictionary
--> FOAM Warning : 
    From bool Foam::functionObjectList::read()
    in file db/functionObjects/functionObjectList/functionObjectList.C at line 1035
    Reading "system/controlDict" at line 2 to 41
    Entry 'dt' is not a dictionary
--> FOAM Warning : 
    From bool Foam::functionObjectList::read()
    in file db/functionObjects/functionObjectList/functionObjectList.C at line 1035
    Reading "system/controlDict" at line 2 to 41
    Entry 'tAvg' is not a dictionary
--> FOAM Warning : 
    From bool Foam::functionObjectList::read()
    in file db/functionObjects/functionObjectList/functionObjectList.C at line 1035
    Reading "system/controlDict" at line 2 to 41
    Entry 'tEnd' is not a dictionary
--> FOAM Warning : 
    From bool Foam::functionObjectList::read()
    in file db/functionObjects/functionObjectList/functionObjectList.C at line 1035
    Reading "system/controlDict" at line 2 to 41
    Entry 'writeInterval_' is not a dictionary
--> FOAM Warning : 
    From bool Foam::functionObjectList::read()
    in file db/functionObjects/functionObjectList/functionObjectList.C at line 1035
    Reading "system/controlDict" at line 2 to 41
    Entry 'nCores' is not a dictionary
--> FOAM Warning : 
    From bool Foam::functionObjectList::read()
    in file db/functionObjects/functionObjectList/functionObjectList.C at line 1035
    Reading "system/controlDict" at line 2 to 41
    Entry 'interpScheme' is not a dictionary
--> FOAM Warning : 
    From bool Foam::functionObjectList::read()
    in file db/functionObjects/functionObjectList/functionObjectList.C at line 1035
    Reading "system/controlDict" at line 2 to 41
    Entry 'probeField' is not a dictionary
wallShearStress wallShearStress:
    processing wall patches: 
        Windsor_Body
        CFDWT_Floor
        Windsor_Pins
        Windsor_Base

pressure calc_cp:
    Operating mode: staticCoeff
    Not including hydrostatic effects

forceCoeffs forceCoeffsAll:
    rho: rhoInf
    Freestream density (rhoInf) set to 1
    Not including porosity effects
    magUInf: 40
    lRef   : 0.6375
    Aref   : 0.1124
    rhoInf : 1
    Selecting all coefficients
    - Drag force: Cd
    - Drag force front: Cd(f)
    - Drag force rear: Cd(r)
    - Lift force: Cl
    - Lift force front: Cl(f)
    - Lift force rear: Cl(r)
    - Pitch moment: CmPitch
    - Roll moment: CmRoll
    - Yaw moment: CmYaw
    - Side force: Cs
    - Side force front: Cs(f)
    - Side force rear: Cs(r)


forceCoeffs dragCoeffBase:
    rho: rhoInf
    Freestream density (rhoInf) set to 1
    Not including porosity effects
    magUInf: 40
    lRef   : 0.6375
    Aref   : 0.1124
    rhoInf : 1
    Selecting coefficients:
    - Drag force: Cd


Time = 1

velocityDampingConstraint velocityDamping damped 0 (0%) of cells, with max limit 300
[INFO] MatrixAssemblyU: 486.653 [ms]
[OGL LOG][lduLduBase.H:119] Initialising OGL
	OGL commit:  4647ee1+
	Branch: PersistentDeviceIdGuard 
	Build type: Release
	Ginkgo version: 1.5.0 ( develop)
	Ginkgo commit: 4292ffdee
	MPI is GPU aware: 1
	Forces host buffer based communication: 0
	CPU ranks per GPU: 1
	Matrix format: Coo
	End OGL_INFO
[OGL LOG][Proc: 0]: global_index_init: 10.638 [ms]
[OGL LOG][Proc: 0]Ux_local_cols: call_init: 0.029 [ms]
[OGL LOG][Proc: 0]Ux_local_rows: call_init: 0.003 [ms]
[OGL LOG][Proc: 0]Ux_local_ldu_map: call_init: 0.003 [ms]
[OGL LOG][Proc: 0]Ux_local_coeffs: call_init: 0.005 [ms]
[OGL LOG][Proc: 0]Ux_non_local_cols: call_init: 0.003 [ms]
[OGL LOG][Proc: 0]Ux_non_local_rows: call_init: 0.003 [ms]
[OGL LOG][Proc: 0]Ux_non_local_ldu_map: call_init: 0.003 [ms]
[OGL LOG][Proc: 0]Ux_non_local_coeffs: call_init: 0.002 [ms]
[OGL LOG][Proc: 0]Ux: init_local_sparsity_pattern: 63.804 [ms]
[OGL LOG][Proc: 0]Ux: init_non_local_sparsity_pattern: 1.072 [ms]
[OGL LOG][Proc: 0]Ux: update_local_matrix_data: 10.941 [ms]
[OGL LOG][Proc: 0]Ux: update_non_local_matrix_data: 0.119 [ms]
[OGL LOG][Proc: 0]device_partition: call_init: 5.433 [ms]
[OGL LOG][Proc: 0]Ux_matrix: call_init: 100.525 [ms]
[OGL LOG][Proc: 0]Ux_rhs: call_init: 3.664 [ms]
[OGL LOG][Proc: 0]Ux_solution: call_init: 5.094 [ms]
[OGL LOG][Preconditioner.H:121] Generate preconditioner BJ MaxBlockSize 1
[OGL LOG][Proc: 0]Ux: init_precond: 7.017 [ms]
[OGL LOG][StoppingCriterion.H:373] Creating stopping criterion with minIter 0 frequency 1
[OGL LOG][Proc: 0]Ux: generate_solver: 0.02 [ms]
[OGL LOG][Proc: 0]Ux: solve: 2212.274 [ms]
[OGL LOG][Proc: 0]Ux: copy_x_back: 1.11 [ms]
[OGL LOG][lduLduBase.H:336] 
Statistics:
	Time per iteration: 92178 [mu s]
	Time per residual norm calculation: 1667.000000 [mu s]
	Time per iteration and DOF: 14.614874 [ns]
	Retrieve results bandwidth 1.878000 [GByte/s]
[OGL LOG][Proc: 0]Ux: solve_multi_gpu: 2336.104 [ms]
BJhipGKOBiCGStab:  Solving for Ux, Initial residual = 1.000000000000088, Final residual = 0.05874860415270251, No Iterations 24
[OGL LOG][lduLduBase.H:119] Initialising OGL
	OGL commit:  4647ee1+
	Branch: PersistentDeviceIdGuard 
	Build type: Release
	Ginkgo version: 1.5.0 ( develop)
	Ginkgo commit: 4292ffdee
	MPI is GPU aware: 1
	Forces host buffer based communication: 0
	CPU ranks per GPU: 1
	Matrix format: Coo
	End OGL_INFO
[OGL LOG][Proc: 0]: global_index_init: 1.12 [ms]
[OGL LOG][Proc: 0]Uy_local_cols: call_init: 0.005 [ms]
[OGL LOG][Proc: 0]Uy_local_rows: call_init: 0.003 [ms]
[OGL LOG][Proc: 0]Uy_local_ldu_map: call_init: 0.003 [ms]
[OGL LOG][Proc: 0]Uy_local_coeffs: call_init: 0.003 [ms]
[OGL LOG][Proc: 0]Uy_non_local_cols: call_init: 0.003 [ms]
[OGL LOG][Proc: 0]Uy_non_local_rows: call_init: 0.002 [ms]
[OGL LOG][Proc: 0]Uy_non_local_ldu_map: call_init: 0.003 [ms]
[OGL LOG][Proc: 0]Uy_non_local_coeffs: call_init: 0.002 [ms]
[OGL LOG][Proc: 0]Uy: init_local_sparsity_pattern: 69.76300000000001 [ms]
[OGL LOG][Proc: 0]Uy: init_non_local_sparsity_pattern: 0.993 [ms]
[OGL LOG][Proc: 0]Uy: update_local_matrix_data: 10.604 [ms]
[OGL LOG][Proc: 0]Uy: update_non_local_matrix_data: 0.15 [ms]
[OGL LOG][Proc: 0]Uy_matrix: call_init: 51.131 [ms]
[OGL LOG][Proc: 0]Uy_rhs: call_init: 5.117 [ms]
[OGL LOG][Proc: 0]Uy_solution: call_init: 1.359 [ms]
[OGL LOG][Preconditioner.H:121] Generate preconditioner BJ MaxBlockSize 1
[OGL LOG][Proc: 0]Uy: init_precond: 0.358 [ms]
[OGL LOG][StoppingCriterion.H:373] Creating stopping criterion with minIter 0 frequency 1
[OGL LOG][Proc: 0]Uy: generate_solver: 0.001 [ms]
[OGL LOG][Proc: 0]Uy: solve: 185.287 [ms]
[OGL LOG][Proc: 0]Uy: copy_x_back: 1.088 [ms]
[OGL LOG][lduLduBase.H:336] 
Statistics:
	Time per iteration: 3563 [mu s]
	Time per residual norm calculation: 234.000000 [mu s]
	Time per iteration and DOF: 0.564916 [ns]
	Retrieve results bandwidth 1.916000 [GByte/s]
[OGL LOG][Proc: 0]Uy: solve_multi_gpu: 245.158 [ms]
BJhipGKOBiCGStab:  Solving for Uy, Initial residual = 0.999999999999999, Final residual = 0.06026037584427951, No Iterations 52
[OGL LOG][lduLduBase.H:119] Initialising OGL
	OGL commit:  4647ee1+
	Branch: PersistentDeviceIdGuard 
	Build type: Release
	Ginkgo version: 1.5.0 ( develop)
	Ginkgo commit: 4292ffdee
	MPI is GPU aware: 1
	Forces host buffer based communication: 0
	CPU ranks per GPU: 1
	Matrix format: Coo
	End OGL_INFO
[OGL LOG][Proc: 0]: global_index_init: 0.199 [ms]
[OGL LOG][Proc: 0]Uz_local_cols: call_init: 0.006 [ms]
[OGL LOG][Proc: 0]Uz_local_rows: call_init: 0.003 [ms]
[OGL LOG][Proc: 0]Uz_local_ldu_map: call_init: 0.003 [ms]
[OGL LOG][Proc: 0]Uz_local_coeffs: call_init: 0.003 [ms]
[OGL LOG][Proc: 0]Uz_non_local_cols: call_init: 0.003 [ms]
[OGL LOG][Proc: 0]Uz_non_local_rows: call_init: 0.002 [ms]
[OGL LOG][Proc: 0]Uz_non_local_ldu_map: call_init: 0.002 [ms]
[OGL LOG][Proc: 0]Uz_non_local_coeffs: call_init: 0.003 [ms]
[OGL LOG][Proc: 0]Uz: init_local_sparsity_pattern: 63.825 [ms]
[OGL LOG][Proc: 0]Uz: init_non_local_sparsity_pattern: 0.965 [ms]
[OGL LOG][Proc: 0]Uz: update_local_matrix_data: 9.067 [ms]
[OGL LOG][Proc: 0]Uz: update_non_local_matrix_data: 0.109 [ms]
[OGL LOG][Proc: 0]Uz_matrix: call_init: 57.951 [ms]
[OGL LOG][Proc: 0]Uz_rhs: call_init: 3.463 [ms]
[OGL LOG][Proc: 0]Uz_solution: call_init: 0.8110000000000001 [ms]
[OGL LOG][Preconditioner.H:121] Generate preconditioner BJ MaxBlockSize 1
[OGL LOG][Proc: 0]Uz: init_precond: 0.296 [ms]
[OGL LOG][StoppingCriterion.H:373] Creating stopping criterion with minIter 0 frequency 1
[OGL LOG][Proc: 0]Uz: generate_solver: 0.001 [ms]
[OGL LOG][Proc: 0]Uz: solve: 47.046 [ms]
[OGL LOG][Proc: 0]Uz: copy_x_back: 1.079 [ms]
[OGL LOG][lduLduBase.H:336] 
Statistics:
	Time per iteration: 47046 [mu s]
	Time per residual norm calculation: 283.000000 [mu s]
	Time per iteration and DOF: 7.459170 [ns]
	Retrieve results bandwidth 1.932000 [GByte/s]
[OGL LOG][Proc: 0]Uz: solve_multi_gpu: 111.254 [ms]
BJhipGKOBiCGStab:  Solving for Uz, Initial residual = 1.000000000000014, Final residual = 0.09952964467305336, No Iterations 1
[INFO] MomentumPredictor: 3328.169 [ms]
[INFO] MatrixAssemblyPI: 79.578 [ms]
[INFO] MatrixAssemblyPII: 37.004 [ms]
DICPCG:  Solving for p, Initial residual = 1, Final residual = 0.009669022494753571, No Iterations 425
[INFO] SolveP: 4089.797 [ms]
time step continuity errors : sum local = 0.003551334010165259, global = 7.316115747215898e-05, cumulative = 7.316115747215898e-05
[INFO] postSolveP: 21.557 [ms]
[OGL LOG][lduLduBase.H:119] Initialising OGL
	OGL commit:  4647ee1+
	Branch: PersistentDeviceIdGuard 
	Build type: Release
	Ginkgo version: 1.5.0 ( develop)
	Ginkgo commit: 4292ffdee
	MPI is GPU aware: 1
	Forces host buffer based communication: 0
	CPU ranks per GPU: 1
	Matrix format: Coo
	End OGL_INFO
[OGL LOG][Proc: 0]: global_index_init: 5.14 [ms]
[OGL LOG][Proc: 0]nuTilda_local_cols: call_init: 0.007 [ms]
[OGL LOG][Proc: 0]nuTilda_local_rows: call_init: 0.003 [ms]
[OGL LOG][Proc: 0]nuTilda_local_ldu_map: call_init: 0.003 [ms]
[OGL LOG][Proc: 0]nuTilda_local_coeffs: call_init: 0.003 [ms]
[OGL LOG][Proc: 0]nuTilda_non_local_cols: call_init: 0.003 [ms]
[OGL LOG][Proc: 0]nuTilda_non_local_rows: call_init: 0.003 [ms]
[OGL LOG][Proc: 0]nuTilda_non_local_ldu_map: call_init: 0.003 [ms]
[OGL LOG][Proc: 0]nuTilda_non_local_coeffs: call_init: 0.003 [ms]
[OGL LOG][Proc: 0]nuTilda: init_local_sparsity_pattern: 63.484 [ms]
[OGL LOG][Proc: 0]nuTilda: init_non_local_sparsity_pattern: 0.981 [ms]
[OGL LOG][Proc: 0]nuTilda: update_local_matrix_data: 10.569 [ms]
[OGL LOG][Proc: 0]nuTilda: update_non_local_matrix_data: 0.143 [ms]
[OGL LOG][Proc: 0]nuTilda_matrix: call_init: 56.597 [ms]
[OGL LOG][Proc: 0]nuTilda_rhs: call_init: 2.937 [ms]
[OGL LOG][Proc: 0]nuTilda_solution: call_init: 3.391 [ms]
[OGL LOG][Preconditioner.H:121] Generate preconditioner BJ MaxBlockSize 1
[OGL LOG][Proc: 0]nuTilda: init_precond: 0.321 [ms]
[OGL LOG][StoppingCriterion.H:373] Creating stopping criterion with minIter 0 frequency 1
[OGL LOG][Proc: 0]nuTilda: generate_solver: 0.001 [ms]
[OGL LOG][Proc: 0]nuTilda: solve: 55.638 [ms]
[OGL LOG][Proc: 0]nuTilda: copy_x_back: 1.088 [ms]
[OGL LOG][lduLduBase.H:336] 
Statistics:
	Time per iteration: 27819 [mu s]
	Time per residual norm calculation: 228.000000 [mu s]
	Time per iteration and DOF: 4.410718 [ns]
	Retrieve results bandwidth 1.916000 [GByte/s]
[OGL LOG][Proc: 0]nuTilda: solve_multi_gpu: 120.478 [ms]
BJhipGKOBiCGStab:  Solving for nuTilda, Initial residual = 0.9999999999983892, Final residual = 0.09384186368441354, No Iterations 2
[INFO] TimeStep: 8496.528 [ms]
ExecutionTime = 14.01 s  ClockTime = 15 s

--> FOAM Warning : 
    From virtual bool Foam::functionObjects::fieldSelection::checkSelection()
    in file functionObjects/fieldSelections/fieldSelection/fieldSelection.C at line 166
    Field k not found
--> FOAM Warning : 
    From virtual bool Foam::functionObjects::fieldSelection::checkSelection()
    in file functionObjects/fieldSelections/fieldSelection/fieldSelection.C at line 166
    Field gammaInt not found
--> FOAM Warning : 
    From virtual bool Foam::functionObjects::fieldSelection::checkSelection()
    in file functionObjects/fieldSelections/fieldSelection/fieldSelection.C at line 166
    Field omega not found
--> FOAM Warning : 
    From virtual bool Foam::functionObjects::fieldSelection::checkSelection()
    in file functionObjects/fieldSelections/fieldSelection/fieldSelection.C at line 166
    Field ReThetat not found
--> FOAM Warning : 
    From virtual bool Foam::functionObjects::fieldSelection::checkSelection()
    in file functionObjects/fieldSelections/fieldSelection/fieldSelection.C at line 166
    Field epsilon not found
--> FOAM Warning : 
    From virtual bool Foam::functionObjects::solverFieldSelection::updateSelection()
    in file functionObjects/fieldSelections/solverFieldSelection/solverFieldSelection.C at line 85
    Valid solver fields are: 3(U nuTilda p)Time = 2

velocityDampingConstraint velocityDamping damped 0 (0%) of cells, with max limit 300
[INFO] MatrixAssemblyU: 439.758 [ms]
[OGL LOG][Proc: 0]: global_index_init: 1.025 [ms]
[OGL LOG][Proc: 0]Ux_local_coeffs: call_update: 0.002 [ms]
[OGL LOG][Proc: 0]Ux_non_local_coeffs: call_update: 0 [ms]
[OGL LOG][Proc: 0]Ux: update_local_matrix_data: 9.806000000000001 [ms]
[OGL LOG][Proc: 0]Ux: update_non_local_matrix_data: 0.119 [ms]
[OGL LOG][Proc: 0]Ux_matrix: call_update: 2.476 [ms]
[OGL LOG][Proc: 0]Ux_rhs: call_update: 2.731 [ms]
[OGL LOG][Preconditioner.H:121] Generate preconditioner BJ MaxBlockSize 1
[OGL LOG][Proc: 0]Ux: init_precond: 0.451 [ms]
[OGL LOG][StoppingCriterion.H:373] Creating stopping criterion with minIter 28 frequency 1
[OGL LOG][Proc: 0]Ux: generate_solver: 0.001 [ms]
[OGL LOG][Proc: 0]Ux: solve: 62.78 [ms]
[OGL LOG][Proc: 0]Ux: copy_x_back: 1.067 [ms]
[OGL LOG][lduLduBase.H:336] 
Statistics:
	Time per iteration: 4484 [mu s]
	Time per residual norm calculation: 232.000000 [mu s]
	Time per iteration and DOF: 0.710941 [ns]
	Retrieve results bandwidth 1.954000 [GByte/s]
[OGL LOG][Proc: 0]Ux: solve_multi_gpu: 70.032 [ms]
BJhipGKOBiCGStab:  Solving for Ux, Initial residual = 0.6035975777819299, Final residual = 0.0340170557216927, No Iterations 14
[OGL LOG][Proc: 0]: global_index_init: 0.465 [ms]
[OGL LOG][Proc: 0]Uy_local_coeffs: call_update: 0 [ms]
[OGL LOG][Proc: 0]Uy_non_local_coeffs: call_update: 0 [ms]
[OGL LOG][Proc: 0]Uy: update_local_matrix_data: 10.811 [ms]
[OGL LOG][Proc: 0]Uy: update_non_local_matrix_data: 0.074 [ms]
[OGL LOG][Proc: 0]Uy_matrix: call_update: 4.452 [ms]
[OGL LOG][Proc: 0]Uy_rhs: call_update: 1.066 [ms]
[OGL LOG][Preconditioner.H:121] Generate preconditioner BJ MaxBlockSize 1
[OGL LOG][Proc: 0]Uy: init_precond: 0.261 [ms]
[OGL LOG][StoppingCriterion.H:373] Creating stopping criterion with minIter 62 frequency 1
[OGL LOG][Proc: 0]Uy: generate_solver: 0.001 [ms]
[OGL LOG][Proc: 0]Uy: solve: 94.637 [ms]
[OGL LOG][Proc: 0]Uy: copy_x_back: 1.069 [ms]
[OGL LOG][lduLduBase.H:336] 
Statistics:
	Time per iteration: 3052 [mu s]
	Time per residual norm calculation: 235.000000 [mu s]
	Time per iteration and DOF: 0.483896 [ns]
	Retrieve results bandwidth 1.950000 [GByte/s]
[OGL LOG][Proc: 0]Uy: solve_multi_gpu: 101.975 [ms]
BJhipGKOBiCGStab:  Solving for Uy, Initial residual = 0.9969781853422746, Final residual = 0.001462145330357028, No Iterations 31
[OGL LOG][Proc: 0]: global_index_init: 0.428 [ms]
[OGL LOG][Proc: 0]Uz_local_coeffs: call_update: 0 [ms]
[OGL LOG][Proc: 0]Uz_non_local_coeffs: call_update: 0 [ms]
[OGL LOG][Proc: 0]Uz: update_local_matrix_data: 12.108 [ms]
[OGL LOG][Proc: 0]Uz: update_non_local_matrix_data: 0.095 [ms]
[OGL LOG][Proc: 0]Uz_matrix: call_update: 2.57 [ms]
[OGL LOG][Proc: 0]Uz_rhs: call_update: 1.733 [ms]
[OGL LOG][Preconditioner.H:121] Generate preconditioner BJ MaxBlockSize 1
[OGL LOG][Proc: 0]Uz: init_precond: 0.257 [ms]
[OGL LOG][StoppingCriterion.H:373] Creating stopping criterion with minIter 1 frequency 1
[OGL LOG][Proc: 0]Uz: generate_solver: 0 [ms]
[OGL LOG][Proc: 0]Uz: solve: 50.501 [ms]
[OGL LOG][Proc: 0]Uz: copy_x_back: 1.079 [ms]
[OGL LOG][lduLduBase.H:336] 
Statistics:
	Time per iteration: 4591 [mu s]
	Time per residual norm calculation: 231.000000 [mu s]
	Time per iteration and DOF: 0.727906 [ns]
	Retrieve results bandwidth 1.932000 [GByte/s]
[OGL LOG][Proc: 0]Uz: solve_multi_gpu: 56.606 [ms]
BJhipGKOBiCGStab:  Solving for Uz, Initial residual = 0.9999573906208771, Final residual = 0.07560205141221221, No Iterations 11
[INFO] MomentumPredictor: 301.556 [ms]
[INFO] MatrixAssemblyPI: 79.587 [ms]
[INFO] MatrixAssemblyPII: 36.588 [ms]
DICPCG:  Solving for p, Initial residual = 0.2214654503535075, Final residual = 0.002196667823844164, No Iterations 342
[INFO] SolveP: 3259.873 [ms]
time step continuity errors : sum local = 0.04535095414273554, global = 0.002150385767362908, cumulative = 0.002223546924835067
[INFO] postSolveP: 20.408 [ms]
[OGL LOG][Proc: 0]: global_index_init: 5.884 [ms]
[OGL LOG][Proc: 0]nuTilda_local_coeffs: call_update: 0 [ms]
[OGL LOG][Proc: 0]nuTilda_non_local_coeffs: call_update: 0 [ms]
[OGL LOG][Proc: 0]nuTilda: update_local_matrix_data: 11.127 [ms]
[OGL LOG][Proc: 0]nuTilda: update_non_local_matrix_data: 0.106 [ms]
[OGL LOG][Proc: 0]nuTilda_matrix: call_update: 2.955 [ms]
[OGL LOG][Proc: 0]nuTilda_rhs: call_update: 3.898 [ms]
[OGL LOG][Preconditioner.H:121] Generate preconditioner BJ MaxBlockSize 1
[OGL LOG][Proc: 0]nuTilda: init_precond: 0.262 [ms]
[OGL LOG][StoppingCriterion.H:373] Creating stopping criterion with minIter 3 frequency 1
[OGL LOG][Proc: 0]nuTilda: generate_solver: 0 [ms]
[OGL LOG][Proc: 0]nuTilda: solve: 27.781 [ms]
[OGL LOG][Proc: 0]nuTilda: copy_x_back: 1.095 [ms]
[OGL LOG][lduLduBase.H:336] 
Statistics:
	Time per iteration: 13890 [mu s]
	Time per residual norm calculation: 235.000000 [mu s]
	Time per iteration and DOF: 2.202267 [ns]
	Retrieve results bandwidth 1.904000 [GByte/s]
[OGL LOG][Proc: 0]nuTilda: solve_multi_gpu: 36.483 [ms]
BJhipGKOBiCGStab:  Solving for nuTilda, Initial residual = 0.4032757336089268, Final residual = 0.006147750843310998, No Iterations 2
[INFO] TimeStep: 4435.312 [ms]
ExecutionTime = 18.76 s  ClockTime = 19 s

Time = 3

velocityDampingConstraint velocityDamping damped 892 (0.01%) of cells, with max limit 300
[INFO] MatrixAssemblyU: 463.302 [ms]
[OGL LOG][Proc: 0]: global_index_init: 0.8240000000000001 [ms]
[OGL LOG][Proc: 0]Ux_local_coeffs: call_update: 0 [ms]
[OGL LOG][Proc: 0]Ux_non_local_coeffs: call_update: 0 [ms]
[OGL LOG][Proc: 0]Ux: update_local_matrix_data: 10.114 [ms]
[OGL LOG][Proc: 0]Ux: update_non_local_matrix_data: 0.122 [ms]
[OGL LOG][Proc: 0]Ux_matrix: call_update: 5.821 [ms]
[OGL LOG][Proc: 0]Ux_rhs: call_update: 0.415 [ms]
[OGL LOG][Preconditioner.H:121] Generate preconditioner BJ MaxBlockSize 1
[OGL LOG][Proc: 0]Ux: init_precond: 0.271 [ms]
[OGL LOG][StoppingCriterion.H:373] Creating stopping criterion with minIter 17 frequency 1
[OGL LOG][Proc: 0]Ux: generate_solver: 0 [ms]
[OGL LOG][Proc: 0]Ux: solve: 68.512 [ms]
[OGL LOG][Proc: 0]Ux: copy_x_back: 1.065 [ms]
[OGL LOG][lduLduBase.H:336] 
Statistics:
	Time per iteration: 5270 [mu s]
	Time per residual norm calculation: 224.000000 [mu s]
	Time per iteration and DOF: 0.835561 [ns]
	Retrieve results bandwidth 1.958000 [GByte/s]
[OGL LOG][Proc: 0]Ux: solve_multi_gpu: 76.571 [ms]
BJhipGKOBiCGStab:  Solving for Ux, Initial residual = 0.1299697415754483, Final residual = 0.01083316871863164, No Iterations 13
[OGL LOG][Proc: 0]: global_index_init: 0.411 [ms]
[OGL LOG][Proc: 0]Uy_local_coeffs: call_update: 0 [ms]
[OGL LOG][Proc: 0]Uy_non_local_coeffs: call_update: 0 [ms]
[OGL LOG][Proc: 0]Uy: update_local_matrix_data: 10.766 [ms]
[OGL LOG][Proc: 0]Uy: update_non_local_matrix_data: 0.08799999999999999 [ms]
[OGL LOG][Proc: 0]Uy_matrix: call_update: 2.807 [ms]
[OGL LOG][Proc: 0]Uy_rhs: call_update: 4.561 [ms]
[OGL LOG][Preconditioner.H:121] Generate preconditioner BJ MaxBlockSize 1
[OGL LOG][Proc: 0]Uy: init_precond: 0.279 [ms]
[OGL LOG][StoppingCriterion.H:373] Creating stopping criterion with minIter 37 frequency 1
[OGL LOG][Proc: 0]Uy: generate_solver: 0.001 [ms]
[OGL LOG][Proc: 0]Uy: solve: 68.023 [ms]
[OGL LOG][Proc: 0]Uy: copy_x_back: 1.072 [ms]
[OGL LOG][lduLduBase.H:336] 
Statistics:
	Time per iteration: 3401 [mu s]
	Time per residual norm calculation: 233.000000 [mu s]
	Time per iteration and DOF: 0.539230 [ns]
	Retrieve results bandwidth 1.945000 [GByte/s]
[OGL LOG][Proc: 0]Uy: solve_multi_gpu: 77.248 [ms]
BJhipGKOBiCGStab:  Solving for Uy, Initial residual = 0.3046744281274376, Final residual = 0.003713983323811163, No Iterations 20
[OGL LOG][Proc: 0]: global_index_init: 0.496 [ms]
[OGL LOG][Proc: 0]Uz_local_coeffs: call_update: 0 [ms]
[OGL LOG][Proc: 0]Uz_non_local_coeffs: call_update: 0 [ms]
[OGL LOG][Proc: 0]Uz: update_local_matrix_data: 12.093 [ms]
[OGL LOG][Proc: 0]Uz: update_non_local_matrix_data: 0.092 [ms]
[OGL LOG][Proc: 0]Uz_matrix: call_update: 2.67 [ms]
[OGL LOG][Proc: 0]Uz_rhs: call_update: 1.609 [ms]
[OGL LOG][Preconditioner.H:121] Generate preconditioner BJ MaxBlockSize 1
[OGL LOG][Proc: 0]Uz: init_precond: 0.259 [ms]
[OGL LOG][StoppingCriterion.H:373] Creating stopping criterion with minIter 13 frequency 1
[OGL LOG][Proc: 0]Uz: generate_solver: 0.001 [ms]
[OGL LOG][Proc: 0]Uz: solve: 49.46 [ms]
[OGL LOG][Proc: 0]Uz: copy_x_back: 1.07 [ms]
[OGL LOG][lduLduBase.H:336] 
Statistics:
	Time per iteration: 4496 [mu s]
	Time per residual norm calculation: 226.000000 [mu s]
	Time per iteration and DOF: 0.712843 [ns]
	Retrieve results bandwidth 1.948000 [GByte/s]
[OGL LOG][Proc: 0]Uz: solve_multi_gpu: 55.532 [ms]
BJhipGKOBiCGStab:  Solving for Uz, Initial residual = 0.2897060979233944, Final residual = 0.02730448349713911, No Iterations 11
[INFO] MomentumPredictor: 283.164 [ms]
[INFO] MatrixAssemblyPI: 77.768 [ms]
[INFO] MatrixAssemblyPII: 36.955 [ms]
DICPCG:  Solving for p, Initial residual = 0.1701682801015812, Final residual = 0.001698750241410365, No Iterations 177
[INFO] SolveP: 1706.263 [ms]
time step continuity errors : sum local = 0.01855659812987957, global = 0.000582674897937922, cumulative = 0.002806221822772989
[INFO] postSolveP: 20.274 [ms]
[OGL LOG][Proc: 0]: global_index_init: 3.569 [ms]
[OGL LOG][Proc: 0]nuTilda_local_coeffs: call_update: 0 [ms]
[OGL LOG][Proc: 0]nuTilda_non_local_coeffs: call_update: 0 [ms]
[OGL LOG][Proc: 0]nuTilda: update_local_matrix_data: 10.93 [ms]
[OGL LOG][Proc: 0]nuTilda: update_non_local_matrix_data: 0.075 [ms]
[OGL LOG][Proc: 0]nuTilda_matrix: call_update: 2.751 [ms]
[OGL LOG][Proc: 0]nuTilda_rhs: call_update: 2.263 [ms]
[OGL LOG][Preconditioner.H:121] Generate preconditioner BJ MaxBlockSize 1
[OGL LOG][Proc: 0]nuTilda: init_precond: 0.296 [ms]
[OGL LOG][StoppingCriterion.H:373] Creating stopping criterion with minIter 2 frequency 1
[OGL LOG][Proc: 0]nuTilda: generate_solver: 0.001 [ms]
[OGL LOG][Proc: 0]nuTilda: solve: 41.777 [ms]
[OGL LOG][Proc: 0]nuTilda: copy_x_back: 1.105 [ms]
[OGL LOG][lduLduBase.H:336] 
Statistics:
	Time per iteration: 20888 [mu s]
	Time per residual norm calculation: 231.000000 [mu s]
	Time per iteration and DOF: 3.311804 [ns]
	Retrieve results bandwidth 1.887000 [GByte/s]
[OGL LOG][Proc: 0]nuTilda: solve_multi_gpu: 48.69 [ms]
BJhipGKOBiCGStab:  Solving for nuTilda, Initial residual = 0.1897181353222926, Final residual = 0.01631703523212657, No Iterations 2
bounding nuTilda, min: -0.000129368360234509 max: 0.0008932914950318855 average: 8.05171260510393e-05
[INFO] TimeStep: 2913.407 [ms]
ExecutionTime = 22.01 s  ClockTime = 23 s

Time = 4

velocityDampingConstraint velocityDamping damped 0 (0%) of cells, with max limit 300
[INFO] MatrixAssemblyU: 468.6 [ms]
[OGL LOG][Proc: 0]: global_index_init: 1.342 [ms]
[OGL LOG][Proc: 0]Ux_local_coeffs: call_update: 0 [ms]
[OGL LOG][Proc: 0]Ux_non_local_coeffs: call_update: 0 [ms]
[OGL LOG][Proc: 0]Ux: update_local_matrix_data: 10.471 [ms]
[OGL LOG][Proc: 0]Ux: update_non_local_matrix_data: 0.091 [ms]
[OGL LOG][Proc: 0]Ux_matrix: call_update: 3.099 [ms]
[OGL LOG][Proc: 0]Ux_rhs: call_update: 0.922 [ms]
[OGL LOG][Preconditioner.H:121] Generate preconditioner BJ MaxBlockSize 1
[OGL LOG][Proc: 0]Ux: init_precond: 0.261 [ms]
[OGL LOG][StoppingCriterion.H:373] Creating stopping criterion with minIter 16 frequency 1
[OGL LOG][Proc: 0]Ux: generate_solver: 0.001 [ms]
[OGL LOG][Proc: 0]Ux: solve: 73.92700000000001 [ms]
[OGL LOG][Proc: 0]Ux: copy_x_back: 1.079 [ms]
[OGL LOG][lduLduBase.H:336] 
Statistics:
	Time per iteration: 4348 [mu s]
	Time per residual norm calculation: 257.000000 [mu s]
	Time per iteration and DOF: 0.689378 [ns]
	Retrieve results bandwidth 1.932000 [GByte/s]
[OGL LOG][Proc: 0]Ux: solve_multi_gpu: 79.783 [ms]
BJhipGKOBiCGStab:  Solving for Ux, Initial residual = 0.06050951092475299, Final residual = 0.001850046764389696, No Iterations 17
[OGL LOG][Proc: 0]: global_index_init: 0.386 [ms]
[OGL LOG][Proc: 0]Uy_local_coeffs: call_update: 0 [ms]
[OGL LOG][Proc: 0]Uy_non_local_coeffs: call_update: 0 [ms]
[OGL LOG][Proc: 0]Uy: update_local_matrix_data: 9.978 [ms]
[OGL LOG][Proc: 0]Uy: update_non_local_matrix_data: 0.096 [ms]
[OGL LOG][Proc: 0]Uy_matrix: call_update: 4.143 [ms]
[OGL LOG][Proc: 0]Uy_rhs: call_update: 1.101 [ms]
[OGL LOG][Preconditioner.H:121] Generate preconditioner BJ MaxBlockSize 1
[OGL LOG][Proc: 0]Uy: init_precond: 0.251 [ms]
[OGL LOG][StoppingCriterion.H:373] Creating stopping criterion with minIter 24 frequency 1
[OGL LOG][Proc: 0]Uy: generate_solver: 0.001 [ms]
[OGL LOG][Proc: 0]Uy: solve: 59.243 [ms]
[OGL LOG][Proc: 0]Uy: copy_x_back: 1.075 [ms]
[OGL LOG][lduLduBase.H:336] 
Statistics:
	Time per iteration: 4936 [mu s]
	Time per residual norm calculation: 231.000000 [mu s]
	Time per iteration and DOF: 0.782606 [ns]
	Retrieve results bandwidth 1.939000 [GByte/s]
[OGL LOG][Proc: 0]Uy: solve_multi_gpu: 66.282 [ms]
BJhipGKOBiCGStab:  Solving for Uy, Initial residual = 0.329884886578619, Final residual = 0.0203256012025231, No Iterations 12
[OGL LOG][Proc: 0]: global_index_init: 0.366 [ms]
[OGL LOG][Proc: 0]Uz_local_coeffs: call_update: 0 [ms]
[OGL LOG][Proc: 0]Uz_non_local_coeffs: call_update: 0 [ms]
[OGL LOG][Proc: 0]Uz: update_local_matrix_data: 10.076 [ms]
[OGL LOG][Proc: 0]Uz: update_non_local_matrix_data: 0.076 [ms]
[OGL LOG][Proc: 0]Uz_matrix: call_update: 3.638 [ms]
[OGL LOG][Proc: 0]Uz_rhs: call_update: 2.666 [ms]
[OGL LOG][Preconditioner.H:121] Generate preconditioner BJ MaxBlockSize 1
[OGL LOG][Proc: 0]Uz: init_precond: 0.287 [ms]
[OGL LOG][StoppingCriterion.H:373] Creating stopping criterion with minIter 13 frequency 1
[OGL LOG][Proc: 0]Uz: generate_solver: 0 [ms]
[OGL LOG][Proc: 0]Uz: solve: 51.679 [ms]
[OGL LOG][Proc: 0]Uz: copy_x_back: 1.055 [ms]
[OGL LOG][lduLduBase.H:336] 
Statistics:
	Time per iteration: 4306 [mu s]
	Time per residual norm calculation: 227.000000 [mu s]
	Time per iteration and DOF: 0.682719 [ns]
	Retrieve results bandwidth 1.976000 [GByte/s]
[OGL LOG][Proc: 0]Uz: solve_multi_gpu: 59.8 [ms]
BJhipGKOBiCGStab:  Solving for Uz, Initial residual = 0.1703945866083754, Final residual = 0.01388826557526681, No Iterations 12
[INFO] MomentumPredictor: 277.286 [ms]
[INFO] MatrixAssemblyPI: 77.375 [ms]
[INFO] MatrixAssemblyPII: 36.438 [ms]
DICPCG:  Solving for p, Initial residual = 0.1511445459188338, Final residual = 0.001467777643232684, No Iterations 96
[INFO] SolveP: 920.687 [ms]
time step continuity errors : sum local = 0.01502382226234381, global = 0.00100114645543823, cumulative = 0.003807368278211219
[INFO] postSolveP: 19.393 [ms]
[OGL LOG][Proc: 0]: global_index_init: 6.884 [ms]
[OGL LOG][Proc: 0]nuTilda_local_coeffs: call_update: 0 [ms]
[OGL LOG][Proc: 0]nuTilda_non_local_coeffs: call_update: 0 [ms]
[OGL LOG][Proc: 0]nuTilda: update_local_matrix_data: 10.376 [ms]
[OGL LOG][Proc: 0]nuTilda: update_non_local_matrix_data: 0.1 [ms]
[OGL LOG][Proc: 0]nuTilda_matrix: call_update: 3.431 [ms]
[OGL LOG][Proc: 0]nuTilda_rhs: call_update: 4.074 [ms]
[OGL LOG][Preconditioner.H:121] Generate preconditioner BJ MaxBlockSize 1
[OGL LOG][Proc: 0]nuTilda: init_precond: 0.257 [ms]
[OGL LOG][StoppingCriterion.H:373] Creating stopping criterion with minIter 2 frequency 1
[OGL LOG][Proc: 0]nuTilda: generate_solver: 0.001 [ms]
[OGL LOG][Proc: 0]nuTilda: solve: 29.06 [ms]
[OGL LOG][Proc: 0]nuTilda: copy_x_back: 1.15 [ms]
[OGL LOG][lduLduBase.H:336] 
Statistics:
	Time per iteration: 14530 [mu s]
	Time per residual norm calculation: 223.000000 [mu s]
	Time per iteration and DOF: 2.303740 [ns]
	Retrieve results bandwidth 1.813000 [GByte/s]
[OGL LOG][Proc: 0]nuTilda: solve_multi_gpu: 38.503 [ms]
BJhipGKOBiCGStab:  Solving for nuTilda, Initial residual = 0.1061752569089821, Final residual = 0.004977661314619827, No Iterations 2
[INFO] TimeStep: 2102.624 [ms]
ExecutionTime = 24.46 s  ClockTime = 25 s

Time = 5

velocityDampingConstraint velocityDamping damped 114 (0%) of cells, with max limit 300
[INFO] MatrixAssemblyU: 462.417 [ms]
[OGL LOG][Proc: 0]: global_index_init: 0.766 [ms]
[OGL LOG][Proc: 0]Ux_local_coeffs: call_update: 0 [ms]
[OGL LOG][Proc: 0]Ux_non_local_coeffs: call_update: 0 [ms]
[OGL LOG][Proc: 0]Ux: update_local_matrix_data: 10.111 [ms]
[OGL LOG][Proc: 0]Ux: update_non_local_matrix_data: 0.093 [ms]
[OGL LOG][Proc: 0]Ux_matrix: call_update: 2.616 [ms]
[OGL LOG][Proc: 0]Ux_rhs: call_update: 3.375 [ms]
[OGL LOG][Preconditioner.H:121] Generate preconditioner BJ MaxBlockSize 1
[OGL LOG][Proc: 0]Ux: init_precond: 0.222 [ms]
[OGL LOG][StoppingCriterion.H:373] Creating stopping criterion with minIter 20 frequency 1
[OGL LOG][Proc: 0]Ux: generate_solver: 0.001 [ms]
[OGL LOG][Proc: 0]Ux: solve: 61.934 [ms]
[OGL LOG][Proc: 0]Ux: copy_x_back: 1.073 [ms]
[OGL LOG][lduLduBase.H:336] 
Statistics:
	Time per iteration: 3643 [mu s]
	Time per residual norm calculation: 230.000000 [mu s]
	Time per iteration and DOF: 0.577600 [ns]
	Retrieve results bandwidth 1.943000 [GByte/s]
[OGL LOG][Proc: 0]Ux: solve_multi_gpu: 69.71000000000001 [ms]
BJhipGKOBiCGStab:  Solving for Ux, Initial residual = 0.05810674801107235, Final residual = 0.002482537427053172, No Iterations 17
[OGL LOG][Proc: 0]: global_index_init: 0.406 [ms]
[OGL LOG][Proc: 0]Uy_local_coeffs: call_update: 0 [ms]
[OGL LOG][Proc: 0]Uy_non_local_coeffs: call_update: 0 [ms]
[OGL LOG][Proc: 0]Uy: update_local_matrix_data: 10.777 [ms]
[OGL LOG][Proc: 0]Uy: update_non_local_matrix_data: 0.074 [ms]
[OGL LOG][Proc: 0]Uy_matrix: call_update: 3.173 [ms]
[OGL LOG][Proc: 0]Uy_rhs: call_update: 3.137 [ms]
[OGL LOG][Preconditioner.H:121] Generate preconditioner BJ MaxBlockSize 1
[OGL LOG][Proc: 0]Uy: init_precond: 0.283 [ms]
[OGL LOG][StoppingCriterion.H:373] Creating stopping criterion with minIter 15 frequency 1
[OGL LOG][Proc: 0]Uy: generate_solver: 0.001 [ms]
[OGL LOG][Proc: 0]Uy: solve: 69.71900000000001 [ms]
[OGL LOG][Proc: 0]Uy: copy_x_back: 1.068 [ms]
[OGL LOG][lduLduBase.H:336] 
Statistics:
	Time per iteration: 5363 [mu s]
	Time per residual norm calculation: 227.000000 [mu s]
	Time per iteration and DOF: 0.850307 [ns]
	Retrieve results bandwidth 1.952000 [GByte/s]
[OGL LOG][Proc: 0]Uy: solve_multi_gpu: 77.873 [ms]
BJhipGKOBiCGStab:  Solving for Uy, Initial residual = 0.1471446219468074, Final residual = 0.01073448719709873, No Iterations 13
[OGL LOG][Proc: 0]: global_index_init: 0.428 [ms]
[OGL LOG][Proc: 0]Uz_local_coeffs: call_update: 0 [ms]
[OGL LOG][Proc: 0]Uz_non_local_coeffs: call_update: 0 [ms]
[OGL LOG][Proc: 0]Uz: update_local_matrix_data: 10.575 [ms]
[OGL LOG][Proc: 0]Uz: update_non_local_matrix_data: 0.089 [ms]
[OGL LOG][Proc: 0]Uz_matrix: call_update: 6.855 [ms]
[OGL LOG][Proc: 0]Uz_rhs: call_update: 12.463 [ms]
[OGL LOG][Preconditioner.H:121] Generate preconditioner BJ MaxBlockSize 1
[OGL LOG][Proc: 0]Uz: init_precond: 0.347 [ms]
[OGL LOG][StoppingCriterion.H:373] Creating stopping criterion with minIter 14 frequency 1
[OGL LOG][Proc: 0]Uz: generate_solver: 0 [ms]
[OGL LOG][Proc: 0]Uz: solve: 48.049 [ms]
[OGL LOG][Proc: 0]Uz: copy_x_back: 1.063 [ms]
[OGL LOG][lduLduBase.H:336] 
Statistics:
	Time per iteration: 4368 [mu s]
	Time per residual norm calculation: 226.000000 [mu s]
	Time per iteration and DOF: 0.692549 [ns]
	Retrieve results bandwidth 1.961000 [GByte/s]
[OGL LOG][Proc: 0]Uz: solve_multi_gpu: 69.26000000000001 [ms]
BJhipGKOBiCGStab:  Solving for Uz, Initial residual = 0.1185906264703978, Final residual = 0.01103311798616355, No Iterations 11
[INFO] MomentumPredictor: 288.103 [ms]
[INFO] MatrixAssemblyPI: 82.767 [ms]
[INFO] MatrixAssemblyPII: 36.781 [ms]
DICPCG:  Solving for p, Initial residual = 0.1092370113251954, Final residual = 0.001086568328203805, No Iterations 115
[INFO] SolveP: 1197.442 [ms]
time step continuity errors : sum local = 0.009082336044045491, global = 0.001766457295264466, cumulative = 0.005573825573475685
[INFO] postSolveP: 21.118 [ms]
[OGL LOG][Proc: 0]: global_index_init: 6.074 [ms]
[OGL LOG][Proc: 0]nuTilda_local_coeffs: call_update: 0 [ms]
[OGL LOG][Proc: 0]nuTilda_non_local_coeffs: call_update: 0 [ms]
[OGL LOG][Proc: 0]nuTilda: update_local_matrix_data: 10.789 [ms]
[OGL LOG][Proc: 0]nuTilda: update_non_local_matrix_data: 0.128 [ms]
[OGL LOG][Proc: 0]nuTilda_matrix: call_update: 2.897 [ms]
[OGL LOG][Proc: 0]nuTilda_rhs: call_update: 7.173 [ms]
[OGL LOG][Preconditioner.H:121] Generate preconditioner BJ MaxBlockSize 1
[OGL LOG][Proc: 0]nuTilda: init_precond: 0.258 [ms]
[OGL LOG][StoppingCriterion.H:373] Creating stopping criterion with minIter 3 frequency 1
[OGL LOG][Proc: 0]nuTilda: generate_solver: 0.001 [ms]
[OGL LOG][Proc: 0]nuTilda: solve: 35.934 [ms]
[OGL LOG][Proc: 0]nuTilda: copy_x_back: 1.1 [ms]
[OGL LOG][lduLduBase.H:336] 
Statistics:
	Time per iteration: 17967 [mu s]
	Time per residual norm calculation: 382.000000 [mu s]
	Time per iteration and DOF: 2.848678 [ns]
	Retrieve results bandwidth 1.895000 [GByte/s]
[OGL LOG][Proc: 0]nuTilda: solve_multi_gpu: 47.874 [ms]
BJhipGKOBiCGStab:  Solving for nuTilda, Initial residual = 0.05778396099504562, Final residual = 0.004797646029801626, No Iterations 2
[INFO] TimeStep: 2396.086 [ms]
ExecutionTime = 27.2 s  ClockTime = 28 s

Time = 6

velocityDampingConstraint velocityDamping damped 0 (0%) of cells, with max limit 300
[INFO] MatrixAssemblyU: 461.617 [ms]
[OGL LOG][Proc: 0]: global_index_init: 0.921 [ms]
[OGL LOG][Proc: 0]Ux_local_coeffs: call_update: 0 [ms]
[OGL LOG][Proc: 0]Ux_non_local_coeffs: call_update: 0 [ms]
[OGL LOG][Proc: 0]Ux: update_local_matrix_data: 10.485 [ms]
[OGL LOG][Proc: 0]Ux: update_non_local_matrix_data: 0.13 [ms]
[OGL LOG][Proc: 0]Ux_matrix: call_update: 2.703 [ms]
[OGL LOG][Proc: 0]Ux_rhs: call_update: 3.648 [ms]
[OGL LOG][Preconditioner.H:121] Generate preconditioner BJ MaxBlockSize 1
[OGL LOG][Proc: 0]Ux: init_precond: 0.278 [ms]
[OGL LOG][StoppingCriterion.H:373] Creating stopping criterion with minIter 20 frequency 1
[OGL LOG][Proc: 0]Ux: generate_solver: 0.001 [ms]
[OGL LOG][Proc: 0]Ux: solve: 65.714 [ms]
[OGL LOG][Proc: 0]Ux: copy_x_back: 1.069 [ms]
[OGL LOG][lduLduBase.H:336] 
Statistics:
	Time per iteration: 6571 [mu s]
	Time per residual norm calculation: 234.000000 [mu s]
	Time per iteration and DOF: 1.041836 [ns]
	Retrieve results bandwidth 1.950000 [GByte/s]
[OGL LOG][Proc: 0]Ux: solve_multi_gpu: 73.886 [ms]
BJhipGKOBiCGStab:  Solving for Ux, Initial residual = 0.03524630466911991, Final residual = 0.003493094093696958, No Iterations 10
[OGL LOG][Proc: 0]: global_index_init: 0.365 [ms]
[OGL LOG][Proc: 0]Uy_local_coeffs: call_update: 0 [ms]
[OGL LOG][Proc: 0]Uy_non_local_coeffs: call_update: 0 [ms]
[OGL LOG][Proc: 0]Uy: update_local_matrix_data: 10.366 [ms]
[OGL LOG][Proc: 0]Uy: update_non_local_matrix_data: 0.095 [ms]
[OGL LOG][Proc: 0]Uy_matrix: call_update: 6.794 [ms]
[OGL LOG][Proc: 0]Uy_rhs: call_update: 0.975 [ms]
[OGL LOG][Preconditioner.H:121] Generate preconditioner BJ MaxBlockSize 1
[OGL LOG][Proc: 0]Uy: init_precond: 0.244 [ms]
[OGL LOG][StoppingCriterion.H:373] Creating stopping criterion with minIter 15 frequency 1
[OGL LOG][Proc: 0]Uy: generate_solver: 0.001 [ms]
[OGL LOG][Proc: 0]Uy: solve: 57.567 [ms]
[OGL LOG][Proc: 0]Uy: copy_x_back: 1.042 [ms]
[OGL LOG][lduLduBase.H:336] 
Statistics:
	Time per iteration: 4797 [mu s]
	Time per residual norm calculation: 230.000000 [mu s]
	Time per iteration and DOF: 0.760567 [ns]
	Retrieve results bandwidth 2.001000 [GByte/s]
[OGL LOG][Proc: 0]Uy: solve_multi_gpu: 67.125 [ms]
BJhipGKOBiCGStab:  Solving for Uy, Initial residual = 0.108699608898987, Final residual = 0.008654828708339201, No Iterations 12
[OGL LOG][Proc: 0]: global_index_init: 0.37 [ms]
[OGL LOG][Proc: 0]Uz_local_coeffs: call_update: 0 [ms]
[OGL LOG][Proc: 0]Uz_non_local_coeffs: call_update: 0 [ms]
[OGL LOG][Proc: 0]Uz: update_local_matrix_data: 10.419 [ms]
[OGL LOG][Proc: 0]Uz: update_non_local_matrix_data: 0.106 [ms]
[OGL LOG][Proc: 0]Uz_matrix: call_update: 2.745 [ms]
[OGL LOG][Proc: 0]Uz_rhs: call_update: 4.476 [ms]
[OGL LOG][Preconditioner.H:121] Generate preconditioner BJ MaxBlockSize 1
[OGL LOG][Proc: 0]Uz: init_precond: 0.281 [ms]
[OGL LOG][StoppingCriterion.H:373] Creating stopping criterion with minIter 13 frequency 1
[OGL LOG][Proc: 0]Uz: generate_solver: 0.001 [ms]
[OGL LOG][Proc: 0]Uz: solve: 51.085 [ms]
[OGL LOG][Proc: 0]Uz: copy_x_back: 1.08 [ms]
[OGL LOG][lduLduBase.H:336] 
Statistics:
	Time per iteration: 4257 [mu s]
	Time per residual norm calculation: 257.000000 [mu s]
	Time per iteration and DOF: 0.674950 [ns]
	Retrieve results bandwidth 1.930000 [GByte/s]
[OGL LOG][Proc: 0]Uz: solve_multi_gpu: 60.149 [ms]
BJhipGKOBiCGStab:  Solving for Uz, Initial residual = 0.07455508836683979, Final residual = 0.007055990709035198, No Iterations 12
[INFO] MomentumPredictor: 273.006 [ms]
[INFO] MatrixAssemblyPI: 79.727 [ms]
[INFO] MatrixAssemblyPII: 36.773 [ms]
DICPCG:  Solving for p, Initial residual = 0.09349760111406497, Final residual = 0.0009327970190036394, No Iterations 144
[INFO] SolveP: 1337.664 [ms]
time step continuity errors : sum local = 0.0080281616443801, global = 0.001942103876107677, cumulative = 0.007515929449583361
[INFO] postSolveP: 19.453 [ms]
[OGL LOG][Proc: 0]: global_index_init: 1.621 [ms]
[OGL LOG][Proc: 0]nuTilda_local_coeffs: call_update: 0 [ms]
[OGL LOG][Proc: 0]nuTilda_non_local_coeffs: call_update: 0 [ms]
[OGL LOG][Proc: 0]nuTilda: update_local_matrix_data: 11.695 [ms]
[OGL LOG][Proc: 0]nuTilda: update_non_local_matrix_data: 0.117 [ms]
[OGL LOG][Proc: 0]nuTilda_matrix: call_update: 3.038 [ms]
[OGL LOG][Proc: 0]nuTilda_rhs: call_update: 2.782 [ms]
[OGL LOG][Preconditioner.H:121] Generate preconditioner BJ MaxBlockSize 1
[OGL LOG][Proc: 0]nuTilda: init_precond: 0.264 [ms]
[OGL LOG][StoppingCriterion.H:373] Creating stopping criterion with minIter 2 frequency 1
[OGL LOG][Proc: 0]nuTilda: generate_solver: 0.001 [ms]
[OGL LOG][Proc: 0]nuTilda: solve: 28.89 [ms]
[OGL LOG][Proc: 0]nuTilda: copy_x_back: 1.084 [ms]
[OGL LOG][lduLduBase.H:336] 
Statistics:
	Time per iteration: 14445 [mu s]
	Time per residual norm calculation: 237.000000 [mu s]
	Time per iteration and DOF: 2.290263 [ns]
	Retrieve results bandwidth 1.923000 [GByte/s]
[OGL LOG][Proc: 0]nuTilda: solve_multi_gpu: 36.577 [ms]
BJhipGKOBiCGStab:  Solving for nuTilda, Initial residual = 0.05925266601567689, Final residual = 0.003185769857882518, No Iterations 2
[INFO] TimeStep: 2501.117 [ms]
ExecutionTime = 30.04 s  ClockTime = 31 s

Time = 7

velocityDampingConstraint velocityDamping damped 4 (0%) of cells, with max limit 300
[INFO] MatrixAssemblyU: 458.207 [ms]
[OGL LOG][Proc: 0]: global_index_init: 0.9540000000000001 [ms]
[OGL LOG][Proc: 0]Ux_local_coeffs: call_update: 0 [ms]
[OGL LOG][Proc: 0]Ux_non_local_coeffs: call_update: 0 [ms]
[OGL LOG][Proc: 0]Ux: update_local_matrix_data: 10.554 [ms]
[OGL LOG][Proc: 0]Ux: update_non_local_matrix_data: 0.08600000000000001 [ms]
[OGL LOG][Proc: 0]Ux_matrix: call_update: 6.549 [ms]
[OGL LOG][Proc: 0]Ux_rhs: call_update: 0.317 [ms]
[OGL LOG][Preconditioner.H:121] Generate preconditioner BJ MaxBlockSize 1
[OGL LOG][Proc: 0]Ux: init_precond: 0.294 [ms]
[OGL LOG][StoppingCriterion.H:373] Creating stopping criterion with minIter 12 frequency 1
[OGL LOG][Proc: 0]Ux: generate_solver: 0.001 [ms]
[OGL LOG][Proc: 0]Ux: solve: 63.566 [ms]
[OGL LOG][Proc: 0]Ux: copy_x_back: 1.074 [ms]
[OGL LOG][lduLduBase.H:336] 
Statistics:
	Time per iteration: 5778 [mu s]
	Time per residual norm calculation: 219.000000 [mu s]
	Time per iteration and DOF: 0.916105 [ns]
	Retrieve results bandwidth 1.941000 [GByte/s]
[OGL LOG][Proc: 0]Ux: solve_multi_gpu: 72.307 [ms]
BJhipGKOBiCGStab:  Solving for Ux, Initial residual = 0.02468588336586515, Final residual = 0.00234956382875574, No Iterations 11
[OGL LOG][Proc: 0]: global_index_init: 0.5570000000000001 [ms]
[OGL LOG][Proc: 0]Uy_local_coeffs: call_update: 0 [ms]
[OGL LOG][Proc: 0]Uy_non_local_coeffs: call_update: 0 [ms]
[OGL LOG][Proc: 0]Uy: update_local_matrix_data: 11.03 [ms]
[OGL LOG][Proc: 0]Uy: update_non_local_matrix_data: 0.09 [ms]
[OGL LOG][Proc: 0]Uy_matrix: call_update: 2.667 [ms]
[OGL LOG][Proc: 0]Uy_rhs: call_update: 1.925 [ms]
[OGL LOG][Preconditioner.H:121] Generate preconditioner BJ MaxBlockSize 1
[OGL LOG][Proc: 0]Uy: init_precond: 0.253 [ms]
[OGL LOG][StoppingCriterion.H:373] Creating stopping criterion with minIter 14 frequency 1
[OGL LOG][Proc: 0]Uy: generate_solver: 0.001 [ms]
[OGL LOG][Proc: 0]Uy: solve: 50.493 [ms]
[OGL LOG][Proc: 0]Uy: copy_x_back: 1.051 [ms]
[OGL LOG][lduLduBase.H:336] 
Statistics:
	Time per iteration: 4590 [mu s]
	Time per residual norm calculation: 222.000000 [mu s]
	Time per iteration and DOF: 0.727747 [ns]
	Retrieve results bandwidth 1.984000 [GByte/s]
[OGL LOG][Proc: 0]Uy: solve_multi_gpu: 56.884 [ms]
BJhipGKOBiCGStab:  Solving for Uy, Initial residual = 0.07167186818312354, Final residual = 0.006985879955660453, No Iterations 11
[OGL LOG][Proc: 0]: global_index_init: 0.549 [ms]
[OGL LOG][Proc: 0]Uz_local_coeffs: call_update: 0 [ms]
[OGL LOG][Proc: 0]Uz_non_local_coeffs: call_update: 0 [ms]
[OGL LOG][Proc: 0]Uz: update_local_matrix_data: 12.31 [ms]
[OGL LOG][Proc: 0]Uz: update_non_local_matrix_data: 0.083 [ms]
[OGL LOG][Proc: 0]Uz_matrix: call_update: 2.532 [ms]
[OGL LOG][Proc: 0]Uz_rhs: call_update: 0.726 [ms]
[OGL LOG][Preconditioner.H:121] Generate preconditioner BJ MaxBlockSize 1
[OGL LOG][Proc: 0]Uz: init_precond: 0.264 [ms]
[OGL LOG][StoppingCriterion.H:373] Creating stopping criterion with minIter 14 frequency 1
[OGL LOG][Proc: 0]Uz: generate_solver: 0.001 [ms]
[OGL LOG][Proc: 0]Uz: solve: 62.041 [ms]
[OGL LOG][Proc: 0]Uz: copy_x_back: 1.092 [ms]
[OGL LOG][lduLduBase.H:336] 
Statistics:
	Time per iteration: 5640 [mu s]
	Time per residual norm calculation: 227.000000 [mu s]
	Time per iteration and DOF: 0.894225 [ns]
	Retrieve results bandwidth 1.909000 [GByte/s]
[OGL LOG][Proc: 0]Uz: solve_multi_gpu: 67.11499999999999 [ms]
BJhipGKOBiCGStab:  Solving for Uz, Initial residual = 0.06341086432868537, Final residual = 0.005819678918552744, No Iterations 11
[INFO] MomentumPredictor: 270.394 [ms]
[INFO] MatrixAssemblyPI: 79.11499999999999 [ms]
[INFO] MatrixAssemblyPII: 36.923 [ms]
DICPCG:  Solving for p, Initial residual = 0.07866236697713165, Final residual = 0.0007791474106461367, No Iterations 122
[INFO] SolveP: 1159.023 [ms]
time step continuity errors : sum local = 0.006623427363389996, global = 0.001070819234716693, cumulative = 0.008586748684300054
[INFO] postSolveP: 19.893 [ms]
[OGL LOG][Proc: 0]: global_index_init: 6.748 [ms]
[OGL LOG][Proc: 0]nuTilda_local_coeffs: call_update: 0 [ms]
[OGL LOG][Proc: 0]nuTilda_non_local_coeffs: call_update: 0 [ms]
[OGL LOG][Proc: 0]nuTilda: update_local_matrix_data: 10.295 [ms]
[OGL LOG][Proc: 0]nuTilda: update_non_local_matrix_data: 0.098 [ms]
[OGL LOG][Proc: 0]nuTilda_matrix: call_update: 5.267 [ms]
[OGL LOG][Proc: 0]nuTilda_rhs: call_update: 1.593 [ms]
[OGL LOG][Preconditioner.H:121] Generate preconditioner BJ MaxBlockSize 1
[OGL LOG][Proc: 0]nuTilda: init_precond: 0.26 [ms]
[OGL LOG][StoppingCriterion.H:373] Creating stopping criterion with minIter 3 frequency 1
[OGL LOG][Proc: 0]nuTilda: generate_solver: 0.001 [ms]
[OGL LOG][Proc: 0]nuTilda: solve: 32.524 [ms]
[OGL LOG][Proc: 0]nuTilda: copy_x_back: 1.074 [ms]
[OGL LOG][lduLduBase.H:336] 
Statistics:
	Time per iteration: 16262 [mu s]
	Time per residual norm calculation: 231.000000 [mu s]
	Time per iteration and DOF: 2.578349 [ns]
	Retrieve results bandwidth 1.941000 [GByte/s]
[OGL LOG][Proc: 0]nuTilda: solve_multi_gpu: 41.429 [ms]
BJhipGKOBiCGStab:  Solving for nuTilda, Initial residual = 0.0467559116399763, Final residual = 0.003950304215773231, No Iterations 2
[INFO] TimeStep: 2320.166 [ms]
ExecutionTime = 32.7 s  ClockTime = 33 s

Time = 8

velocityDampingConstraint velocityDamping damped 0 (0%) of cells, with max limit 300
[INFO] MatrixAssemblyU: 455.517 [ms]
[OGL LOG][Proc: 0]: global_index_init: 0.752 [ms]
[OGL LOG][Proc: 0]Ux_local_coeffs: call_update: 0 [ms]
[OGL LOG][Proc: 0]Ux_non_local_coeffs: call_update: 0 [ms]
[OGL LOG][Proc: 0]Ux: update_local_matrix_data: 10.36 [ms]
[OGL LOG][Proc: 0]Ux: update_non_local_matrix_data: 0.08500000000000001 [ms]
[OGL LOG][Proc: 0]Ux_matrix: call_update: 3.341 [ms]
[OGL LOG][Proc: 0]Ux_rhs: call_update: 2.972 [ms]
[OGL LOG][Preconditioner.H:121] Generate preconditioner BJ MaxBlockSize 1
[OGL LOG][Proc: 0]Ux: init_precond: 0.261 [ms]
[OGL LOG][StoppingCriterion.H:373] Creating stopping criterion with minIter 13 frequency 1
[OGL LOG][Proc: 0]Ux: generate_solver: 0 [ms]
[OGL LOG][Proc: 0]Ux: solve: 45.55 [ms]
[OGL LOG][Proc: 0]Ux: copy_x_back: 1.069 [ms]
[OGL LOG][lduLduBase.H:336] 
Statistics:
	Time per iteration: 4555 [mu s]
	Time per residual norm calculation: 235.000000 [mu s]
	Time per iteration and DOF: 0.722198 [ns]
	Retrieve results bandwidth 1.950000 [GByte/s]
[OGL LOG][Proc: 0]Ux: solve_multi_gpu: 53.685 [ms]
BJhipGKOBiCGStab:  Solving for Ux, Initial residual = 0.02024760209674016, Final residual = 0.001896312174454534, No Iterations 10
[OGL LOG][Proc: 0]: global_index_init: 0.245 [ms]
[OGL LOG][Proc: 0]Uy_local_coeffs: call_update: 0 [ms]
[OGL LOG][Proc: 0]Uy_non_local_coeffs: call_update: 0 [ms]
[OGL LOG][Proc: 0]Uy: update_local_matrix_data: 10.296 [ms]
[OGL LOG][Proc: 0]Uy: update_non_local_matrix_data: 0.102 [ms]
[OGL LOG][Proc: 0]Uy_matrix: call_update: 2.786 [ms]
[OGL LOG][Proc: 0]Uy_rhs: call_update: 4.034 [ms]
[OGL LOG][Preconditioner.H:121] Generate preconditioner BJ MaxBlockSize 1
[OGL LOG][Proc: 0]Uy: init_precond: 0.364 [ms]
[OGL LOG][StoppingCriterion.H:373] Creating stopping criterion with minIter 13 frequency 1
[OGL LOG][Proc: 0]Uy: generate_solver: 0 [ms]
[OGL LOG][Proc: 0]Uy: solve: 52.083 [ms]
[OGL LOG][Proc: 0]Uy: copy_x_back: 1.074 [ms]
[OGL LOG][lduLduBase.H:336] 
Statistics:
	Time per iteration: 4734 [mu s]
	Time per residual norm calculation: 226.000000 [mu s]
	Time per iteration and DOF: 0.750578 [ns]
	Retrieve results bandwidth 1.941000 [GByte/s]
[OGL LOG][Proc: 0]Uy: solve_multi_gpu: 60.818 [ms]
BJhipGKOBiCGStab:  Solving for Uy, Initial residual = 0.05578415576554357, Final residual = 0.005344314894583159, No Iterations 11
[OGL LOG][Proc: 0]: global_index_init: 0.091 [ms]
[OGL LOG][Proc: 0]Uz_local_coeffs: call_update: 0 [ms]
[OGL LOG][Proc: 0]Uz_non_local_coeffs: call_update: 0 [ms]
[OGL LOG][Proc: 0]Uz: update_local_matrix_data: 10.38 [ms]
[OGL LOG][Proc: 0]Uz: update_non_local_matrix_data: 0.079 [ms]
[OGL LOG][Proc: 0]Uz_matrix: call_update: 2.792 [ms]
[OGL LOG][Proc: 0]Uz_rhs: call_update: 4.061 [ms]
[OGL LOG][Preconditioner.H:121] Generate preconditioner BJ MaxBlockSize 1
[OGL LOG][Proc: 0]Uz: init_precond: 0.277 [ms]
[OGL LOG][StoppingCriterion.H:373] Creating stopping criterion with minIter 13 frequency 1
[OGL LOG][Proc: 0]Uz: generate_solver: 0.001 [ms]
[OGL LOG][Proc: 0]Uz: solve: 57.438 [ms]
[OGL LOG][Proc: 0]Uz: copy_x_back: 1.076 [ms]
[OGL LOG][lduLduBase.H:336] 
Statistics:
	Time per iteration: 5221 [mu s]
	Time per residual norm calculation: 236.000000 [mu s]
	Time per iteration and DOF: 0.827793 [ns]
	Retrieve results bandwidth 1.938000 [GByte/s]
[OGL LOG][Proc: 0]Uz: solve_multi_gpu: 66.127 [ms]
BJhipGKOBiCGStab:  Solving for Uz, Initial residual = 0.04940242560588862, Final residual = 0.004639167810525506, No Iterations 11
[INFO] MomentumPredictor: 251.883 [ms]
[INFO] MatrixAssemblyPI: 79.224 [ms]
[INFO] MatrixAssemblyPII: 36.888 [ms]
DICPCG:  Solving for p, Initial residual = 0.07251095525037131, Final residual = 0.0007107343733110673, No Iterations 107
[INFO] SolveP: 1005.742 [ms]
time step continuity errors : sum local = 0.006050537334295105, global = 0.0002424924258784874, cumulative = 0.008829241110178541
[INFO] postSolveP: 19.247 [ms]
[OGL LOG][Proc: 0]: global_index_init: 11.449 [ms]
[OGL LOG][Proc: 0]nuTilda_local_coeffs: call_update: 0 [ms]
[OGL LOG][Proc: 0]nuTilda_non_local_coeffs: call_update: 0 [ms]
[OGL LOG][Proc: 0]nuTilda: update_local_matrix_data: 11.14 [ms]
[OGL LOG][Proc: 0]nuTilda: update_non_local_matrix_data: 0.089 [ms]
[OGL LOG][Proc: 0]nuTilda_matrix: call_update: 2.668 [ms]
[OGL LOG][Proc: 0]nuTilda_rhs: call_update: 3.4 [ms]
[OGL LOG][Preconditioner.H:121] Generate preconditioner BJ MaxBlockSize 1
[OGL LOG][Proc: 0]nuTilda: init_precond: 0.349 [ms]
[OGL LOG][StoppingCriterion.H:373] Creating stopping criterion with minIter 2 frequency 1
[OGL LOG][Proc: 0]nuTilda: generate_solver: 0 [ms]
[OGL LOG][Proc: 0]nuTilda: solve: 29.191 [ms]
[OGL LOG][Proc: 0]nuTilda: copy_x_back: 1.081 [ms]
[OGL LOG][lduLduBase.H:336] 
Statistics:
	Time per iteration: 14595 [mu s]
	Time per residual norm calculation: 227.000000 [mu s]
	Time per iteration and DOF: 2.314046 [ns]
	Retrieve results bandwidth 1.929000 [GByte/s]
[OGL LOG][Proc: 0]nuTilda: solve_multi_gpu: 37.208 [ms]
BJhipGKOBiCGStab:  Solving for nuTilda, Initial residual = 0.06007643366737424, Final residual = 0.002950456025435589, No Iterations 2
[INFO] TimeStep: 2147.186 [ms]
ExecutionTime = 35.18 s  ClockTime = 36 s

Time = 9

velocityDampingConstraint velocityDamping damped 0 (0%) of cells, with max limit 300
[INFO] MatrixAssemblyU: 447.496 [ms]
[OGL LOG][Proc: 0]: global_index_init: 0.849 [ms]
[OGL LOG][Proc: 0]Ux_local_coeffs: call_update: 0 [ms]
[OGL LOG][Proc: 0]Ux_non_local_coeffs: call_update: 0 [ms]
[OGL LOG][Proc: 0]Ux: update_local_matrix_data: 10.458 [ms]
[OGL LOG][Proc: 0]Ux: update_non_local_matrix_data: 0.093 [ms]
[OGL LOG][Proc: 0]Ux_matrix: call_update: 6.774 [ms]
[OGL LOG][Proc: 0]Ux_rhs: call_update: 0.334 [ms]
[OGL LOG][Preconditioner.H:121] Generate preconditioner BJ MaxBlockSize 1
[OGL LOG][Proc: 0]Ux: init_precond: 0.267 [ms]
[OGL LOG][StoppingCriterion.H:373] Creating stopping criterion with minIter 12 frequency 1
[OGL LOG][Proc: 0]Ux: generate_solver: 0 [ms]
[OGL LOG][Proc: 0]Ux: solve: 50.343 [ms]
[OGL LOG][Proc: 0]Ux: copy_x_back: 1.07 [ms]
[OGL LOG][lduLduBase.H:336] 
Statistics:
	Time per iteration: 4576 [mu s]
	Time per residual norm calculation: 232.000000 [mu s]
	Time per iteration and DOF: 0.725527 [ns]
	Retrieve results bandwidth 1.948000 [GByte/s]
[OGL LOG][Proc: 0]Ux: solve_multi_gpu: 59.272 [ms]
BJhipGKOBiCGStab:  Solving for Ux, Initial residual = 0.01722706328049526, Final residual = 0.001281874539626062, No Iterations 11
[OGL LOG][Proc: 0]: global_index_init: 0.34 [ms]
[OGL LOG][Proc: 0]Uy_local_coeffs: call_update: 0 [ms]
[OGL LOG][Proc: 0]Uy_non_local_coeffs: call_update: 0 [ms]
[OGL LOG][Proc: 0]Uy: update_local_matrix_data: 10.406 [ms]
[OGL LOG][Proc: 0]Uy: update_non_local_matrix_data: 0.099 [ms]
[OGL LOG][Proc: 0]Uy_matrix: call_update: 2.967 [ms]
[OGL LOG][Proc: 0]Uy_rhs: call_update: 3.746 [ms]
[OGL LOG][Preconditioner.H:121] Generate preconditioner BJ MaxBlockSize 1
[OGL LOG][Proc: 0]Uy: init_precond: 0.281 [ms]
[OGL LOG][StoppingCriterion.H:373] Creating stopping criterion with minIter 13 frequency 1
[OGL LOG][Proc: 0]Uy: generate_solver: 0.001 [ms]
[OGL LOG][Proc: 0]Uy: solve: 55.389 [ms]
[OGL LOG][Proc: 0]Uy: copy_x_back: 1.06 [ms]
[OGL LOG][lduLduBase.H:336] 
Statistics:
	Time per iteration: 4615 [mu s]
	Time per residual norm calculation: 231.000000 [mu s]
	Time per iteration and DOF: 0.731711 [ns]
	Retrieve results bandwidth 1.967000 [GByte/s]
[OGL LOG][Proc: 0]Uy: solve_multi_gpu: 63.928 [ms]
BJhipGKOBiCGStab:  Solving for Uy, Initial residual = 0.04878044881439352, Final residual = 0.003336824419508188, No Iterations 12
[OGL LOG][Proc: 0]: global_index_init: 0.458 [ms]
[OGL LOG][Proc: 0]Uz_local_coeffs: call_update: 0 [ms]
[OGL LOG][Proc: 0]Uz_non_local_coeffs: call_update: 0 [ms]
[OGL LOG][Proc: 0]Uz: update_local_matrix_data: 10.603 [ms]
[OGL LOG][Proc: 0]Uz: update_non_local_matrix_data: 0.08600000000000001 [ms]
[OGL LOG][Proc: 0]Uz_matrix: call_update: 2.841 [ms]
[OGL LOG][Proc: 0]Uz_rhs: call_update: 3.761 [ms]
[OGL LOG][Preconditioner.H:121] Generate preconditioner BJ MaxBlockSize 1
[OGL LOG][Proc: 0]Uz: init_precond: 0.305 [ms]
[OGL LOG][StoppingCriterion.H:373] Creating stopping criterion with minIter 13 frequency 1
[OGL LOG][Proc: 0]Uz: generate_solver: 0.001 [ms]
[OGL LOG][Proc: 0]Uz: solve: 63.68 [ms]
[OGL LOG][Proc: 0]Uz: copy_x_back: 1.059 [ms]
[OGL LOG][lduLduBase.H:336] 
Statistics:
	Time per iteration: 5789 [mu s]
	Time per residual norm calculation: 230.000000 [mu s]
	Time per iteration and DOF: 0.917849 [ns]
	Retrieve results bandwidth 1.969000 [GByte/s]
[OGL LOG][Proc: 0]Uz: solve_multi_gpu: 72.121 [ms]
BJhipGKOBiCGStab:  Solving for Uz, Initial residual = 0.04697048960376551, Final residual = 0.003787812519245818, No Iterations 11
[INFO] MomentumPredictor: 266.881 [ms]
[INFO] MatrixAssemblyPI: 81.524 [ms]
[INFO] MatrixAssemblyPII: 36.442 [ms]
DICPCG:  Solving for p, Initial residual = 0.06668192836976856, Final residual = 0.0006515564064021706, No Iterations 108
[INFO] SolveP: 1012.151 [ms]
time step continuity errors : sum local = 0.005536527022303734, global = -0.0004400750321001066, cumulative = 0.008389166078078434
[INFO] postSolveP: 19.358 [ms]
[OGL LOG][Proc: 0]: global_index_init: 5.401 [ms]
[OGL LOG][Proc: 0]nuTilda_local_coeffs: call_update: 0 [ms]
[OGL LOG][Proc: 0]nuTilda_non_local_coeffs: call_update: 0 [ms]
[OGL LOG][Proc: 0]nuTilda: update_local_matrix_data: 10.8 [ms]
[OGL LOG][Proc: 0]nuTilda: update_non_local_matrix_data: 0.101 [ms]
[OGL LOG][Proc: 0]nuTilda_matrix: call_update: 2.753 [ms]
[OGL LOG][Proc: 0]nuTilda_rhs: call_update: 5.231 [ms]
[OGL LOG][Preconditioner.H:121] Generate preconditioner BJ MaxBlockSize 1
[OGL LOG][Proc: 0]nuTilda: init_precond: 0.362 [ms]
[OGL LOG][StoppingCriterion.H:373] Creating stopping criterion with minIter 3 frequency 1
[OGL LOG][Proc: 0]nuTilda: generate_solver: 0.001 [ms]
[OGL LOG][Proc: 0]nuTilda: solve: 27.688 [ms]
[OGL LOG][Proc: 0]nuTilda: copy_x_back: 1.096 [ms]
[OGL LOG][lduLduBase.H:336] 
Statistics:
	Time per iteration: 13844 [mu s]
	Time per residual norm calculation: 234.000000 [mu s]
	Time per iteration and DOF: 2.194974 [ns]
	Retrieve results bandwidth 1.902000 [GByte/s]
[OGL LOG][Proc: 0]nuTilda: solve_multi_gpu: 37.635 [ms]
BJhipGKOBiCGStab:  Solving for nuTilda, Initial residual = 0.04138023845885519, Final residual = 0.003749630430951396, No Iterations 2
[INFO] TimeStep: 2157.217 [ms]
ExecutionTime = 37.67 s  ClockTime = 38 s

Time = 10

velocityDampingConstraint velocityDamping damped 0 (0%) of cells, with max limit 300
[INFO] MatrixAssemblyU: 446.586 [ms]
[OGL LOG][Proc: 0]: global_index_init: 0.99 [ms]
[OGL LOG][Proc: 0]Ux_local_coeffs: call_update: 0 [ms]
[OGL LOG][Proc: 0]Ux_non_local_coeffs: call_update: 0 [ms]
[OGL LOG][Proc: 0]Ux: update_local_matrix_data: 10.127 [ms]
[OGL LOG][Proc: 0]Ux: update_non_local_matrix_data: 0.08 [ms]
[OGL LOG][Proc: 0]Ux_matrix: call_update: 2.846 [ms]
[OGL LOG][Proc: 0]Ux_rhs: call_update: 3.425 [ms]
[OGL LOG][Preconditioner.H:121] Generate preconditioner BJ MaxBlockSize 1
[OGL LOG][Proc: 0]Ux: init_precond: 0.291 [ms]
[OGL LOG][StoppingCriterion.H:373] Creating stopping criterion with minIter 13 frequency 1
[OGL LOG][Proc: 0]Ux: generate_solver: 0 [ms]
[OGL LOG][Proc: 0]Ux: solve: 54.344 [ms]
[OGL LOG][Proc: 0]Ux: copy_x_back: 1.084 [ms]
[OGL LOG][lduLduBase.H:336] 
Statistics:
	Time per iteration: 4940 [mu s]
	Time per residual norm calculation: 226.000000 [mu s]
	Time per iteration and DOF: 0.783240 [ns]
	Retrieve results bandwidth 1.923000 [GByte/s]
[OGL LOG][Proc: 0]Ux: solve_multi_gpu: 62.493 [ms]
BJhipGKOBiCGStab:  Solving for Ux, Initial residual = 0.01601593943178622, Final residual = 0.001511127637105708, No Iterations 11
[OGL LOG][Proc: 0]: global_index_init: 0.194 [ms]
[OGL LOG][Proc: 0]Uy_local_coeffs: call_update: 0 [ms]
[OGL LOG][Proc: 0]Uy_non_local_coeffs: call_update: 0 [ms]
[OGL LOG][Proc: 0]Uy: update_local_matrix_data: 10.353 [ms]
[OGL LOG][Proc: 0]Uy: update_non_local_matrix_data: 0.108 [ms]
[OGL LOG][Proc: 0]Uy_matrix: call_update: 2.751 [ms]
[OGL LOG][Proc: 0]Uy_rhs: call_update: 6.187 [ms]
[OGL LOG][Preconditioner.H:121] Generate preconditioner BJ MaxBlockSize 1
[OGL LOG][Proc: 0]Uy: init_precond: 0.264 [ms]
[OGL LOG][StoppingCriterion.H:373] Creating stopping criterion with minIter 14 frequency 1
[OGL LOG][Proc: 0]Uy: generate_solver: 0.001 [ms]
[OGL LOG][Proc: 0]Uy: solve: 54.687 [ms]
[OGL LOG][Proc: 0]Uy: copy_x_back: 1.064 [ms]
[OGL LOG][lduLduBase.H:336] 
Statistics:
	Time per iteration: 4206 [mu s]
	Time per residual norm calculation: 234.000000 [mu s]
	Time per iteration and DOF: 0.666864 [ns]
	Retrieve results bandwidth 1.959000 [GByte/s]
[OGL LOG][Proc: 0]Uy: solve_multi_gpu: 65.455 [ms]
BJhipGKOBiCGStab:  Solving for Uy, Initial residual = 0.04690190979189772, Final residual = 0.003151148423660288, No Iterations 13
[OGL LOG][Proc: 0]: global_index_init: 0.151 [ms]
[OGL LOG][Proc: 0]Uz_local_coeffs: call_update: 0 [ms]
[OGL LOG][Proc: 0]Uz_non_local_coeffs: call_update: 0 [ms]
[OGL LOG][Proc: 0]Uz: update_local_matrix_data: 10.094 [ms]
[OGL LOG][Proc: 0]Uz: update_non_local_matrix_data: 0.081 [ms]
[OGL LOG][Proc: 0]Uz_matrix: call_update: 5.701000000000001 [ms]
[OGL LOG][Proc: 0]Uz_rhs: call_update: 2.222 [ms]
[OGL LOG][Preconditioner.H:121] Generate preconditioner BJ MaxBlockSize 1
[OGL LOG][Proc: 0]Uz: init_precond: 0.372 [ms]
[OGL LOG][StoppingCriterion.H:373] Creating stopping criterion with minIter 13 frequency 1
[OGL LOG][Proc: 0]Uz: generate_solver: 0.001 [ms]
[OGL LOG][Proc: 0]Uz: solve: 60.232 [ms]
[OGL LOG][Proc: 0]Uz: copy_x_back: 1.075 [ms]
[OGL LOG][lduLduBase.H:336] 
Statistics:
	Time per iteration: 5475 [mu s]
	Time per residual norm calculation: 221.000000 [mu s]
	Time per iteration and DOF: 0.868064 [ns]
	Retrieve results bandwidth 1.939000 [GByte/s]
[OGL LOG][Proc: 0]Uz: solve_multi_gpu: 70.08500000000001 [ms]
BJhipGKOBiCGStab:  Solving for Uz, Initial residual = 0.04014920752795095, Final residual = 0.00398041886894286, No Iterations 11
[INFO] MomentumPredictor: 270.075 [ms]
[INFO] MatrixAssemblyPI: 81.971 [ms]
[INFO] MatrixAssemblyPII: 36.745 [ms]
DICPCG:  Solving for p, Initial residual = 0.06042657858504698, Final residual = 0.0005971854415994617, No Iterations 111
[INFO] SolveP: 1042.996 [ms]
time step continuity errors : sum local = 0.004961755411885525, global = -0.0007762550437481818, cumulative = 0.007612911034330252
[INFO] postSolveP: 19.359 [ms]
[OGL LOG][Proc: 0]: global_index_init: 4.252 [ms]
[OGL LOG][Proc: 0]nuTilda_local_coeffs: call_update: 0 [ms]
[OGL LOG][Proc: 0]nuTilda_non_local_coeffs: call_update: 0 [ms]
[OGL LOG][Proc: 0]nuTilda: update_local_matrix_data: 10.806 [ms]
[OGL LOG][Proc: 0]nuTilda: update_non_local_matrix_data: 0.094 [ms]
[OGL LOG][Proc: 0]nuTilda_matrix: call_update: 4.256 [ms]
[OGL LOG][Proc: 0]nuTilda_rhs: call_update: 5.257 [ms]
[OGL LOG][Preconditioner.H:121] Generate preconditioner BJ MaxBlockSize 1
[OGL LOG][Proc: 0]nuTilda: init_precond: 0.261 [ms]
[OGL LOG][StoppingCriterion.H:373] Creating stopping criterion with minIter 2 frequency 1
[OGL LOG][Proc: 0]nuTilda: generate_solver: 0.001 [ms]
[OGL LOG][Proc: 0]nuTilda: solve: 34.416 [ms]
[OGL LOG][Proc: 0]nuTilda: copy_x_back: 1.106 [ms]
[OGL LOG][lduLduBase.H:336] 
Statistics:
	Time per iteration: 17208 [mu s]
	Time per residual norm calculation: 384.000000 [mu s]
	Time per iteration and DOF: 2.728338 [ns]
	Retrieve results bandwidth 1.885000 [GByte/s]
[OGL LOG][Proc: 0]nuTilda: solve_multi_gpu: 45.792 [ms]
BJhipGKOBiCGStab:  Solving for nuTilda, Initial residual = 0.06604971706153442, Final residual = 0.002902756443156278, No Iterations 2
[INFO] TimeStep: 2198.071 [ms]
ExecutionTime = 40.2 s  ClockTime = 41 s

Time = 11

velocityDampingConstraint velocityDamping damped 0 (0%) of cells, with max limit 300
[INFO] MatrixAssemblyU: 446.739 [ms]
[OGL LOG][Proc: 0]: global_index_init: 0.9400000000000001 [ms]
[OGL LOG][Proc: 0]Ux_local_coeffs: call_update: 0 [ms]
[OGL LOG][Proc: 0]Ux_non_local_coeffs: call_update: 0 [ms]
[OGL LOG][Proc: 0]Ux: update_local_matrix_data: 10.237 [ms]
[OGL LOG][Proc: 0]Ux: update_non_local_matrix_data: 0.08799999999999999 [ms]
[OGL LOG][Proc: 0]Ux_matrix: call_update: 2.711 [ms]
[OGL LOG][Proc: 0]Ux_rhs: call_update: 3.886 [ms]
[OGL LOG][Preconditioner.H:121] Generate preconditioner BJ MaxBlockSize 1
[OGL LOG][Proc: 0]Ux: init_precond: 0.284 [ms]
[OGL LOG][StoppingCriterion.H:373] Creating stopping criterion with minIter 13 frequency 1
[OGL LOG][Proc: 0]Ux: generate_solver: 0.001 [ms]
[OGL LOG][Proc: 0]Ux: solve: 44.81 [ms]
[OGL LOG][Proc: 0]Ux: copy_x_back: 1.067 [ms]
[OGL LOG][lduLduBase.H:336] 
Statistics:
	Time per iteration: 4978 [mu s]
	Time per residual norm calculation: 219.000000 [mu s]
	Time per iteration and DOF: 0.789265 [ns]
	Retrieve results bandwidth 1.954000 [GByte/s]
[OGL LOG][Proc: 0]Ux: solve_multi_gpu: 53.22 [ms]
BJhipGKOBiCGStab:  Solving for Ux, Initial residual = 0.01423650110313675, Final residual = 0.001324239337402378, No Iterations 9
[OGL LOG][Proc: 0]: global_index_init: 0.315 [ms]
[OGL LOG][Proc: 0]Uy_local_coeffs: call_update: 0 [ms]
[OGL LOG][Proc: 0]Uy_non_local_coeffs: call_update: 0 [ms]
[OGL LOG][Proc: 0]Uy: update_local_matrix_data: 9.823 [ms]
[OGL LOG][Proc: 0]Uy: update_non_local_matrix_data: 0.08600000000000001 [ms]
[OGL LOG][Proc: 0]Uy_matrix: call_update: 3.553 [ms]
[OGL LOG][Proc: 0]Uy_rhs: call_update: 3.068 [ms]
[OGL LOG][Preconditioner.H:121] Generate preconditioner BJ MaxBlockSize 1
[OGL LOG][Proc: 0]Uy: init_precond: 0.254 [ms]
[OGL LOG][StoppingCriterion.H:373] Creating stopping criterion with minIter 15 frequency 1
[OGL LOG][Proc: 0]Uy: generate_solver: 0.001 [ms]
[OGL LOG][Proc: 0]Uy: solve: 68.489 [ms]
[OGL LOG][Proc: 0]Uy: copy_x_back: 1.068 [ms]
[OGL LOG][lduLduBase.H:336] 
Statistics:
	Time per iteration: 5268 [mu s]
	Time per residual norm calculation: 230.000000 [mu s]
	Time per iteration and DOF: 0.835244 [ns]
	Retrieve results bandwidth 1.952000 [GByte/s]
[OGL LOG][Proc: 0]Uy: solve_multi_gpu: 76.89400000000001 [ms]
BJhipGKOBiCGStab:  Solving for Uy, Initial residual = 0.04251818755734516, Final residual = 0.003286036801177431, No Iterations 13
[OGL LOG][Proc: 0]: global_index_init: 0.465 [ms]
[OGL LOG][Proc: 0]Uz_local_coeffs: call_update: 0 [ms]
[OGL LOG][Proc: 0]Uz_non_local_coeffs: call_update: 0 [ms]
[OGL LOG][Proc: 0]Uz: update_local_matrix_data: 10.121 [ms]
[OGL LOG][Proc: 0]Uz: update_non_local_matrix_data: 0.082 [ms]
[OGL LOG][Proc: 0]Uz_matrix: call_update: 3.202 [ms]
[OGL LOG][Proc: 0]Uz_rhs: call_update: 3.037 [ms]
[OGL LOG][Preconditioner.H:121] Generate preconditioner BJ MaxBlockSize 1
[OGL LOG][Proc: 0]Uz: init_precond: 0.263 [ms]
[OGL LOG][StoppingCriterion.H:373] Creating stopping criterion with minIter 13 frequency 1
[OGL LOG][Proc: 0]Uz: generate_solver: 0.001 [ms]
[OGL LOG][Proc: 0]Uz: solve: 49.704 [ms]
[OGL LOG][Proc: 0]Uz: copy_x_back: 1.068 [ms]
[OGL LOG][lduLduBase.H:336] 
Statistics:
	Time per iteration: 4518 [mu s]
	Time per residual norm calculation: 221.000000 [mu s]
	Time per iteration and DOF: 0.716331 [ns]
	Retrieve results bandwidth 1.952000 [GByte/s]
[OGL LOG][Proc: 0]Uz: solve_multi_gpu: 57.765 [ms]
BJhipGKOBiCGStab:  Solving for Uz, Initial residual = 0.03765587646162804, Final residual = 0.003384904420613356, No Iterations 11
[INFO] MomentumPredictor: 257.972 [ms]
[INFO] MatrixAssemblyPI: 79.077 [ms]
[INFO] MatrixAssemblyPII: 36.71 [ms]
DICPCG:  Solving for p, Initial residual = 0.05662563750997854, Final residual = 0.0005655333327484448, No Iterations 103
[INFO] SolveP: 987.235 [ms]
time step continuity errors : sum local = 0.00463242323129285, global = -0.000791692471329675, cumulative = 0.006821218563000577
[INFO] postSolveP: 19.11 [ms]
[OGL LOG][Proc: 0]: global_index_init: 4.115 [ms]
[OGL LOG][Proc: 0]nuTilda_local_coeffs: call_update: 0 [ms]
[OGL LOG][Proc: 0]nuTilda_non_local_coeffs: call_update: 0 [ms]
[OGL LOG][Proc: 0]nuTilda: update_local_matrix_data: 10.881 [ms]
[OGL LOG][Proc: 0]nuTilda: update_non_local_matrix_data: 0.099 [ms]
[OGL LOG][Proc: 0]nuTilda_matrix: call_update: 2.853 [ms]
[OGL LOG][Proc: 0]nuTilda_rhs: call_update: 4.55 [ms]
[OGL LOG][Preconditioner.H:121] Generate preconditioner BJ MaxBlockSize 1
[OGL LOG][Proc: 0]nuTilda: init_precond: 0.276 [ms]
[OGL LOG][StoppingCriterion.H:373] Creating stopping criterion with minIter 3 frequency 1
[OGL LOG][Proc: 0]nuTilda: generate_solver: 0.001 [ms]
[OGL LOG][Proc: 0]nuTilda: solve: 30.499 [ms]
[OGL LOG][Proc: 0]nuTilda: copy_x_back: 1.09 [ms]
[OGL LOG][lduLduBase.H:336] 
Statistics:
	Time per iteration: 15249 [mu s]
	Time per residual norm calculation: 234.000000 [mu s]
	Time per iteration and DOF: 2.417738 [ns]
	Retrieve results bandwidth 1.913000 [GByte/s]
[OGL LOG][Proc: 0]nuTilda: solve_multi_gpu: 39.751 [ms]
BJhipGKOBiCGStab:  Solving for nuTilda, Initial residual = 0.03689744954171603, Final residual = 0.003365348851027248, No Iterations 2
[INFO] TimeStep: 2121.06 [ms]
ExecutionTime = 42.66 s  ClockTime = 43 s

Time = 12

velocityDampingConstraint velocityDamping damped 0 (0%) of cells, with max limit 300
[INFO] MatrixAssemblyU: 443.846 [ms]
[OGL LOG][Proc: 0]: global_index_init: 0.877 [ms]
[OGL LOG][Proc: 0]Ux_local_coeffs: call_update: 0 [ms]
[OGL LOG][Proc: 0]Ux_non_local_coeffs: call_update: 0 [ms]
[OGL LOG][Proc: 0]Ux: update_local_matrix_data: 10.322 [ms]
[OGL LOG][Proc: 0]Ux: update_non_local_matrix_data: 0.103 [ms]
[OGL LOG][Proc: 0]Ux_matrix: call_update: 2.893 [ms]
[OGL LOG][Proc: 0]Ux_rhs: call_update: 3.889 [ms]
[OGL LOG][Preconditioner.H:121] Generate preconditioner BJ MaxBlockSize 1
[OGL LOG][Proc: 0]Ux: init_precond: 0.373 [ms]
[OGL LOG][StoppingCriterion.H:373] Creating stopping criterion with minIter 11 frequency 1
[OGL LOG][Proc: 0]Ux: generate_solver: 0.001 [ms]
[OGL LOG][Proc: 0]Ux: solve: 51.92 [ms]
[OGL LOG][Proc: 0]Ux: copy_x_back: 1.08 [ms]
[OGL LOG][lduLduBase.H:336] 
Statistics:
	Time per iteration: 4326 [mu s]
	Time per residual norm calculation: 230.000000 [mu s]
	Time per iteration and DOF: 0.685890 [ns]
	Retrieve results bandwidth 1.930000 [GByte/s]
[OGL LOG][Proc: 0]Ux: solve_multi_gpu: 60.624 [ms]
BJhipGKOBiCGStab:  Solving for Ux, Initial residual = 0.01316615956901476, Final residual = 0.0007157104808103387, No Iterations 12
[OGL LOG][Proc: 0]: global_index_init: 0.304 [ms]
[OGL LOG][Proc: 0]Uy_local_coeffs: call_update: 0 [ms]
[OGL LOG][Proc: 0]Uy_non_local_coeffs: call_update: 0 [ms]
[OGL LOG][Proc: 0]Uy: update_local_matrix_data: 10.267 [ms]
[OGL LOG][Proc: 0]Uy: update_non_local_matrix_data: 0.091 [ms]
[OGL LOG][Proc: 0]Uy_matrix: call_update: 3.009 [ms]
[OGL LOG][Proc: 0]Uy_rhs: call_update: 6.597 [ms]
[OGL LOG][Preconditioner.H:121] Generate preconditioner BJ MaxBlockSize 1
[OGL LOG][Proc: 0]Uy: init_precond: 0.262 [ms]
[OGL LOG][StoppingCriterion.H:373] Creating stopping criterion with minIter 15 frequency 1
[OGL LOG][Proc: 0]Uy: generate_solver: 0.001 [ms]
[OGL LOG][Proc: 0]Uy: solve: 68.155 [ms]
[OGL LOG][Proc: 0]Uy: copy_x_back: 1.059 [ms]
[OGL LOG][lduLduBase.H:336] 
Statistics:
	Time per iteration: 4543 [mu s]
	Time per residual norm calculation: 231.000000 [mu s]
	Time per iteration and DOF: 0.720295 [ns]
	Retrieve results bandwidth 1.969000 [GByte/s]
[OGL LOG][Proc: 0]Uy: solve_multi_gpu: 79.578 [ms]
BJhipGKOBiCGStab:  Solving for Uy, Initial residual = 0.04082859194905075, Final residual = 0.003223830068721402, No Iterations 15
[OGL LOG][Proc: 0]: global_index_init: 0.03 [ms]
[OGL LOG][Proc: 0]Uz_local_coeffs: call_update: 0 [ms]
[OGL LOG][Proc: 0]Uz_non_local_coeffs: call_update: 0 [ms]
[OGL LOG][Proc: 0]Uz: update_local_matrix_data: 10.397 [ms]
[OGL LOG][Proc: 0]Uz: update_non_local_matrix_data: 0.138 [ms]
[OGL LOG][Proc: 0]Uz_matrix: call_update: 3.424 [ms]
[OGL LOG][Proc: 0]Uz_rhs: call_update: 3.251 [ms]
[OGL LOG][Preconditioner.H:121] Generate preconditioner BJ MaxBlockSize 1
[OGL LOG][Proc: 0]Uz: init_precond: 0.257 [ms]
[OGL LOG][StoppingCriterion.H:373] Creating stopping criterion with minIter 13 frequency 1
[OGL LOG][Proc: 0]Uz: generate_solver: 0 [ms]
[OGL LOG][Proc: 0]Uz: solve: 46.74 [ms]
[OGL LOG][Proc: 0]Uz: copy_x_back: 1.077 [ms]
[OGL LOG][lduLduBase.H:336] 
Statistics:
	Time per iteration: 4674 [mu s]
	Time per residual norm calculation: 220.000000 [mu s]
	Time per iteration and DOF: 0.741065 [ns]
	Retrieve results bandwidth 1.936000 [GByte/s]
[OGL LOG][Proc: 0]Uz: solve_multi_gpu: 55.234 [ms]
BJhipGKOBiCGStab:  Solving for Uz, Initial residual = 0.03614469230786086, Final residual = 0.003446555053262352, No Iterations 10
[INFO] MomentumPredictor: 266.381 [ms]
[INFO] MatrixAssemblyPI: 80.98 [ms]
[INFO] MatrixAssemblyPII: 36.993 [ms]
DICPCG:  Solving for p, Initial residual = 0.0546623723186567, Final residual = 0.000533821983611816, No Iterations 106
[INFO] SolveP: 1003.964 [ms]
time step continuity errors : sum local = 0.004312306944229929, global = -0.0005724618774789914, cumulative = 0.006248756685521586
[INFO] postSolveP: 19.252 [ms]
[OGL LOG][Proc: 0]: global_index_init: 3.995 [ms]
[OGL LOG][Proc: 0]nuTilda_local_coeffs: call_update: 0 [ms]
[OGL LOG][Proc: 0]nuTilda_non_local_coeffs: call_update: 0 [ms]
[OGL LOG][Proc: 0]nuTilda: update_local_matrix_data: 9.952 [ms]
[OGL LOG][Proc: 0]nuTilda: update_non_local_matrix_data: 0.132 [ms]
[OGL LOG][Proc: 0]nuTilda_matrix: call_update: 2.719 [ms]
[OGL LOG][Proc: 0]nuTilda_rhs: call_update: 4.501 [ms]
[OGL LOG][Preconditioner.H:121] Generate preconditioner BJ MaxBlockSize 1
[OGL LOG][Proc: 0]nuTilda: init_precond: 0.258 [ms]
[OGL LOG][StoppingCriterion.H:373] Creating stopping criterion with minIter 2 frequency 1
[OGL LOG][Proc: 0]nuTilda: generate_solver: 0.001 [ms]
[OGL LOG][Proc: 0]nuTilda: solve: 28.148 [ms]
[OGL LOG][Proc: 0]nuTilda: copy_x_back: 1.096 [ms]
[OGL LOG][lduLduBase.H:336] 
Statistics:
	Time per iteration: 14074 [mu s]
	Time per residual norm calculation: 236.000000 [mu s]
	Time per iteration and DOF: 2.231441 [ns]
	Retrieve results bandwidth 1.902000 [GByte/s]
[OGL LOG][Proc: 0]nuTilda: solve_multi_gpu: 37.216 [ms]
BJhipGKOBiCGStab:  Solving for nuTilda, Initial residual = 0.06254038842948852, Final residual = 0.005991762731576525, No Iterations 2
[INFO] TimeStep: 2140.494 [ms]
ExecutionTime = 45.13 s  ClockTime = 46 s

Time = 13

velocityDampingConstraint velocityDamping damped 0 (0%) of cells, with max limit 300
[INFO] MatrixAssemblyU: 452.009 [ms]
[OGL LOG][Proc: 0]: global_index_init: 0.589 [ms]
[OGL LOG][Proc: 0]Ux_local_coeffs: call_update: 0 [ms]
[OGL LOG][Proc: 0]Ux_non_local_coeffs: call_update: 0 [ms]
[OGL LOG][Proc: 0]Ux: update_local_matrix_data: 10.476 [ms]
[OGL LOG][Proc: 0]Ux: update_non_local_matrix_data: 0.123 [ms]
[OGL LOG][Proc: 0]Ux_matrix: call_update: 2.853 [ms]
[OGL LOG][Proc: 0]Ux_rhs: call_update: 3.66 [ms]
[OGL LOG][Preconditioner.H:121] Generate preconditioner BJ MaxBlockSize 1
[OGL LOG][Proc: 0]Ux: init_precond: 0.361 [ms]
[...]
[OGL LOG][Proc: 0]Uy_non_local_coeffs: call_update: 0 [ms]
[OGL LOG][Proc: 0]Uy: update_local_matrix_data: 10.474 [ms]
[OGL LOG][Proc: 0]Uy: update_non_local_matrix_data: 0.08600000000000001 [ms]
[OGL LOG][Proc: 0]Uy_matrix: call_update: 3.024 [ms]
[OGL LOG][Proc: 0]Uy_rhs: call_update: 4.711 [ms]
[OGL LOG][Preconditioner.H:121] Generate preconditioner BJ MaxBlockSize 1
[OGL LOG][Proc: 0]Uy: init_precond: 0.278 [ms]
[OGL LOG][StoppingCriterion.H:373] Creating stopping criterion with minIter 18 frequency 1
[OGL LOG][Proc: 0]Uy: generate_solver: 0.001 [ms]
[OGL LOG][Proc: 0]Uy: solve: 51.79 [ms]
[OGL LOG][Proc: 0]Uy: copy_x_back: 1.057 [ms]
[OGL LOG][lduLduBase.H:336] 
Statistics:
	Time per iteration: 4315 [mu s]
	Time per residual norm calculation: 231.000000 [mu s]
	Time per iteration and DOF: 0.684146 [ns]
	Retrieve results bandwidth 1.972000 [GByte/s]
[OGL LOG][Proc: 0]Uy: solve_multi_gpu: 61.341 [ms]
BJhipGKOBiCGStab:  Solving for Uy, Initial residual = 0.06584308931074831, Final residual = 0.00654594045501094, No Iterations 12
[OGL LOG][Proc: 0]: global_index_init: 0.205 [ms]
[OGL LOG][Proc: 0]Uz_local_coeffs: call_update: 0 [ms]
[OGL LOG][Proc: 0]Uz_non_local_coeffs: call_update: 0 [ms]
[OGL LOG][Proc: 0]Uz: update_local_matrix_data: 10.557 [ms]
[OGL LOG][Proc: 0]Uz: update_non_local_matrix_data: 0.08400000000000001 [ms]
[OGL LOG][Proc: 0]Uz_matrix: call_update: 2.807 [ms]
[OGL LOG][Proc: 0]Uz_rhs: call_update: 3.492 [ms]
[OGL LOG][Preconditioner.H:121] Generate preconditioner BJ MaxBlockSize 1
[OGL LOG][Proc: 0]Uz: init_precond: 0.323 [ms]
[OGL LOG][StoppingCriterion.H:373] Creating stopping criterion with minIter 12 frequency 1
[OGL LOG][Proc: 0]Uz: generate_solver: 0.001 [ms]
[OGL LOG][Proc: 0]Uz: solve: 63.179 [ms]
[OGL LOG][Proc: 0]Uz: copy_x_back: 1.073 [ms]
[OGL LOG][lduLduBase.H:336] 
Statistics:
	Time per iteration: 6317 [mu s]
	Time per residual norm calculation: 217.000000 [mu s]
	Time per iteration and DOF: 1.001564 [ns]
	Retrieve results bandwidth 1.943000 [GByte/s]
[OGL LOG][Proc: 0]Uz: solve_multi_gpu: 71.35000000000001 [ms]
BJhipGKOBiCGStab:  Solving for Uz, Initial residual = 0.06374685734376739, Final residual = 0.006161043485916367, No Iterations 10
[INFO] MomentumPredictor: 264.92 [ms]
[INFO] MatrixAssemblyPI: 78.074 [ms]
[INFO] MatrixAssemblyPII: 36.686 [ms]
DICPCG:  Solving for p, Initial residual = 0.05123646702479914, Final residual = 0.0005063304496385848, No Iterations 103
[INFO] SolveP: 980.417 [ms]
time step continuity errors : sum local = 0.005105107976627611, global = -0.0007207914440569106, cumulative = 0.01273728366568698
[INFO] postSolveP: 19.532 [ms]
[OGL LOG][Proc: 0]: global_index_init: 7.085 [ms]
[OGL LOG][Proc: 0]nuTilda_local_coeffs: call_update: 0 [ms]
[OGL LOG][Proc: 0]nuTilda_non_local_coeffs: call_update: 0 [ms]
[OGL LOG][Proc: 0]nuTilda: update_local_matrix_data: 9.887 [ms]
[OGL LOG][Proc: 0]nuTilda: update_non_local_matrix_data: 0.111 [ms]
[OGL LOG][Proc: 0]nuTilda_matrix: call_update: 3.549 [ms]
[OGL LOG][Proc: 0]nuTilda_rhs: call_update: 4.892 [ms]
[OGL LOG][Preconditioner.H:121] Generate preconditioner BJ MaxBlockSize 1
[OGL LOG][Proc: 0]nuTilda: init_precond: 0.276 [ms]
[OGL LOG][StoppingCriterion.H:373] Creating stopping criterion with minIter 2 frequency 1
[OGL LOG][Proc: 0]nuTilda: generate_solver: 0.001 [ms]
[OGL LOG][Proc: 0]nuTilda: solve: 30.117 [ms]
[OGL LOG][Proc: 0]nuTilda: copy_x_back: 1.086 [ms]
[OGL LOG][lduLduBase.H:336] 
Statistics:
	Time per iteration: 15058 [mu s]
	Time per residual norm calculation: 432.000000 [mu s]
	Time per iteration and DOF: 2.387454 [ns]
	Retrieve results bandwidth 1.920000 [GByte/s]
[OGL LOG][Proc: 0]nuTilda: solve_multi_gpu: 40.436 [ms]
BJhipGKOBiCGStab:  Solving for nuTilda, Initial residual = 0.01154831960940233, Final residual = 0.0008883983531619958, No Iterations 2
bounding nuTilda, min: -3.811321897243225e-05 max: 0.006906174151194182 average: 0.0003463251980403642
[INFO] TimeStep: 2146.898 [ms]
ExecutionTime = 134 s  ClockTime = 135 s

Time = 48

velocityDampingConstraint velocityDamping damped 0 (0%) of cells, with max limit 300
[INFO] MatrixAssemblyU: 450.555 [ms]
[OGL LOG][Proc: 0]: global_index_init: 0.871 [ms]
[OGL LOG][Proc: 0]Ux_local_coeffs: call_update: 0 [ms]
[OGL LOG][Proc: 0]Ux_non_local_coeffs: call_update: 0 [ms]
[OGL LOG][Proc: 0]Ux: update_local_matrix_data: 10.819 [ms]
[OGL LOG][Proc: 0]Ux: update_non_local_matrix_data: 0.08500000000000001 [ms]
[OGL LOG][Proc: 0]Ux_matrix: call_update: 5.748 [ms]
[OGL LOG][Proc: 0]Ux_rhs: call_update: 0.274 [ms]
[OGL LOG][Preconditioner.H:121] Generate preconditioner BJ MaxBlockSize 1
[OGL LOG][Proc: 0]Ux: init_precond: 0.293 [ms]
[OGL LOG][StoppingCriterion.H:373] Creating stopping criterion with minIter 15 frequency 1
[OGL LOG][Proc: 0]Ux: generate_solver: 0.001 [ms]
[OGL LOG][Proc: 0]Ux: solve: 51.71 [ms]
[OGL LOG][Proc: 0]Ux: copy_x_back: 1.07 [ms]
[OGL LOG][lduLduBase.H:336] 
Statistics:
	Time per iteration: 4309 [mu s]
	Time per residual norm calculation: 231.000000 [mu s]
	Time per iteration and DOF: 0.683194 [ns]
	Retrieve results bandwidth 1.948000 [GByte/s]
[OGL LOG][Proc: 0]Ux: solve_multi_gpu: 59.577 [ms]
BJhipGKOBiCGStab:  Solving for Ux, Initial residual = 0.01026069034617469, Final residual = 0.0006051588715803241, No Iterations 12
[OGL LOG][Proc: 0]: global_index_init: 0.261 [ms]
[OGL LOG][Proc: 0]Uy_local_coeffs: call_update: 0 [ms]
[OGL LOG][Proc: 0]Uy_non_local_coeffs: call_update: 0 [ms]
[OGL LOG][Proc: 0]Uy: update_local_matrix_data: 11.544 [ms]
[OGL LOG][Proc: 0]Uy: update_non_local_matrix_data: 0.098 [ms]
[OGL LOG][Proc: 0]Uy_matrix: call_update: 2.729 [ms]
[OGL LOG][Proc: 0]Uy_rhs: call_update: 6.2 [ms]
[OGL LOG][Preconditioner.H:121] Generate preconditioner BJ MaxBlockSize 1
[OGL LOG][Proc: 0]Uy: init_precond: 0.281 [ms]
[OGL LOG][StoppingCriterion.H:373] Creating stopping criterion with minIter 14 frequency 1
[OGL LOG][Proc: 0]Uy: generate_solver: 0.001 [ms]
[OGL LOG][Proc: 0]Uy: solve: 77.77200000000001 [ms]
[OGL LOG][Proc: 0]Uy: copy_x_back: 1.061 [ms]
[OGL LOG][lduLduBase.H:336] 
Statistics:
	Time per iteration: 5184 [mu s]
	Time per residual norm calculation: 249.000000 [mu s]
	Time per iteration and DOF: 0.821926 [ns]
	Retrieve results bandwidth 1.965000 [GByte/s]
[OGL LOG][Proc: 0]Uy: solve_multi_gpu: 88.514 [ms]
BJhipGKOBiCGStab:  Solving for Uy, Initial residual = 0.06381997912539789, Final residual = 0.005854240542347564, No Iterations 15
[OGL LOG][Proc: 0]: global_index_init: 0.11 [ms]
[OGL LOG][Proc: 0]Uz_local_coeffs: call_update: 0 [ms]
[OGL LOG][Proc: 0]Uz_non_local_coeffs: call_update: 0 [ms]
[OGL LOG][Proc: 0]Uz: update_local_matrix_data: 13.541 [ms]
[OGL LOG][Proc: 0]Uz: update_non_local_matrix_data: 0.08400000000000001 [ms]
[OGL LOG][Proc: 0]Uz_matrix: call_update: 3.255 [ms]
[OGL LOG][Proc: 0]Uz_rhs: call_update: 0.252 [ms]
[OGL LOG][Preconditioner.H:121] Generate preconditioner BJ MaxBlockSize 1
[OGL LOG][Proc: 0]Uz: init_precond: 0.258 [ms]
[OGL LOG][StoppingCriterion.H:373] Creating stopping criterion with minIter 12 frequency 1
[OGL LOG][Proc: 0]Uz: generate_solver: 0 [ms]
[OGL LOG][Proc: 0]Uz: solve: 55.644 [ms]
[OGL LOG][Proc: 0]Uz: copy_x_back: 1.087 [ms]
[OGL LOG][lduLduBase.H:336] 
Statistics:
	Time per iteration: 5058 [mu s]
	Time per residual norm calculation: 224.000000 [mu s]
	Time per iteration and DOF: 0.801949 [ns]
	Retrieve results bandwidth 1.918000 [GByte/s]
[OGL LOG][Proc: 0]Uz: solve_multi_gpu: 60.948 [ms]
BJhipGKOBiCGStab:  Solving for Uz, Initial residual = 0.06417258352945865, Final residual = 0.006060618648366766, No Iterations 11
[INFO] MomentumPredictor: 284.812 [ms]
[INFO] MatrixAssemblyPI: 78.40900000000001 [ms]
[INFO] MatrixAssemblyPII: 35.577 [ms]
DICPCG:  Solving for p, Initial residual = 0.0534824742914301, Final residual = 0.0005308519915516235, No Iterations 124
[INFO] SolveP: 1152.103 [ms]
time step continuity errors : sum local = 0.005314609618882208, global = -0.0009382646152763288, cumulative = 0.01179901905041065
[INFO] postSolveP: 19.315 [ms]
[OGL LOG][Proc: 0]: global_index_init: 6.483000000000001 [ms]
[OGL LOG][Proc: 0]nuTilda_local_coeffs: call_update: 0 [ms]
[OGL LOG][Proc: 0]nuTilda_non_local_coeffs: call_update: 0 [ms]
[OGL LOG][Proc: 0]nuTilda: update_local_matrix_data: 12.408 [ms]
[OGL LOG][Proc: 0]nuTilda: update_non_local_matrix_data: 0.08500000000000001 [ms]
[OGL LOG][Proc: 0]nuTilda_matrix: call_update: 2.528 [ms]
[OGL LOG][Proc: 0]nuTilda_rhs: call_update: 2.948 [ms]
[OGL LOG][Preconditioner.H:121] Generate preconditioner BJ MaxBlockSize 1
[OGL LOG][Proc: 0]nuTilda: init_precond: 0.369 [ms]
[OGL LOG][StoppingCriterion.H:373] Creating stopping criterion with minIter 3 frequency 1
[OGL LOG][Proc: 0]nuTilda: generate_solver: 0.001 [ms]
[OGL LOG][Proc: 0]nuTilda: solve: 29.055 [ms]
[OGL LOG][Proc: 0]nuTilda: copy_x_back: 1.063 [ms]
[OGL LOG][lduLduBase.H:336] 
Statistics:
	Time per iteration: 14527 [mu s]
	Time per residual norm calculation: 225.000000 [mu s]
	Time per iteration and DOF: 2.303264 [ns]
	Retrieve results bandwidth 1.961000 [GByte/s]
[OGL LOG][Proc: 0]nuTilda: solve_multi_gpu: 36.442 [ms]
BJhipGKOBiCGStab:  Solving for nuTilda, Initial residual = 0.01543432552649639, Final residual = 0.0009041654644791974, No Iterations 2
[INFO] TimeStep: 2316.115 [ms]
ExecutionTime = 136.64 s  ClockTime = 138 s

Time = 49

velocityDampingConstraint velocityDamping damped 0 (0%) of cells, with max limit 300
[INFO] MatrixAssemblyU: 450.508 [ms]
[OGL LOG][Proc: 0]: global_index_init: 0.8 [ms]
[OGL LOG][Proc: 0]Ux_local_coeffs: call_update: 0 [ms]
[OGL LOG][Proc: 0]Ux_non_local_coeffs: call_update: 0 [ms]
[OGL LOG][Proc: 0]Ux: update_local_matrix_data: 10.688 [ms]
[OGL LOG][Proc: 0]Ux: update_non_local_matrix_data: 0.082 [ms]
[OGL LOG][Proc: 0]Ux_matrix: call_update: 2.697 [ms]
[OGL LOG][Proc: 0]Ux_rhs: call_update: 3.171 [ms]
[OGL LOG][Preconditioner.H:121] Generate preconditioner BJ MaxBlockSize 1
[OGL LOG][Proc: 0]Ux: init_precond: 0.357 [ms]
[OGL LOG][StoppingCriterion.H:373] Creating stopping criterion with minIter 14 frequency 1
[OGL LOG][Proc: 0]Ux: generate_solver: 0.001 [ms]
[OGL LOG][Proc: 0]Ux: solve: 45.206 [ms]
[OGL LOG][Proc: 0]Ux: copy_x_back: 1.079 [ms]
[OGL LOG][lduLduBase.H:336] 
Statistics:
	Time per iteration: 4520 [mu s]
	Time per residual norm calculation: 232.000000 [mu s]
	Time per iteration and DOF: 0.716649 [ns]
	Retrieve results bandwidth 1.932000 [GByte/s]
[OGL LOG][Proc: 0]Ux: solve_multi_gpu: 52.976 [ms]
BJhipGKOBiCGStab:  Solving for Ux, Initial residual = 0.01182932946615543, Final residual = 0.001117120590652098, No Iterations 10
[OGL LOG][Proc: 0]: global_index_init: 0.228 [ms]
[OGL LOG][Proc: 0]Uy_local_coeffs: call_update: 0 [ms]
[OGL LOG][Proc: 0]Uy_non_local_coeffs: call_update: 0 [ms]
[OGL LOG][Proc: 0]Uy: update_local_matrix_data: 10.582 [ms]
[OGL LOG][Proc: 0]Uy: update_non_local_matrix_data: 0.094 [ms]
[OGL LOG][Proc: 0]Uy_matrix: call_update: 2.721 [ms]
[OGL LOG][Proc: 0]Uy_rhs: call_update: 3.402 [ms]
[OGL LOG][Preconditioner.H:121] Generate preconditioner BJ MaxBlockSize 1
[OGL LOG][Proc: 0]Uy: init_precond: 0.279 [ms]
[OGL LOG][StoppingCriterion.H:373] Creating stopping criterion with minIter 18 frequency 1
[OGL LOG][Proc: 0]Uy: generate_solver: 0 [ms]
[OGL LOG][Proc: 0]Uy: solve: 73.629 [ms]
[OGL LOG][Proc: 0]Uy: copy_x_back: 1.059 [ms]
[OGL LOG][lduLduBase.H:336] 
Statistics:
	Time per iteration: 5663 [mu s]
	Time per residual norm calculation: 232.000000 [mu s]
	Time per iteration and DOF: 0.897872 [ns]
	Retrieve results bandwidth 1.969000 [GByte/s]
[OGL LOG][Proc: 0]Uy: solve_multi_gpu: 81.565 [ms]
BJhipGKOBiCGStab:  Solving for Uy, Initial residual = 0.05972863819958631, Final residual = 0.004047483242105378, No Iterations 13
[OGL LOG][Proc: 0]: global_index_init: 0.169 [ms]
[OGL LOG][Proc: 0]Uz_local_coeffs: call_update: 0 [ms]
[OGL LOG][Proc: 0]Uz_non_local_coeffs: call_update: 0 [ms]
[OGL LOG][Proc: 0]Uz: update_local_matrix_data: 10.578 [ms]
[OGL LOG][Proc: 0]Uz: update_non_local_matrix_data: 0.077 [ms]
[OGL LOG][Proc: 0]Uz_matrix: call_update: 2.818 [ms]
[OGL LOG][Proc: 0]Uz_rhs: call_update: 3.196 [ms]
[OGL LOG][Preconditioner.H:121] Generate preconditioner BJ MaxBlockSize 1
[OGL LOG][Proc: 0]Uz: init_precond: 0.252 [ms]
[OGL LOG][StoppingCriterion.H:373] Creating stopping criterion with minIter 13 frequency 1
[OGL LOG][Proc: 0]Uz: generate_solver: 0.001 [ms]
[OGL LOG][Proc: 0]Uz: solve: 48.795 [ms]
[OGL LOG][Proc: 0]Uz: copy_x_back: 1.012 [ms]
[OGL LOG][lduLduBase.H:336] 
Statistics:
	Time per iteration: 4435 [mu s]
	Time per residual norm calculation: 228.000000 [mu s]
	Time per iteration and DOF: 0.703172 [ns]
	Retrieve results bandwidth 2.060000 [GByte/s]
[OGL LOG][Proc: 0]Uz: solve_multi_gpu: 56.547 [ms]
BJhipGKOBiCGStab:  Solving for Uz, Initial residual = 0.06222236816124534, Final residual = 0.005837651405250292, No Iterations 11
[INFO] MomentumPredictor: 262.882 [ms]
[INFO] MatrixAssemblyPI: 79.572 [ms]
[INFO] MatrixAssemblyPII: 36.914 [ms]
DICPCG:  Solving for p, Initial residual = 0.04982927901646768, Final residual = 0.0004922915701320834, No Iterations 217
[INFO] SolveP: 2039.717 [ms]
time step continuity errors : sum local = 0.00488940339882789, global = -0.0003790260083446893, cumulative = 0.01141999304206596
[INFO] postSolveP: 19.852 [ms]
[OGL LOG][Proc: 0]: global_index_init: 10.948 [ms]
[OGL LOG][Proc: 0]nuTilda_local_coeffs: call_update: 0 [ms]
[OGL LOG][Proc: 0]nuTilda_non_local_coeffs: call_update: 0 [ms]
[OGL LOG][Proc: 0]nuTilda: update_local_matrix_data: 10.817 [ms]
[OGL LOG][Proc: 0]nuTilda: update_non_local_matrix_data: 0.082 [ms]
[OGL LOG][Proc: 0]nuTilda_matrix: call_update: 2.946 [ms]
[OGL LOG][Proc: 0]nuTilda_rhs: call_update: 3.436 [ms]
[OGL LOG][Preconditioner.H:121] Generate preconditioner BJ MaxBlockSize 1
[OGL LOG][Proc: 0]nuTilda: init_precond: 0.268 [ms]
[OGL LOG][StoppingCriterion.H:373] Creating stopping criterion with minIter 3 frequency 1
[OGL LOG][Proc: 0]nuTilda: generate_solver: 0.001 [ms]
[OGL LOG][Proc: 0]nuTilda: solve: 28.911 [ms]
[OGL LOG][Proc: 0]nuTilda: copy_x_back: 1.076 [ms]
[OGL LOG][lduLduBase.H:336] 
Statistics:
	Time per iteration: 14455 [mu s]
	Time per residual norm calculation: 220.000000 [mu s]
	Time per iteration and DOF: 2.291848 [ns]
	Retrieve results bandwidth 1.938000 [GByte/s]
[OGL LOG][Proc: 0]nuTilda: solve_multi_gpu: 37.125 [ms]
BJhipGKOBiCGStab:  Solving for nuTilda, Initial residual = 0.01100333586156477, Final residual = 0.0007078194847920125, No Iterations 2
[INFO] TimeStep: 3184.722 [ms]
ExecutionTime = 140.16 s  ClockTime = 142 s

Time = 50

velocityDampingConstraint velocityDamping damped 0 (0%) of cells, with max limit 300
[INFO] MatrixAssemblyU: 451.742 [ms]
[OGL LOG][Proc: 0]: global_index_init: 0.9370000000000001 [ms]
[OGL LOG][Proc: 0]Ux_local_coeffs: call_update: 0 [ms]
[OGL LOG][Proc: 0]Ux_non_local_coeffs: call_update: 0 [ms]
[OGL LOG][Proc: 0]Ux: update_local_matrix_data: 10.327 [ms]
[OGL LOG][Proc: 0]Ux: update_non_local_matrix_data: 0.089 [ms]
[OGL LOG][Proc: 0]Ux_matrix: call_update: 4.888 [ms]
[OGL LOG][Proc: 0]Ux_rhs: call_update: 1.486 [ms]
[OGL LOG][Preconditioner.H:121] Generate preconditioner BJ MaxBlockSize 1
[OGL LOG][Proc: 0]Ux: init_precond: 0.367 [ms]
[OGL LOG][StoppingCriterion.H:373] Creating stopping criterion with minIter 12 frequency 1
[OGL LOG][Proc: 0]Ux: generate_solver: 0 [ms]
[OGL LOG][Proc: 0]Ux: solve: 50.894 [ms]
[OGL LOG][Proc: 0]Ux: copy_x_back: 1.069 [ms]
[OGL LOG][lduLduBase.H:336] 
Statistics:
	Time per iteration: 4241 [mu s]
	Time per residual norm calculation: 228.000000 [mu s]
	Time per iteration and DOF: 0.672413 [ns]
	Retrieve results bandwidth 1.950000 [GByte/s]
[OGL LOG][Proc: 0]Ux: solve_multi_gpu: 59.175 [ms]
BJhipGKOBiCGStab:  Solving for Ux, Initial residual = 0.01114136505635209, Final residual = 0.0006569746770463217, No Iterations 12
[OGL LOG][Proc: 0]: global_index_init: 0.234 [ms]
[OGL LOG][Proc: 0]Uy_local_coeffs: call_update: 0 [ms]
[OGL LOG][Proc: 0]Uy_non_local_coeffs: call_update: 0 [ms]
[OGL LOG][Proc: 0]Uy: update_local_matrix_data: 10.441 [ms]
[OGL LOG][Proc: 0]Uy: update_non_local_matrix_data: 0.094 [ms]
[OGL LOG][Proc: 0]Uy_matrix: call_update: 5.137 [ms]
[OGL LOG][Proc: 0]Uy_rhs: call_update: 0.921 [ms]
[OGL LOG][Preconditioner.H:121] Generate preconditioner BJ MaxBlockSize 1
[OGL LOG][Proc: 0]Uy: init_precond: 0.259 [ms]
[OGL LOG][StoppingCriterion.H:373] Creating stopping criterion with minIter 15 frequency 1
[OGL LOG][Proc: 0]Uy: generate_solver: 0.001 [ms]
[OGL LOG][Proc: 0]Uy: solve: 64.544 [ms]
[OGL LOG][Proc: 0]Uy: copy_x_back: 1.07 [ms]
[OGL LOG][lduLduBase.H:336] 
Statistics:
	Time per iteration: 4964 [mu s]
	Time per residual norm calculation: 223.000000 [mu s]
	Time per iteration and DOF: 0.787045 [ns]
	Retrieve results bandwidth 1.948000 [GByte/s]
[OGL LOG][Proc: 0]Uy: solve_multi_gpu: 72.405 [ms]
BJhipGKOBiCGStab:  Solving for Uy, Initial residual = 0.05979667404570077, Final residual = 0.004744802209486101, No Iterations 13
[OGL LOG][Proc: 0]: global_index_init: 2.043 [ms]
[OGL LOG][Proc: 0]Uz_local_coeffs: call_update: 0 [ms]
[OGL LOG][Proc: 0]Uz_non_local_coeffs: call_update: 0 [ms]
[OGL LOG][Proc: 0]Uz: update_local_matrix_data: 10.306 [ms]
[OGL LOG][Proc: 0]Uz: update_non_local_matrix_data: 0.083 [ms]
[OGL LOG][Proc: 0]Uz_matrix: call_update: 8.324 [ms]
[OGL LOG][Proc: 0]Uz_rhs: call_update: 0.413 [ms]
[OGL LOG][Preconditioner.H:121] Generate preconditioner BJ MaxBlockSize 1
[OGL LOG][Proc: 0]Uz: init_precond: 0.238 [ms]
[OGL LOG][StoppingCriterion.H:373] Creating stopping criterion with minIter 13 frequency 1
[OGL LOG][Proc: 0]Uz: generate_solver: 0.001 [ms]
[OGL LOG][Proc: 0]Uz: solve: 47.556 [ms]
[OGL LOG][Proc: 0]Uz: copy_x_back: 1.064 [ms]
[OGL LOG][lduLduBase.H:336] 
Statistics:
	Time per iteration: 4323 [mu s]
	Time per residual norm calculation: 234.000000 [mu s]
	Time per iteration and DOF: 0.685414 [ns]
	Retrieve results bandwidth 1.959000 [GByte/s]
[OGL LOG][Proc: 0]Uz: solve_multi_gpu: 58.079 [ms]
BJhipGKOBiCGStab:  Solving for Uz, Initial residual = 0.06526651362357275, Final residual = 0.00616429782758219, No Iterations 11
[INFO] MomentumPredictor: 262.665 [ms]
[INFO] MatrixAssemblyPI: 79.55 [ms]
[INFO] MatrixAssemblyPII: 36.799 [ms]
DICPCG:  Solving for p, Initial residual = 0.05085648601668142, Final residual = 0.0005020852839299825, No Iterations 93
[INFO] SolveP: 874.284 [ms]
time step continuity errors : sum local = 0.004794655725027457, global = 0.0003129612626995588, cumulative = 0.01173295430476552
[INFO] postSolveP: 19.184 [ms]
[OGL LOG][Proc: 0]: global_index_init: 7.223 [ms]
[OGL LOG][Proc: 0]nuTilda_local_coeffs: call_update: 0 [ms]
[OGL LOG][Proc: 0]nuTilda_non_local_coeffs: call_update: 0 [ms]
[OGL LOG][Proc: 0]nuTilda: update_local_matrix_data: 11.022 [ms]
[OGL LOG][Proc: 0]nuTilda: update_non_local_matrix_data: 0.08600000000000001 [ms]
[OGL LOG][Proc: 0]nuTilda_matrix: call_update: 6.539 [ms]
[OGL LOG][Proc: 0]nuTilda_rhs: call_update: 0.413 [ms]
[OGL LOG][Preconditioner.H:121] Generate preconditioner BJ MaxBlockSize 1
[OGL LOG][Proc: 0]nuTilda: init_precond: 0.301 [ms]
[OGL LOG][StoppingCriterion.H:373] Creating stopping criterion with minIter 3 frequency 1
[OGL LOG][Proc: 0]nuTilda: generate_solver: 0.001 [ms]
[OGL LOG][Proc: 0]nuTilda: solve: 30.6 [ms]
[OGL LOG][Proc: 0]nuTilda: copy_x_back: 1.092 [ms]
[OGL LOG][lduLduBase.H:336] 
Statistics:
	Time per iteration: 15300 [mu s]
	Time per residual norm calculation: 235.000000 [mu s]
	Time per iteration and DOF: 2.425824 [ns]
	Retrieve results bandwidth 1.909000 [GByte/s]
[OGL LOG][Proc: 0]nuTilda: solve_multi_gpu: 39.438 [ms]
BJhipGKOBiCGStab:  Solving for nuTilda, Initial residual = 0.01484454061733556, Final residual = 0.00136158251699005, No Iterations 2
bounding nuTilda, min: -4.982847381214904e-05 max: 0.007051211612323548 average: 0.000372359419678086
[INFO] TimeStep: 2034.503 [ms]
ExecutionTime = 142.53 s  ClockTime = 144 s

End

Finalising parallel run
