/*---------------------------------------------------------------------------*\
| =========                 |                                                 |
| \\      /  F ield         | OpenFOAM: The Open Source CFD Toolbox           |
|  \\    /   O peration     | Version:  2306                                  |
|   \\  /    A nd           | Website:  www.openfoam.com                      |
|    \\/     M anipulation  |                                                 |
\*---------------------------------------------------------------------------*/
Build  : c423ebec-20231012 OPENFOAM=2306 version=v2306
Arch   : "LSB;label=32;scalar=64"
Exec   : decomposePar -force
Date   : Dec 29 2023
Time   : 21:33:47
Host   : hkn0827.localdomain
PID    : 2440319
--> FOAM Warning : 
    From Foam::fileName Foam::cwd_L()
    in file POSIX.C at line 552
    PWD is not the cwd() - reverting to physical description
I/O    : uncollated
--> FOAM Warning : 
    From Foam::fileName Foam::cwd_L()
    in file POSIX.C at line 552
    PWD is not the cwd() - reverting to physical description
Case   : /hkfs/work/workspace/scratch/eq4036-l3d/workspace/0e014338de20eefd1a4eef036dd912df/case
nProcs : 1
trapFpe: Floating point exception trapping enabled (FOAM_SIGFPE).
fileModificationChecking : Monitoring run-time modified files using timeStampMaster (fileModificationSkew 5, maxFileModificationPolls 20)
allowSystemOperations : Allowing user-supplied system call operations

// * * * * * * * * * * * * * * * * * * * * * * * * * * * * * * * * * * * * * //
Create time

--> FOAM Warning : 
    From void* Foam::dlLibraryTable::openLibrary(const Foam::fileName&, bool)
    in file db/dynamicLibrary/dlLibraryTable/dlLibraryTable.C at line 188
    Could not load "libpetscFoam.so"
libpetscFoam.so: cannot open shared object file: No such file or directory


Decomposing mesh

Create mesh

Calculating distribution of cells
Decomposition method simple [76] (region region0)

Finished decomposition in 19.03 s

Calculating original mesh data

Distributing cells to processors

Distributing faces to processors

Distributing points to processors

Constructing processor meshes

Processor 0
    Number of cells = 360000
    Number of points = 409059
    Number of faces shared with processor 1 = 45000
    Number of faces shared with processor 38 = 2400
    Number of processor patches = 2
    Number of processor faces = 47400
    Number of boundary faces = 49800

Processor 1
    Number of cells = 358979
    Number of points = 408038
    Number of faces shared with processor 0 = 45000
    Number of faces shared with processor 2 = 45089
    Number of faces shared with processor 39 = 2355
    Number of faces shared with processor 40 = 1
    Number of processor patches = 4
    Number of processor faces = 92445
    Number of boundary faces = 4755

Processor 2
    Number of cells = 357105
    Number of points = 406254
    Number of faces shared with processor 1 = 45089
    Number of faces shared with processor 3 = 45176
    Number of faces shared with processor 40 = 2355
    Number of faces shared with processor 41 = 1
    Number of processor patches = 4
    Number of processor faces = 92621
    Number of boundary faces = 4757

Processor 3
    Number of cells = 356041
    Number of points = 405277
    Number of faces shared with processor 2 = 45176
    Number of faces shared with processor 4 = 45250
    Number of faces shared with processor 41 = 2362
    Number of faces shared with processor 42 = 1
    Number of processor patches = 4
    Number of processor faces = 92789
    Number of boundary faces = 4763

Processor 4
    Number of cells = 355357
    Number of points = 404658
    Number of faces shared with processor 3 = 45250
    Number of faces shared with processor 5 = 45298
    Number of faces shared with processor 42 = 2367
    Number of faces shared with processor 43 = 1
    Number of processor patches = 4
    Number of processor faces = 92916
    Number of boundary faces = 4766

Processor 5
    Number of cells = 354893
    Number of points = 404217
    Number of faces shared with processor 4 = 45298
    Number of faces shared with processor 6 = 45299
    Number of faces shared with processor 43 = 2364
    Number of faces shared with processor 44 = 1
    Number of processor patches = 4
    Number of processor faces = 92962
    Number of boundary faces = 4766

Processor 6
    Number of cells = 354000
    Number of points = 403319
    Number of faces shared with processor 5 = 45299
    Number of faces shared with processor 7 = 45299
    Number of faces shared with processor 44 = 2359
    Number of faces shared with processor 45 = 1
    Number of processor patches = 4
    Number of processor faces = 92958
    Number of boundary faces = 4760

Processor 7
    Number of cells = 352651
    Number of points = 401961
    Number of faces shared with processor 6 = 45299
    Number of faces shared with processor 8 = 45298
    Number of faces shared with processor 45 = 2351
    Number of faces shared with processor 46 = 1
    Number of processor patches = 4
    Number of processor faces = 92949
    Number of boundary faces = 4751

Processor 8
    Number of cells = 350717
    Number of points = 399950
    Number of faces shared with processor 7 = 45298
    Number of faces shared with processor 9 = 45193
    Number of faces shared with processor 46 = 2380
    Number of processor patches = 3
    Number of processor faces = 92871
    Number of boundary faces = 4675

Processor 9
    Number of cells = 355257
    Number of points = 404316
    Number of faces shared with processor 8 = 45193
    Number of faces shared with processor 10 = 45000
    Number of faces shared with processor 47 = 2400
    Number of processor patches = 3
    Number of processor faces = 92593
    Number of boundary faces = 4607

Processor 10
    Number of cells = 359822
    Number of points = 408881
    Number of faces shared with processor 9 = 45000
    Number of faces shared with processor 11 = 45037
    Number of faces shared with processor 48 = 2381
    Number of faces shared with processor 49 = 1
    Number of processor patches = 4
    Number of processor faces = 92419
    Number of boundary faces = 4781

Processor 11
    Number of cells = 357877
    Number of points = 406974
    Number of faces shared with processor 10 = 45037
    Number of faces shared with processor 12 = 45135
    Number of faces shared with processor 49 = 2350
    Number of faces shared with processor 50 = 1
    Number of processor patches = 4
    Number of processor faces = 92523
    Number of boundary faces = 4751

Processor 12
    Number of cells = 356523
    Number of points = 405718
    Number of faces shared with processor 11 = 45135
    Number of faces shared with processor 13 = 45214
    Number of faces shared with processor 50 = 2359
    Number of faces shared with processor 51 = 1
    Number of processor patches = 4
    Number of processor faces = 92709
    Number of boundary faces = 4761

Processor 13
    Number of cells = 355629
    Number of points = 404903
    Number of faces shared with processor 12 = 45214
    Number of faces shared with processor 14 = 45283
    Number of faces shared with processor 51 = 2365
    Number of faces shared with processor 52 = 1
    Number of processor patches = 4
    Number of processor faces = 92863
    Number of boundary faces = 4765

Processor 14
    Number of cells = 355176
    Number of points = 404493
    Number of faces shared with processor 13 = 45283
    Number of faces shared with processor 15 = 45298
    Number of faces shared with processor 52 = 2366
    Number of faces shared with processor 53 = 1
    Number of processor patches = 4
    Number of processor faces = 92948
    Number of boundary faces = 4766

Processor 15
    Number of cells = 354485
    Number of points = 403806
    Number of faces shared with processor 14 = 45298
    Number of faces shared with processor 16 = 45298
    Number of faces shared with processor 53 = 2362
    Number of faces shared with processor 54 = 1
    Number of processor patches = 4
    Number of processor faces = 92959
    Number of boundary faces = 4763

Processor 16
    Number of cells = 353413
    Number of points = 402728
    Number of faces shared with processor 15 = 45298
    Number of faces shared with processor 17 = 45299
    Number of faces shared with processor 54 = 2355
    Number of faces shared with processor 55 = 1
    Number of processor patches = 4
    Number of processor faces = 92953
    Number of boundary faces = 4757

Processor 17
    Number of cells = 351555
    Number of points = 400845
    Number of faces shared with processor 16 = 45299
    Number of faces shared with processor 18 = 45275
    Number of faces shared with processor 55 = 2355
    Number of processor patches = 3
    Number of processor faces = 92929
    Number of boundary faces = 4731

Processor 18
    Number of cells = 350526
    Number of points = 399592
    Number of faces shared with processor 17 = 45275
    Number of faces shared with processor 19 = 45006
    Number of faces shared with processor 56 = 2400
    Number of processor patches = 3
    Number of processor faces = 92681
    Number of boundary faces = 4531

Processor 19
    Number of cells = 359994
    Number of points = 409053
    Number of faces shared with processor 18 = 45006
    Number of faces shared with processor 20 = 45000
    Number of faces shared with processor 57 = 2400
    Number of processor patches = 3
    Number of processor faces = 92406
    Number of boundary faces = 4794

Processor 20
    Number of cells = 358983
    Number of points = 408042
    Number of faces shared with processor 19 = 45000
    Number of faces shared with processor 21 = 45089
    Number of faces shared with processor 58 = 2355
    Number of faces shared with processor 59 = 1
    Number of processor patches = 4
    Number of processor faces = 92445
    Number of boundary faces = 4755

Processor 21
    Number of cells = 357101
    Number of points = 406250
    Number of faces shared with processor 20 = 45089
    Number of faces shared with processor 22 = 45176
    Number of faces shared with processor 59 = 2355
    Number of faces shared with processor 60 = 1
    Number of processor patches = 4
    Number of processor faces = 92621
    Number of boundary faces = 4757

Processor 22
    Number of cells = 356041
    Number of points = 405277
    Number of faces shared with processor 21 = 45176
    Number of faces shared with processor 23 = 45250
    Number of faces shared with processor 60 = 2362
    Number of faces shared with processor 61 = 1
    Number of processor patches = 4
    Number of processor faces = 92789
    Number of boundary faces = 4763

Processor 23
    Number of cells = 355358
    Number of points = 404659
    Number of faces shared with processor 22 = 45250
    Number of faces shared with processor 24 = 45298
    Number of faces shared with processor 61 = 2367
    Number of faces shared with processor 62 = 1
    Number of processor patches = 4
    Number of processor faces = 92916
    Number of boundary faces = 4766

Processor 24
    Number of cells = 354892
    Number of points = 404216
    Number of faces shared with processor 23 = 45298
    Number of faces shared with processor 25 = 45299
    Number of faces shared with processor 62 = 2364
    Number of faces shared with processor 63 = 1
    Number of processor patches = 4
    Number of processor faces = 92962
    Number of boundary faces = 4766

Processor 25
    Number of cells = 354000
    Number of points = 403319
    Number of faces shared with processor 24 = 45299
    Number of faces shared with processor 26 = 45299
    Number of faces shared with processor 63 = 2359
    Number of faces shared with processor 64 = 1
    Number of processor patches = 4
    Number of processor faces = 92958
    Number of boundary faces = 4760

Processor 26
    Number of cells = 352650
    Number of points = 401960
    Number of faces shared with processor 25 = 45299
    Number of faces shared with processor 27 = 45299
    Number of faces shared with processor 64 = 2350
    Number of faces shared with processor 65 = 1
    Number of processor patches = 4
    Number of processor faces = 92949
    Number of boundary faces = 4751

Processor 27
    Number of cells = 350715
    Number of points = 399949
    Number of faces shared with processor 26 = 45299
    Number of faces shared with processor 28 = 45193
    Number of faces shared with processor 65 = 2381
    Number of processor patches = 3
    Number of processor faces = 92873
    Number of boundary faces = 4675

Processor 28
    Number of cells = 355260
    Number of points = 404319
    Number of faces shared with processor 27 = 45193
    Number of faces shared with processor 29 = 45000
    Number of faces shared with processor 66 = 2400
    Number of processor patches = 3
    Number of processor faces = 92593
    Number of boundary faces = 4607

Processor 29
    Number of cells = 359817
    Number of points = 408876
    Number of faces shared with processor 28 = 45000
    Number of faces shared with processor 30 = 45037
    Number of faces shared with processor 67 = 2381
    Number of faces shared with processor 68 = 1
    Number of processor patches = 4
    Number of processor faces = 92419
    Number of boundary faces = 4781

Processor 30
    Number of cells = 357876
    Number of points = 406973
    Number of faces shared with processor 29 = 45037
    Number of faces shared with processor 31 = 45135
    Number of faces shared with processor 68 = 2350
    Number of faces shared with processor 69 = 1
    Number of processor patches = 4
    Number of processor faces = 92523
    Number of boundary faces = 4751

Processor 31
    Number of cells = 356526
    Number of points = 405721
    Number of faces shared with processor 30 = 45135
    Number of faces shared with processor 32 = 45215
    Number of faces shared with processor 69 = 2359
    Number of faces shared with processor 70 = 1
    Number of processor patches = 4
    Number of processor faces = 92710
    Number of boundary faces = 4760

Processor 32
    Number of cells = 355628
    Number of points = 404903
    Number of faces shared with processor 31 = 45215
    Number of faces shared with processor 33 = 45284
    Number of faces shared with processor 70 = 2364
    Number of faces shared with processor 71 = 1
    Number of processor patches = 4
    Number of processor faces = 92864
    Number of boundary faces = 4766

Processor 33
    Number of cells = 355174
    Number of points = 404492
    Number of faces shared with processor 32 = 45284
    Number of faces shared with processor 34 = 45298
    Number of faces shared with processor 71 = 2367
    Number of faces shared with processor 72 = 1
    Number of processor patches = 4
    Number of processor faces = 92950
    Number of boundary faces = 4766

Processor 34
    Number of cells = 354485
    Number of points = 403806
    Number of faces shared with processor 33 = 45298
    Number of faces shared with processor 35 = 45298
    Number of faces shared with processor 72 = 2362
    Number of faces shared with processor 73 = 1
    Number of processor patches = 4
    Number of processor faces = 92959
    Number of boundary faces = 4763

Processor 35
    Number of cells = 353419
    Number of points = 402734
    Number of faces shared with processor 34 = 45298
    Number of faces shared with processor 36 = 45299
    Number of faces shared with processor 73 = 2355
    Number of faces shared with processor 74 = 1
    Number of processor patches = 4
    Number of processor faces = 92953
    Number of boundary faces = 4757

Processor 36
    Number of cells = 351549
    Number of points = 400839
    Number of faces shared with processor 35 = 45299
    Number of faces shared with processor 37 = 45275
    Number of faces shared with processor 74 = 2355
    Number of processor patches = 3
    Number of processor faces = 92929
    Number of boundary faces = 4731

Processor 37
    Number of cells = 350526
    Number of points = 399585
    Number of faces shared with processor 36 = 45275
    Number of faces shared with processor 75 = 2400
    Number of processor patches = 2
    Number of processor faces = 47675
    Number of boundary faces = 49525

Processor 38
    Number of cells = 350527
    Number of points = 399586
    Number of faces shared with processor 0 = 2400
    Number of faces shared with processor 39 = 45275
    Number of processor patches = 2
    Number of processor faces = 47675
    Number of boundary faces = 49525

Processor 39
    Number of cells = 351548
    Number of points = 400838
    Number of faces shared with processor 1 = 2355
    Number of faces shared with processor 38 = 45275
    Number of faces shared with processor 40 = 45299
    Number of processor patches = 3
    Number of processor faces = 92929
    Number of boundary faces = 4731

Processor 40
    Number of cells = 353422
    Number of points = 402737
    Number of faces shared with processor 1 = 1
    Number of faces shared with processor 2 = 2355
    Number of faces shared with processor 39 = 45299
    Number of faces shared with processor 41 = 45298
    Number of processor patches = 4
    Number of processor faces = 92953
    Number of boundary faces = 4757

Processor 41
    Number of cells = 354486
    Number of points = 403807
    Number of faces shared with processor 2 = 1
    Number of faces shared with processor 3 = 2362
    Number of faces shared with processor 40 = 45298
    Number of faces shared with processor 42 = 45298
    Number of processor patches = 4
    Number of processor faces = 92959
    Number of boundary faces = 4763

Processor 42
    Number of cells = 355170
    Number of points = 404488
    Number of faces shared with processor 3 = 1
    Number of faces shared with processor 4 = 2367
    Number of faces shared with processor 41 = 45298
    Number of faces shared with processor 43 = 45284
    Number of processor patches = 4
    Number of processor faces = 92950
    Number of boundary faces = 4766

Processor 43
    Number of cells = 355634
    Number of points = 404909
    Number of faces shared with processor 4 = 1
    Number of faces shared with processor 5 = 2364
    Number of faces shared with processor 42 = 45284
    Number of faces shared with processor 44 = 45215
    Number of processor patches = 4
    Number of processor faces = 92864
    Number of boundary faces = 4766

Processor 44
    Number of cells = 356527
    Number of points = 405722
    Number of faces shared with processor 5 = 1
    Number of faces shared with processor 6 = 2359
    Number of faces shared with processor 43 = 45215
    Number of faces shared with processor 45 = 45135
    Number of processor patches = 4
    Number of processor faces = 92710
    Number of boundary faces = 4760

Processor 45
    Number of cells = 357876
    Number of points = 406974
    Number of faces shared with processor 6 = 1
    Number of faces shared with processor 7 = 2351
    Number of faces shared with processor 44 = 45135
    Number of faces shared with processor 46 = 45038
    Number of processor patches = 4
    Number of processor faces = 92525
    Number of boundary faces = 4751

Processor 46
    Number of cells = 359810
    Number of points = 408869
    Number of faces shared with processor 7 = 1
    Number of faces shared with processor 8 = 2380
    Number of faces shared with processor 45 = 45038
    Number of faces shared with processor 47 = 45000
    Number of processor patches = 4
    Number of processor faces = 92419
    Number of boundary faces = 4781

Processor 47
    Number of cells = 355270
    Number of points = 404329
    Number of faces shared with processor 9 = 2400
    Number of faces shared with processor 46 = 45000
    Number of faces shared with processor 48 = 45193
    Number of processor patches = 3
    Number of processor faces = 92593
    Number of boundary faces = 4607

Processor 48
    Number of cells = 350705
    Number of points = 399939
    Number of faces shared with processor 10 = 2381
    Number of faces shared with processor 47 = 45193
    Number of faces shared with processor 49 = 45299
    Number of processor patches = 3
    Number of processor faces = 92873
    Number of boundary faces = 4675

Processor 49
    Number of cells = 352650
    Number of points = 401960
    Number of faces shared with processor 10 = 1
    Number of faces shared with processor 11 = 2350
    Number of faces shared with processor 48 = 45299
    Number of faces shared with processor 50 = 45299
    Number of processor patches = 4
    Number of processor faces = 92949
    Number of boundary faces = 4751

Processor 50
    Number of cells = 354003
    Number of points = 403322
    Number of faces shared with processor 11 = 1
    Number of faces shared with processor 12 = 2359
    Number of faces shared with processor 49 = 45299
    Number of faces shared with processor 51 = 45298
    Number of processor patches = 4
    Number of processor faces = 92957
    Number of boundary faces = 4761

Processor 51
    Number of cells = 354897
    Number of points = 404221
    Number of faces shared with processor 12 = 1
    Number of faces shared with processor 13 = 2365
    Number of faces shared with processor 50 = 45298
    Number of faces shared with processor 52 = 45299
    Number of processor patches = 4
    Number of processor faces = 92963
    Number of boundary faces = 4765

Processor 52
    Number of cells = 355350
    Number of points = 404651
    Number of faces shared with processor 13 = 1
    Number of faces shared with processor 14 = 2366
    Number of faces shared with processor 51 = 45299
    Number of faces shared with processor 53 = 45250
    Number of processor patches = 4
    Number of processor faces = 92916
    Number of boundary faces = 4766

Processor 53
    Number of cells = 356041
    Number of points = 405277
    Number of faces shared with processor 14 = 1
    Number of faces shared with processor 15 = 2362
    Number of faces shared with processor 52 = 45250
    Number of faces shared with processor 54 = 45176
    Number of processor patches = 4
    Number of processor faces = 92789
    Number of boundary faces = 4763

Processor 54
    Number of cells = 357113
    Number of points = 406262
    Number of faces shared with processor 15 = 1
    Number of faces shared with processor 16 = 2355
    Number of faces shared with processor 53 = 45176
    Number of faces shared with processor 55 = 45089
    Number of processor patches = 4
    Number of processor faces = 92621
    Number of boundary faces = 4757

Processor 55
    Number of cells = 358971
    Number of points = 408030
    Number of faces shared with processor 16 = 1
    Number of faces shared with processor 17 = 2355
    Number of faces shared with processor 54 = 45089
    Number of faces shared with processor 56 = 45000
    Number of processor patches = 4
    Number of processor faces = 92445
    Number of boundary faces = 4755

Processor 56
    Number of cells = 360000
    Number of points = 409059
    Number of faces shared with processor 18 = 2400
    Number of faces shared with processor 55 = 45000
    Number of faces shared with processor 57 = 45000
    Number of processor patches = 3
    Number of processor faces = 92400
    Number of boundary faces = 4800

Processor 57
    Number of cells = 350532
    Number of points = 399591
    Number of faces shared with processor 19 = 2400
    Number of faces shared with processor 56 = 45000
    Number of faces shared with processor 58 = 45275
    Number of processor patches = 3
    Number of processor faces = 92675
    Number of boundary faces = 4525

Processor 58
    Number of cells = 351543
    Number of points = 400833
    Number of faces shared with processor 20 = 2355
    Number of faces shared with processor 57 = 45275
    Number of faces shared with processor 59 = 45299
    Number of processor patches = 3
    Number of processor faces = 92929
    Number of boundary faces = 4731

Processor 59
    Number of cells = 353425
    Number of points = 402740
    Number of faces shared with processor 20 = 1
    Number of faces shared with processor 21 = 2355
    Number of faces shared with processor 58 = 45299
    Number of faces shared with processor 60 = 45298
    Number of processor patches = 4
    Number of processor faces = 92953
    Number of boundary faces = 4757

Processor 60
    Number of cells = 354485
    Number of points = 403806
    Number of faces shared with processor 21 = 1
    Number of faces shared with processor 22 = 2362
    Number of faces shared with processor 59 = 45298
    Number of faces shared with processor 61 = 45298
    Number of processor patches = 4
    Number of processor faces = 92959
    Number of boundary faces = 4763

Processor 61
    Number of cells = 355168
    Number of points = 404486
    Number of faces shared with processor 22 = 1
    Number of faces shared with processor 23 = 2367
    Number of faces shared with processor 60 = 45298
    Number of faces shared with processor 62 = 45284
    Number of processor patches = 4
    Number of processor faces = 92950
    Number of boundary faces = 4766

Processor 62
    Number of cells = 355634
    Number of points = 404909
    Number of faces shared with processor 23 = 1
    Number of faces shared with processor 24 = 2364
    Number of faces shared with processor 61 = 45284
    Number of faces shared with processor 63 = 45215
    Number of processor patches = 4
    Number of processor faces = 92864
    Number of boundary faces = 4766

Processor 63
    Number of cells = 356526
    Number of points = 405721
    Number of faces shared with processor 24 = 1
    Number of faces shared with processor 25 = 2359
    Number of faces shared with processor 62 = 45215
    Number of faces shared with processor 64 = 45135
    Number of processor patches = 4
    Number of processor faces = 92710
    Number of boundary faces = 4760

Processor 64
    Number of cells = 357876
    Number of points = 406973
    Number of faces shared with processor 25 = 1
    Number of faces shared with processor 26 = 2350
    Number of faces shared with processor 63 = 45135
    Number of faces shared with processor 65 = 45037
    Number of processor patches = 4
    Number of processor faces = 92523
    Number of boundary faces = 4751

Processor 65
    Number of cells = 359811
    Number of points = 408870
    Number of faces shared with processor 26 = 1
    Number of faces shared with processor 27 = 2381
    Number of faces shared with processor 64 = 45037
    Number of faces shared with processor 66 = 45000
    Number of processor patches = 4
    Number of processor faces = 92419
    Number of boundary faces = 4781

Processor 66
    Number of cells = 355266
    Number of points = 404325
    Number of faces shared with processor 28 = 2400
    Number of faces shared with processor 65 = 45000
    Number of faces shared with processor 67 = 45193
    Number of processor patches = 3
    Number of processor faces = 92593
    Number of boundary faces = 4607

Processor 67
    Number of cells = 350709
    Number of points = 399943
    Number of faces shared with processor 29 = 2381
    Number of faces shared with processor 66 = 45193
    Number of faces shared with processor 68 = 45299
    Number of processor patches = 3
    Number of processor faces = 92873
    Number of boundary faces = 4675

Processor 68
    Number of cells = 352650
    Number of points = 401960
    Number of faces shared with processor 29 = 1
    Number of faces shared with processor 30 = 2350
    Number of faces shared with processor 67 = 45299
    Number of faces shared with processor 69 = 45299
    Number of processor patches = 4
    Number of processor faces = 92949
    Number of boundary faces = 4751

Processor 69
    Number of cells = 354000
    Number of points = 403319
    Number of faces shared with processor 30 = 1
    Number of faces shared with processor 31 = 2359
    Number of faces shared with processor 68 = 45299
    Number of faces shared with processor 70 = 45299
    Number of processor patches = 4
    Number of processor faces = 92958
    Number of boundary faces = 4760

Processor 70
    Number of cells = 354898
    Number of points = 404222
    Number of faces shared with processor 31 = 1
    Number of faces shared with processor 32 = 2364
    Number of faces shared with processor 69 = 45299
    Number of faces shared with processor 71 = 45298
    Number of processor patches = 4
    Number of processor faces = 92962
    Number of boundary faces = 4766

Processor 71
    Number of cells = 355352
    Number of points = 404653
    Number of faces shared with processor 32 = 1
    Number of faces shared with processor 33 = 2367
    Number of faces shared with processor 70 = 45298
    Number of faces shared with processor 72 = 45250
    Number of processor patches = 4
    Number of processor faces = 92916
    Number of boundary faces = 4766

Processor 72
    Number of cells = 356041
    Number of points = 405277
    Number of faces shared with processor 33 = 1
    Number of faces shared with processor 34 = 2362
    Number of faces shared with processor 71 = 45250
    Number of faces shared with processor 73 = 45176
    Number of processor patches = 4
    Number of processor faces = 92789
    Number of boundary faces = 4763

Processor 73
    Number of cells = 357107
    Number of points = 406256
    Number of faces shared with processor 34 = 1
    Number of faces shared with processor 35 = 2355
    Number of faces shared with processor 72 = 45176
    Number of faces shared with processor 74 = 45089
    Number of processor patches = 4
    Number of processor faces = 92621
    Number of boundary faces = 4757

Processor 74
    Number of cells = 358977
    Number of points = 408036
    Number of faces shared with processor 35 = 1
    Number of faces shared with processor 36 = 2355
    Number of faces shared with processor 73 = 45089
    Number of faces shared with processor 75 = 45000
    Number of processor patches = 4
    Number of processor faces = 92445
    Number of boundary faces = 4755

Processor 75
    Number of cells = 360000
    Number of points = 409059
    Number of faces shared with processor 37 = 2400
    Number of faces shared with processor 74 = 45000
    Number of processor patches = 2
    Number of processor faces = 47400
    Number of boundary faces = 49800

Number of processor faces = 3434980
Max number of cells = 360000 (1.33333% above average 355263)
Max number of processor patches = 4 (8.57143% above average 3.68421)
Max number of faces between processors = 92963 (2.84176% above average 90394.2)

Time = 0

Processor 0: field transfer
--> FOAM Warning : 
    From void* Foam::dlLibraryTable::openLibrary(const Foam::fileName&, bool)
    in file db/dynamicLibrary/dlLibraryTable/dlLibraryTable.C at line 188
    Could not load "libpetscFoam.so"
libpetscFoam.so: cannot open shared object file: No such file or directory
Processor 1: field transfer
--> FOAM Warning : 
    From void* Foam::dlLibraryTable::openLibrary(const Foam::fileName&, bool)
    in file db/dynamicLibrary/dlLibraryTable/dlLibraryTable.C at line 188
    Could not load "libpetscFoam.so"
libpetscFoam.so: cannot open shared object file: No such file or directory
Processor 2: field transfer
--> FOAM Warning : 
    From void* Foam::dlLibraryTable::openLibrary(const Foam::fileName&, bool)
    in file db/dynamicLibrary/dlLibraryTable/dlLibraryTable.C at line 188
    Could not load "libpetscFoam.so"
libpetscFoam.so: cannot open shared object file: No such file or directory
Processor 3: field transfer
--> FOAM Warning : 
    From void* Foam::dlLibraryTable::openLibrary(const Foam::fileName&, bool)
    in file db/dynamicLibrary/dlLibraryTable/dlLibraryTable.C at line 188
    Could not load "libpetscFoam.so"
libpetscFoam.so: cannot open shared object file: No such file or directory
Processor 4: field transfer
--> FOAM Warning : 
    From void* Foam::dlLibraryTable::openLibrary(const Foam::fileName&, bool)
    in file db/dynamicLibrary/dlLibraryTable/dlLibraryTable.C at line 188
    Could not load "libpetscFoam.so"
libpetscFoam.so: cannot open shared object file: No such file or directory
Processor 5: field transfer
--> FOAM Warning : 
    From void* Foam::dlLibraryTable::openLibrary(const Foam::fileName&, bool)
    in file db/dynamicLibrary/dlLibraryTable/dlLibraryTable.C at line 188
    Could not load "libpetscFoam.so"
libpetscFoam.so: cannot open shared object file: No such file or directory
Processor 6: field transfer
--> FOAM Warning : 
    From void* Foam::dlLibraryTable::openLibrary(const Foam::fileName&, bool)
    in file db/dynamicLibrary/dlLibraryTable/dlLibraryTable.C at line 188
    Could not load "libpetscFoam.so"
libpetscFoam.so: cannot open shared object file: No such file or directory
Processor 7: field transfer
--> FOAM Warning : 
    From void* Foam::dlLibraryTable::openLibrary(const Foam::fileName&, bool)
    in file db/dynamicLibrary/dlLibraryTable/dlLibraryTable.C at line 188
    Could not load "libpetscFoam.so"
libpetscFoam.so: cannot open shared object file: No such file or directory
Processor 8: field transfer
--> FOAM Warning : 
    From void* Foam::dlLibraryTable::openLibrary(const Foam::fileName&, bool)
    in file db/dynamicLibrary/dlLibraryTable/dlLibraryTable.C at line 188
    Could not load "libpetscFoam.so"
libpetscFoam.so: cannot open shared object file: No such file or directory
Processor 9: field transfer
--> FOAM Warning : 
    From void* Foam::dlLibraryTable::openLibrary(const Foam::fileName&, bool)
    in file db/dynamicLibrary/dlLibraryTable/dlLibraryTable.C at line 188
    Could not load "libpetscFoam.so"
libpetscFoam.so: cannot open shared object file: No such file or directory
Processor 10: field transfer
--> FOAM Warning : 
    From void* Foam::dlLibraryTable::openLibrary(const Foam::fileName&, bool)
    in file db/dynamicLibrary/dlLibraryTable/dlLibraryTable.C at line 188
    Could not load "libpetscFoam.so"
libpetscFoam.so: cannot open shared object file: No such file or directory
Processor 11: field transfer
--> FOAM Warning : 
    From void* Foam::dlLibraryTable::openLibrary(const Foam::fileName&, bool)
    in file db/dynamicLibrary/dlLibraryTable/dlLibraryTable.C at line 188
    Could not load "libpetscFoam.so"
libpetscFoam.so: cannot open shared object file: No such file or directory
Processor 12: field transfer
--> FOAM Warning : 
    From void* Foam::dlLibraryTable::openLibrary(const Foam::fileName&, bool)
    in file db/dynamicLibrary/dlLibraryTable/dlLibraryTable.C at line 188
    Could not load "libpetscFoam.so"
libpetscFoam.so: cannot open shared object file: No such file or directory
Processor 13: field transfer
--> FOAM Warning : 
    From void* Foam::dlLibraryTable::openLibrary(const Foam::fileName&, bool)
    in file db/dynamicLibrary/dlLibraryTable/dlLibraryTable.C at line 188
    Could not load "libpetscFoam.so"
libpetscFoam.so: cannot open shared object file: No such file or directory
Processor 14: field transfer
--> FOAM Warning : 
    From void* Foam::dlLibraryTable::openLibrary(const Foam::fileName&, bool)
    in file db/dynamicLibrary/dlLibraryTable/dlLibraryTable.C at line 188
    Could not load "libpetscFoam.so"
libpetscFoam.so: cannot open shared object file: No such file or directory
Processor 15: field transfer
--> FOAM Warning : 
    From void* Foam::dlLibraryTable::openLibrary(const Foam::fileName&, bool)
    in file db/dynamicLibrary/dlLibraryTable/dlLibraryTable.C at line 188
    Could not load "libpetscFoam.so"
libpetscFoam.so: cannot open shared object file: No such file or directory
Processor 16: field transfer
--> FOAM Warning : 
    From void* Foam::dlLibraryTable::openLibrary(const Foam::fileName&, bool)
    in file db/dynamicLibrary/dlLibraryTable/dlLibraryTable.C at line 188
    Could not load "libpetscFoam.so"
libpetscFoam.so: cannot open shared object file: No such file or directory
Processor 17: field transfer
--> FOAM Warning : 
    From void* Foam::dlLibraryTable::openLibrary(const Foam::fileName&, bool)
    in file db/dynamicLibrary/dlLibraryTable/dlLibraryTable.C at line 188
    Could not load "libpetscFoam.so"
libpetscFoam.so: cannot open shared object file: No such file or directory
Processor 18: field transfer
--> FOAM Warning : 
    From void* Foam::dlLibraryTable::openLibrary(const Foam::fileName&, bool)
    in file db/dynamicLibrary/dlLibraryTable/dlLibraryTable.C at line 188
    Could not load "libpetscFoam.so"
libpetscFoam.so: cannot open shared object file: No such file or directory
Processor 19: field transfer
--> FOAM Warning : 
    From void* Foam::dlLibraryTable::openLibrary(const Foam::fileName&, bool)
    in file db/dynamicLibrary/dlLibraryTable/dlLibraryTable.C at line 188
    Could not load "libpetscFoam.so"
libpetscFoam.so: cannot open shared object file: No such file or directory
Processor 20: field transfer
--> FOAM Warning : 
    From void* Foam::dlLibraryTable::openLibrary(const Foam::fileName&, bool)
    in file db/dynamicLibrary/dlLibraryTable/dlLibraryTable.C at line 188
    Could not load "libpetscFoam.so"
libpetscFoam.so: cannot open shared object file: No such file or directory
Processor 21: field transfer
--> FOAM Warning : 
    From void* Foam::dlLibraryTable::openLibrary(const Foam::fileName&, bool)
    in file db/dynamicLibrary/dlLibraryTable/dlLibraryTable.C at line 188
    Could not load "libpetscFoam.so"
libpetscFoam.so: cannot open shared object file: No such file or directory
Processor 22: field transfer
--> FOAM Warning : 
    From void* Foam::dlLibraryTable::openLibrary(const Foam::fileName&, bool)
    in file db/dynamicLibrary/dlLibraryTable/dlLibraryTable.C at line 188
    Could not load "libpetscFoam.so"
libpetscFoam.so: cannot open shared object file: No such file or directory
Processor 23: field transfer
--> FOAM Warning : 
    From void* Foam::dlLibraryTable::openLibrary(const Foam::fileName&, bool)
    in file db/dynamicLibrary/dlLibraryTable/dlLibraryTable.C at line 188
    Could not load "libpetscFoam.so"
libpetscFoam.so: cannot open shared object file: No such file or directory
Processor 24: field transfer
--> FOAM Warning : 
    From void* Foam::dlLibraryTable::openLibrary(const Foam::fileName&, bool)
    in file db/dynamicLibrary/dlLibraryTable/dlLibraryTable.C at line 188
    Could not load "libpetscFoam.so"
libpetscFoam.so: cannot open shared object file: No such file or directory
Processor 25: field transfer
--> FOAM Warning : 
    From void* Foam::dlLibraryTable::openLibrary(const Foam::fileName&, bool)
    in file db/dynamicLibrary/dlLibraryTable/dlLibraryTable.C at line 188
    Could not load "libpetscFoam.so"
libpetscFoam.so: cannot open shared object file: No such file or directory
Processor 26: field transfer
--> FOAM Warning : 
    From void* Foam::dlLibraryTable::openLibrary(const Foam::fileName&, bool)
    in file db/dynamicLibrary/dlLibraryTable/dlLibraryTable.C at line 188
    Could not load "libpetscFoam.so"
libpetscFoam.so: cannot open shared object file: No such file or directory
Processor 27: field transfer
--> FOAM Warning : 
    From void* Foam::dlLibraryTable::openLibrary(const Foam::fileName&, bool)
    in file db/dynamicLibrary/dlLibraryTable/dlLibraryTable.C at line 188
    Could not load "libpetscFoam.so"
libpetscFoam.so: cannot open shared object file: No such file or directory
Processor 28: field transfer
--> FOAM Warning : 
    From void* Foam::dlLibraryTable::openLibrary(const Foam::fileName&, bool)
    in file db/dynamicLibrary/dlLibraryTable/dlLibraryTable.C at line 188
    Could not load "libpetscFoam.so"
libpetscFoam.so: cannot open shared object file: No such file or directory
Processor 29: field transfer
--> FOAM Warning : 
    From void* Foam::dlLibraryTable::openLibrary(const Foam::fileName&, bool)
    in file db/dynamicLibrary/dlLibraryTable/dlLibraryTable.C at line 188
    Could not load "libpetscFoam.so"
libpetscFoam.so: cannot open shared object file: No such file or directory
Processor 30: field transfer
--> FOAM Warning : 
    From void* Foam::dlLibraryTable::openLibrary(const Foam::fileName&, bool)
    in file db/dynamicLibrary/dlLibraryTable/dlLibraryTable.C at line 188
    Could not load "libpetscFoam.so"
libpetscFoam.so: cannot open shared object file: No such file or directory
Processor 31: field transfer
--> FOAM Warning : 
    From void* Foam::dlLibraryTable::openLibrary(const Foam::fileName&, bool)
    in file db/dynamicLibrary/dlLibraryTable/dlLibraryTable.C at line 188
    Could not load "libpetscFoam.so"
libpetscFoam.so: cannot open shared object file: No such file or directory
Processor 32: field transfer
--> FOAM Warning : 
    From void* Foam::dlLibraryTable::openLibrary(const Foam::fileName&, bool)
    in file db/dynamicLibrary/dlLibraryTable/dlLibraryTable.C at line 188
    Could not load "libpetscFoam.so"
libpetscFoam.so: cannot open shared object file: No such file or directory
Processor 33: field transfer
--> FOAM Warning : 
    From void* Foam::dlLibraryTable::openLibrary(const Foam::fileName&, bool)
    in file db/dynamicLibrary/dlLibraryTable/dlLibraryTable.C at line 188
    Could not load "libpetscFoam.so"
libpetscFoam.so: cannot open shared object file: No such file or directory
Processor 34: field transfer
--> FOAM Warning : 
    From void* Foam::dlLibraryTable::openLibrary(const Foam::fileName&, bool)
    in file db/dynamicLibrary/dlLibraryTable/dlLibraryTable.C at line 188
    Could not load "libpetscFoam.so"
libpetscFoam.so: cannot open shared object file: No such file or directory
Processor 35: field transfer
--> FOAM Warning : 
    From void* Foam::dlLibraryTable::openLibrary(const Foam::fileName&, bool)
    in file db/dynamicLibrary/dlLibraryTable/dlLibraryTable.C at line 188
    Could not load "libpetscFoam.so"
libpetscFoam.so: cannot open shared object file: No such file or directory
Processor 36: field transfer
--> FOAM Warning : 
    From void* Foam::dlLibraryTable::openLibrary(const Foam::fileName&, bool)
    in file db/dynamicLibrary/dlLibraryTable/dlLibraryTable.C at line 188
    Could not load "libpetscFoam.so"
libpetscFoam.so: cannot open shared object file: No such file or directory
Processor 37: field transfer
--> FOAM Warning : 
    From void* Foam::dlLibraryTable::openLibrary(const Foam::fileName&, bool)
    in file db/dynamicLibrary/dlLibraryTable/dlLibraryTable.C at line 188
    Could not load "libpetscFoam.so"
libpetscFoam.so: cannot open shared object file: No such file or directory
Processor 38: field transfer
--> FOAM Warning : 
    From void* Foam::dlLibraryTable::openLibrary(const Foam::fileName&, bool)
    in file db/dynamicLibrary/dlLibraryTable/dlLibraryTable.C at line 188
    Could not load "libpetscFoam.so"
libpetscFoam.so: cannot open shared object file: No such file or directory
Processor 39: field transfer
--> FOAM Warning : 
    From void* Foam::dlLibraryTable::openLibrary(const Foam::fileName&, bool)
    in file db/dynamicLibrary/dlLibraryTable/dlLibraryTable.C at line 188
    Could not load "libpetscFoam.so"
libpetscFoam.so: cannot open shared object file: No such file or directory
Processor 40: field transfer
--> FOAM Warning : 
    From void* Foam::dlLibraryTable::openLibrary(const Foam::fileName&, bool)
    in file db/dynamicLibrary/dlLibraryTable/dlLibraryTable.C at line 188
    Could not load "libpetscFoam.so"
libpetscFoam.so: cannot open shared object file: No such file or directory
Processor 41: field transfer
--> FOAM Warning : 
    From void* Foam::dlLibraryTable::openLibrary(const Foam::fileName&, bool)
    in file db/dynamicLibrary/dlLibraryTable/dlLibraryTable.C at line 188
    Could not load "libpetscFoam.so"
libpetscFoam.so: cannot open shared object file: No such file or directory
Processor 42: field transfer
--> FOAM Warning : 
    From void* Foam::dlLibraryTable::openLibrary(const Foam::fileName&, bool)
    in file db/dynamicLibrary/dlLibraryTable/dlLibraryTable.C at line 188
    Could not load "libpetscFoam.so"
libpetscFoam.so: cannot open shared object file: No such file or directory
Processor 43: field transfer
--> FOAM Warning : 
    From void* Foam::dlLibraryTable::openLibrary(const Foam::fileName&, bool)
    in file db/dynamicLibrary/dlLibraryTable/dlLibraryTable.C at line 188
    Could not load "libpetscFoam.so"
libpetscFoam.so: cannot open shared object file: No such file or directory
Processor 44: field transfer
--> FOAM Warning : 
    From void* Foam::dlLibraryTable::openLibrary(const Foam::fileName&, bool)
    in file db/dynamicLibrary/dlLibraryTable/dlLibraryTable.C at line 188
    Could not load "libpetscFoam.so"
libpetscFoam.so: cannot open shared object file: No such file or directory
Processor 45: field transfer
--> FOAM Warning : 
    From void* Foam::dlLibraryTable::openLibrary(const Foam::fileName&, bool)
    in file db/dynamicLibrary/dlLibraryTable/dlLibraryTable.C at line 188
    Could not load "libpetscFoam.so"
libpetscFoam.so: cannot open shared object file: No such file or directory
Processor 46: field transfer
--> FOAM Warning : 
    From void* Foam::dlLibraryTable::openLibrary(const Foam::fileName&, bool)
    in file db/dynamicLibrary/dlLibraryTable/dlLibraryTable.C at line 188
    Could not load "libpetscFoam.so"
libpetscFoam.so: cannot open shared object file: No such file or directory
Processor 47: field transfer
--> FOAM Warning : 
    From void* Foam::dlLibraryTable::openLibrary(const Foam::fileName&, bool)
    in file db/dynamicLibrary/dlLibraryTable/dlLibraryTable.C at line 188
    Could not load "libpetscFoam.so"
libpetscFoam.so: cannot open shared object file: No such file or directory
Processor 48: field transfer
--> FOAM Warning : 
    From void* Foam::dlLibraryTable::openLibrary(const Foam::fileName&, bool)
    in file db/dynamicLibrary/dlLibraryTable/dlLibraryTable.C at line 188
    Could not load "libpetscFoam.so"
libpetscFoam.so: cannot open shared object file: No such file or directory
Processor 49: field transfer
--> FOAM Warning : 
    From void* Foam::dlLibraryTable::openLibrary(const Foam::fileName&, bool)
    in file db/dynamicLibrary/dlLibraryTable/dlLibraryTable.C at line 188
    Could not load "libpetscFoam.so"
libpetscFoam.so: cannot open shared object file: No such file or directory
Processor 50: field transfer
--> FOAM Warning : 
    From void* Foam::dlLibraryTable::openLibrary(const Foam::fileName&, bool)
    in file db/dynamicLibrary/dlLibraryTable/dlLibraryTable.C at line 188
    Could not load "libpetscFoam.so"
libpetscFoam.so: cannot open shared object file: No such file or directory
Processor 51: field transfer
--> FOAM Warning : 
    From void* Foam::dlLibraryTable::openLibrary(const Foam::fileName&, bool)
    in file db/dynamicLibrary/dlLibraryTable/dlLibraryTable.C at line 188
    Could not load "libpetscFoam.so"
libpetscFoam.so: cannot open shared object file: No such file or directory
Processor 52: field transfer
--> FOAM Warning : 
    From void* Foam::dlLibraryTable::openLibrary(const Foam::fileName&, bool)
    in file db/dynamicLibrary/dlLibraryTable/dlLibraryTable.C at line 188
    Could not load "libpetscFoam.so"
libpetscFoam.so: cannot open shared object file: No such file or directory
Processor 53: field transfer
--> FOAM Warning : 
    From void* Foam::dlLibraryTable::openLibrary(const Foam::fileName&, bool)
    in file db/dynamicLibrary/dlLibraryTable/dlLibraryTable.C at line 188
    Could not load "libpetscFoam.so"
libpetscFoam.so: cannot open shared object file: No such file or directory
Processor 54: field transfer
--> FOAM Warning : 
    From void* Foam::dlLibraryTable::openLibrary(const Foam::fileName&, bool)
    in file db/dynamicLibrary/dlLibraryTable/dlLibraryTable.C at line 188
    Could not load "libpetscFoam.so"
libpetscFoam.so: cannot open shared object file: No such file or directory
Processor 55: field transfer
--> FOAM Warning : 
    From void* Foam::dlLibraryTable::openLibrary(const Foam::fileName&, bool)
    in file db/dynamicLibrary/dlLibraryTable/dlLibraryTable.C at line 188
    Could not load "libpetscFoam.so"
libpetscFoam.so: cannot open shared object file: No such file or directory
Processor 56: field transfer
--> FOAM Warning : 
    From void* Foam::dlLibraryTable::openLibrary(const Foam::fileName&, bool)
    in file db/dynamicLibrary/dlLibraryTable/dlLibraryTable.C at line 188
    Could not load "libpetscFoam.so"
libpetscFoam.so: cannot open shared object file: No such file or directory
Processor 57: field transfer
--> FOAM Warning : 
    From void* Foam::dlLibraryTable::openLibrary(const Foam::fileName&, bool)
    in file db/dynamicLibrary/dlLibraryTable/dlLibraryTable.C at line 188
    Could not load "libpetscFoam.so"
libpetscFoam.so: cannot open shared object file: No such file or directory
Processor 58: field transfer
--> FOAM Warning : 
    From void* Foam::dlLibraryTable::openLibrary(const Foam::fileName&, bool)
    in file db/dynamicLibrary/dlLibraryTable/dlLibraryTable.C at line 188
    Could not load "libpetscFoam.so"
libpetscFoam.so: cannot open shared object file: No such file or directory
Processor 59: field transfer
--> FOAM Warning : 
    From void* Foam::dlLibraryTable::openLibrary(const Foam::fileName&, bool)
    in file db/dynamicLibrary/dlLibraryTable/dlLibraryTable.C at line 188
    Could not load "libpetscFoam.so"
libpetscFoam.so: cannot open shared object file: No such file or directory
Processor 60: field transfer
--> FOAM Warning : 
    From void* Foam::dlLibraryTable::openLibrary(const Foam::fileName&, bool)
    in file db/dynamicLibrary/dlLibraryTable/dlLibraryTable.C at line 188
    Could not load "libpetscFoam.so"
libpetscFoam.so: cannot open shared object file: No such file or directory
Processor 61: field transfer
--> FOAM Warning : 
    From void* Foam::dlLibraryTable::openLibrary(const Foam::fileName&, bool)
    in file db/dynamicLibrary/dlLibraryTable/dlLibraryTable.C at line 188
    Could not load "libpetscFoam.so"
libpetscFoam.so: cannot open shared object file: No such file or directory
Processor 62: field transfer
--> FOAM Warning : 
    From void* Foam::dlLibraryTable::openLibrary(const Foam::fileName&, bool)
    in file db/dynamicLibrary/dlLibraryTable/dlLibraryTable.C at line 188
    Could not load "libpetscFoam.so"
libpetscFoam.so: cannot open shared object file: No such file or directory
Processor 63: field transfer
--> FOAM Warning : 
    From void* Foam::dlLibraryTable::openLibrary(const Foam::fileName&, bool)
    in file db/dynamicLibrary/dlLibraryTable/dlLibraryTable.C at line 188
    Could not load "libpetscFoam.so"
libpetscFoam.so: cannot open shared object file: No such file or directory
Processor 64: field transfer
--> FOAM Warning : 
    From void* Foam::dlLibraryTable::openLibrary(const Foam::fileName&, bool)
    in file db/dynamicLibrary/dlLibraryTable/dlLibraryTable.C at line 188
    Could not load "libpetscFoam.so"
libpetscFoam.so: cannot open shared object file: No such file or directory
Processor 65: field transfer
--> FOAM Warning : 
    From void* Foam::dlLibraryTable::openLibrary(const Foam::fileName&, bool)
    in file db/dynamicLibrary/dlLibraryTable/dlLibraryTable.C at line 188
    Could not load "libpetscFoam.so"
libpetscFoam.so: cannot open shared object file: No such file or directory
Processor 66: field transfer
--> FOAM Warning : 
    From void* Foam::dlLibraryTable::openLibrary(const Foam::fileName&, bool)
    in file db/dynamicLibrary/dlLibraryTable/dlLibraryTable.C at line 188
    Could not load "libpetscFoam.so"
libpetscFoam.so: cannot open shared object file: No such file or directory
Processor 67: field transfer
--> FOAM Warning : 
    From void* Foam::dlLibraryTable::openLibrary(const Foam::fileName&, bool)
    in file db/dynamicLibrary/dlLibraryTable/dlLibraryTable.C at line 188
    Could not load "libpetscFoam.so"
libpetscFoam.so: cannot open shared object file: No such file or directory
Processor 68: field transfer
--> FOAM Warning : 
    From void* Foam::dlLibraryTable::openLibrary(const Foam::fileName&, bool)
    in file db/dynamicLibrary/dlLibraryTable/dlLibraryTable.C at line 188
    Could not load "libpetscFoam.so"
libpetscFoam.so: cannot open shared object file: No such file or directory
Processor 69: field transfer
--> FOAM Warning : 
    From void* Foam::dlLibraryTable::openLibrary(const Foam::fileName&, bool)
    in file db/dynamicLibrary/dlLibraryTable/dlLibraryTable.C at line 188
    Could not load "libpetscFoam.so"
libpetscFoam.so: cannot open shared object file: No such file or directory
Processor 70: field transfer
--> FOAM Warning : 
    From void* Foam::dlLibraryTable::openLibrary(const Foam::fileName&, bool)
    in file db/dynamicLibrary/dlLibraryTable/dlLibraryTable.C at line 188
    Could not load "libpetscFoam.so"
libpetscFoam.so: cannot open shared object file: No such file or directory
Processor 71: field transfer
--> FOAM Warning : 
    From void* Foam::dlLibraryTable::openLibrary(const Foam::fileName&, bool)
    in file db/dynamicLibrary/dlLibraryTable/dlLibraryTable.C at line 188
    Could not load "libpetscFoam.so"
libpetscFoam.so: cannot open shared object file: No such file or directory
Processor 72: field transfer
--> FOAM Warning : 
    From void* Foam::dlLibraryTable::openLibrary(const Foam::fileName&, bool)
    in file db/dynamicLibrary/dlLibraryTable/dlLibraryTable.C at line 188
    Could not load "libpetscFoam.so"
libpetscFoam.so: cannot open shared object file: No such file or directory
Processor 73: field transfer
--> FOAM Warning : 
    From void* Foam::dlLibraryTable::openLibrary(const Foam::fileName&, bool)
    in file db/dynamicLibrary/dlLibraryTable/dlLibraryTable.C at line 188
    Could not load "libpetscFoam.so"
libpetscFoam.so: cannot open shared object file: No such file or directory
Processor 74: field transfer
--> FOAM Warning : 
    From void* Foam::dlLibraryTable::openLibrary(const Foam::fileName&, bool)
    in file db/dynamicLibrary/dlLibraryTable/dlLibraryTable.C at line 188
    Could not load "libpetscFoam.so"
libpetscFoam.so: cannot open shared object file: No such file or directory
Processor 75: field transfer
--> FOAM Warning : 
    From void* Foam::dlLibraryTable::openLibrary(const Foam::fileName&, bool)
    in file db/dynamicLibrary/dlLibraryTable/dlLibraryTable.C at line 188
    Could not load "libpetscFoam.so"
libpetscFoam.so: cannot open shared object file: No such file or directory

End

