/*---------------------------------------------------------------------------*\
| =========                 |                                                 |
| \\      /  F ield         | OpenFOAM: The Open Source CFD Toolbox           |
|  \\    /   O peration     | Version:  2306                                  |
|   \\  /    A nd           | Website:  www.openfoam.com                      |
|    \\/     M anipulation  |                                                 |
\*---------------------------------------------------------------------------*/
Build  : a6e826bd55-20230630 OPENFOAM=2306 version=v2306
Arch   : "LSB;label=32;scalar=64"
Exec   : simpleFoam -parallel -case /home/greole/data/code/exasim_project/micro_benchmarks/WindsorBody/workspace/2fb6920983c0a4ba0838fae3b3047904/case
Date   : Aug 12 2023
Time   : 01:00:25
Host   : nla-gpu2.ianm.kit.edu
PID    : 2487251
I/O    : uncollated
Case   : /home/greole/data/code/exasim_project/micro_benchmarks/WindsorBody/workspace/2fb6920983c0a4ba0838fae3b3047904/case
nProcs : 32
Hosts  :
(
    (nla-gpu2.ianm.kit.edu 32)
)
Pstream initialized with:
    floatTransfer      : false
    nProcsSimpleSum    : 0
    nonBlockingExchange: 0 (tuning: 0)
    exchange algorithm : -1
    commsType          : nonBlocking
    polling iterations : 0
trapFpe: Floating point exception trapping enabled (FOAM_SIGFPE).
fileModificationChecking : Monitoring run-time modified files using timeStampMaster (fileModificationSkew 5, maxFileModificationPolls 20)
allowSystemOperations : Allowing user-supplied system call operations

// * * * * * * * * * * * * * * * * * * * * * * * * * * * * * * * * * * * * * //
Create time

--> FOAM Warning : 
    From void* Foam::dlLibraryTable::openLibrary(const Foam::fileName&, bool)
    in file db/dynamicLibrary/dlLibraryTable/dlLibraryTable.C at line 188
    Could not load "libpetscFoam.so"
libpetscFoam.so: cannot open shared object file: No such file or directory
Create mesh for time = 0


SIMPLE: convergence criteria
    field p	 tolerance 1e-08
    field U	 tolerance 1e-08
    field k	 tolerance 1e-08
    field omega	 tolerance 1e-08
    field nuTilda	 tolerance 1e-08

Reading field p

Reading field U

Reading/calculating face flux field phi

Selecting incompressible transport model Newtonian
Selecting turbulence model type RAS
Selecting RAS turbulence model SpalartAllmaras
Selecting patchDistMethod meshWave
ft2 term: inactive
RAS
{
    RASModel        SpalartAllmaras;
    turbulence      on;
    printCoeffs     on;
    sigmaNut        0.66666;
    kappa           0.41;
    Cb1             0.1355;
    Cb2             0.622;
    Cw2             0.3;
    Cw3             2;
    Cv1             7.1;
    Cs              0.3;
    ck              0.07000000000000001;
    ft2             false;
    Ct3             1.2;
    Ct4             0.5;
}

No MRF models present

Creating finite volume options from "system/fvOptions"

Selecting finite volume options type velocityDampingConstraint
    Source: velocityDamping
    - selecting all cells
    - selected 50457088 cell(s) with volume 222.6066441282529

Starting time loop

--> FOAM Warning : 
    From bool Foam::functionObjectList::read()
    in file db/functionObjects/functionObjectList/functionObjectList.C at line 1035
    Reading "system/controlDict" at line 2 to 41
    Entry 'lref' is not a dictionary
--> FOAM Warning : 
    From bool Foam::functionObjectList::read()
    in file db/functionObjects/functionObjectList/functionObjectList.C at line 1035
    Reading "system/controlDict" at line 2 to 41
    Entry 'Aref' is not a dictionary
--> FOAM Warning : 
    From bool Foam::functionObjectList::read()
    in file db/functionObjects/functionObjectList/functionObjectList.C at line 1035
    Reading "system/controlDict" at line 2 to 41
    Entry 'yawAngle' is not a dictionary
--> FOAM Warning : 
    From bool Foam::functionObjectList::read()
    in file db/functionObjects/functionObjectList/functionObjectList.C at line 1035
    Reading "system/controlDict" at line 2 to 41
    Entry 'lDomain' is not a dictionary
--> FOAM Warning : 
    From bool Foam::functionObjectList::read()
    in file db/functionObjects/functionObjectList/functionObjectList.C at line 1035
    Reading "system/controlDict" at line 2 to 41
    Entry 'bDomain' is not a dictionary
--> FOAM Warning : 
    From bool Foam::functionObjectList::read()
    in file db/functionObjects/functionObjectList/functionObjectList.C at line 1035
    Reading "system/controlDict" at line 2 to 41
    Entry 'hDomain' is not a dictionary
--> FOAM Warning : 
    From bool Foam::functionObjectList::read()
    in file db/functionObjects/functionObjectList/functionObjectList.C at line 1035
    Reading "system/controlDict" at line 2 to 41
    Entry 'xCenter' is not a dictionary
--> FOAM Warning : 
    From bool Foam::functionObjectList::read()
    in file db/functionObjects/functionObjectList/functionObjectList.C at line 1035
    Reading "system/controlDict" at line 2 to 41
    Entry 'yCenter' is not a dictionary
--> FOAM Warning : 
    From bool Foam::functionObjectList::read()
    in file db/functionObjects/functionObjectList/functionObjectList.C at line 1035
    Reading "system/controlDict" at line 2 to 41
    Entry 'zCenter' is not a dictionary
--> FOAM Warning : 
    From bool Foam::functionObjectList::read()
    in file db/functionObjects/functionObjectList/functionObjectList.C at line 1035
    Reading "system/controlDict" at line 2 to 41
    Entry 'inletPatch' is not a dictionary
--> FOAM Warning : 
    From bool Foam::functionObjectList::read()
    in file db/functionObjects/functionObjectList/functionObjectList.C at line 1035
    Reading "system/controlDict" at line 2 to 41
    Entry 'outletPatch' is not a dictionary
--> FOAM Warning : 
    From bool Foam::functionObjectList::read()
    in file db/functionObjects/functionObjectList/functionObjectList.C at line 1035
    Reading "system/controlDict" at line 2 to 41
    Entry 'wallPatches' is not a dictionary
--> FOAM Warning : 
    From bool Foam::functionObjectList::read()
    in file db/functionObjects/functionObjectList/functionObjectList.C at line 1035
    Reading "system/controlDict" at line 2 to 41
    Entry 'forcesWallPatches' is not a dictionary
--> FOAM Warning : 
    From bool Foam::functionObjectList::read()
    in file db/functionObjects/functionObjectList/functionObjectList.C at line 1035
    Reading "system/controlDict" at line 2 to 41
    Entry 'symmPatches' is not a dictionary
--> FOAM Warning : 
    From bool Foam::functionObjectList::read()
    in file db/functionObjects/functionObjectList/functionObjectList.C at line 1035
    Reading "system/controlDict" at line 2 to 41
    Entry 'Uinf' is not a dictionary
--> FOAM Warning : 
    From bool Foam::functionObjectList::read()
    in file db/functionObjects/functionObjectList/functionObjectList.C at line 1035
    Reading "system/controlDict" at line 2 to 41
    Entry 'UinfMag' is not a dictionary
--> FOAM Warning : 
    From bool Foam::functionObjectList::read()
    in file db/functionObjects/functionObjectList/functionObjectList.C at line 1035
    Reading "system/controlDict" at line 2 to 41
    Entry 'nu' is not a dictionary
--> FOAM Warning : 
    From bool Foam::functionObjectList::read()
    in file db/functionObjects/functionObjectList/functionObjectList.C at line 1035
    Reading "system/controlDict" at line 2 to 41
    Entry 'pref' is not a dictionary
--> FOAM Warning : 
    From bool Foam::functionObjectList::read()
    in file db/functionObjects/functionObjectList/functionObjectList.C at line 1035
    Reading "system/controlDict" at line 2 to 41
    Entry 'viscRatio' is not a dictionary
--> FOAM Warning : 
    From bool Foam::functionObjectList::read()
    in file db/functionObjects/functionObjectList/functionObjectList.C at line 1035
    Reading "system/controlDict" at line 2 to 41
    Entry 'Tu' is not a dictionary
--> FOAM Warning : 
    From bool Foam::functionObjectList::read()
    in file db/functionObjects/functionObjectList/functionObjectList.C at line 1035
    Reading "system/controlDict" at line 2 to 41
    Entry 'LESturbModel' is not a dictionary
--> FOAM Warning : 
    From bool Foam::functionObjectList::read()
    in file db/functionObjects/functionObjectList/functionObjectList.C at line 1035
    Reading "system/controlDict" at line 2 to 41
    Entry 'RASturbModel' is not a dictionary
--> FOAM Warning : 
    From bool Foam::functionObjectList::read()
    in file db/functionObjects/functionObjectList/functionObjectList.C at line 1035
    Reading "system/controlDict" at line 2 to 41
    Entry 'deltaTurb' is not a dictionary
--> FOAM Warning : 
    From bool Foam::functionObjectList::read()
    in file db/functionObjects/functionObjectList/functionObjectList.C at line 1035
    Reading "system/controlDict" at line 2 to 41
    Entry 'dt' is not a dictionary
--> FOAM Warning : 
    From bool Foam::functionObjectList::read()
    in file db/functionObjects/functionObjectList/functionObjectList.C at line 1035
    Reading "system/controlDict" at line 2 to 41
    Entry 'tAvg' is not a dictionary
--> FOAM Warning : 
    From bool Foam::functionObjectList::read()
    in file db/functionObjects/functionObjectList/functionObjectList.C at line 1035
    Reading "system/controlDict" at line 2 to 41
    Entry 'tEnd' is not a dictionary
--> FOAM Warning : 
    From bool Foam::functionObjectList::read()
    in file db/functionObjects/functionObjectList/functionObjectList.C at line 1035
    Reading "system/controlDict" at line 2 to 41
    Entry 'writeInterval_' is not a dictionary
--> FOAM Warning : 
    From bool Foam::functionObjectList::read()
    in file db/functionObjects/functionObjectList/functionObjectList.C at line 1035
    Reading "system/controlDict" at line 2 to 41
    Entry 'nCores' is not a dictionary
--> FOAM Warning : 
    From bool Foam::functionObjectList::read()
    in file db/functionObjects/functionObjectList/functionObjectList.C at line 1035
    Reading "system/controlDict" at line 2 to 41
    Entry 'interpScheme' is not a dictionary
--> FOAM Warning : 
    From bool Foam::functionObjectList::read()
    in file db/functionObjects/functionObjectList/functionObjectList.C at line 1035
    Reading "system/controlDict" at line 2 to 41
    Entry 'probeField' is not a dictionary
wallShearStress wallShearStress:
    processing wall patches: 
        Windsor_Body
        CFDWT_Floor
        Windsor_Pins
        Windsor_Base
        Windsor_Body_2
        CFDWT_Floor_2
        Windsor_Pins_2
        Windsor_Base_2
        Windsor_Body_3
        CFDWT_Floor_3
        Windsor_Pins_3
        Windsor_Base_3
        Windsor_Body_4
        CFDWT_Floor_4
        Windsor_Pins_4
        Windsor_Base_4
        Windsor_Body_5
        CFDWT_Floor_5
        Windsor_Pins_5
        Windsor_Base_5
        Windsor_Body_6
        CFDWT_Floor_6
        Windsor_Pins_6
        Windsor_Base_6
        Windsor_Body_7
        CFDWT_Floor_7
        Windsor_Pins_7
        Windsor_Base_7
        Windsor_Body_8
        CFDWT_Floor_8
        Windsor_Pins_8
        Windsor_Base_8

pressure calc_cp:
    Operating mode: staticCoeff
    Not including hydrostatic effects

forceCoeffs forceCoeffsAll:
    rho: rhoInf
    Freestream density (rhoInf) set to 1
    Not including porosity effects
    magUInf: 40
    lRef   : 0.6375
    Aref   : 0.1124
    rhoInf : 1
    Selecting all coefficients
    - Drag force: Cd
    - Drag force front: Cd(f)
    - Drag force rear: Cd(r)
    - Lift force: Cl
    - Lift force front: Cl(f)
    - Lift force rear: Cl(r)
    - Pitch moment: CmPitch
    - Roll moment: CmRoll
    - Yaw moment: CmYaw
    - Side force: Cs
    - Side force front: Cs(f)
    - Side force rear: Cs(r)


forceCoeffs dragCoeffBase:
    rho: rhoInf
    Freestream density (rhoInf) set to 1
    Not including porosity effects
    magUInf: 40
    lRef   : 0.6375
    Aref   : 0.1124
    rhoInf : 1
    Selecting coefficients:
    - Drag force: Cd


Time = 1

velocityDampingConstraint velocityDamping damped 0 (0%) of cells, with max limit 300
[INFO] MatrixAssemblyU: 3555.855 [ms]
smoothSolver:  Solving for Ux, Initial residual = 0.9999999999992296, Final residual = 0.087305782345205, No Iterations 15
smoothSolver:  Solving for Uy, Initial residual = 1, Final residual = 0.08967552546616946, No Iterations 31
smoothSolver:  Solving for Uz, Initial residual = 1, Final residual = 0.0328581754778575, No Iterations 2
[INFO] MomentumPredictor: 3900.63 [ms]
[INFO] MatrixAssemblyPI: 667.682 [ms]
[INFO] MatrixAssemblyPII: 314.789 [ms]
[OGL LOG][lduLduBase.H:119] Initialising OGL
	OGL commit:  4647ee1+
	Branch: PersistentDeviceIdGuard 
	Build type: Release
	Ginkgo version: 1.5.0 ( develop)
	Ginkgo commit: 4292ffdee
	MPI is GPU aware: 1
	Forces host buffer based communication: 0
	CPU ranks per GPU: 1
	Matrix format: Coo
	End OGL_INFO
[OGL LOG][Proc: 0]: global_index_init: 8.31 [ms]
[OGL LOG][Proc: 0]p_local_cols: call_init: 0.031 [ms]
[OGL LOG][Proc: 0]p_local_rows: call_init: 0.003 [ms]
[OGL LOG][Proc: 0]p_local_ldu_map: call_init: 0.003 [ms]
[OGL LOG][Proc: 0]p_local_coeffs: call_init: 0.005 [ms]
[OGL LOG][Proc: 0]p_non_local_cols: call_init: 0.003 [ms]
[OGL LOG][Proc: 0]p_non_local_rows: call_init: 0.003 [ms]
[OGL LOG][Proc: 0]p_non_local_ldu_map: call_init: 0.002 [ms]
[OGL LOG][Proc: 0]p_non_local_coeffs: call_init: 0.002 [ms]
[OGL LOG][Proc: 0]p: init_local_sparsity_pattern: 488.604 [ms]
[OGL LOG][Proc: 0]p: init_non_local_sparsity_pattern: 34.619 [ms]
[OGL LOG][Proc: 0]p: update_local_matrix_data: 52.306 [ms]
[OGL LOG][Proc: 0]p: update_non_local_matrix_data: 0.263 [ms]
[OGL LOG][Proc: 0]device_partition: call_init: 72.30200000000001 [ms]
[OGL LOG][Proc: 0]p_matrix: call_init: 283.8 [ms]
[OGL LOG][Proc: 0]p_rhs: call_init: 10.783 [ms]
[OGL LOG][Proc: 0]p_solution: call_init: 3.48 [ms]
[OGL LOG][Preconditioner.H:121] Generate preconditioner BJ MaxBlockSize 1
[OGL LOG][Proc: 0]p: init_precond: 6.022 [ms]
[OGL LOG][StoppingCriterion.H:373] Creating stopping criterion with minIter 0 frequency 1
[OGL LOG][Proc: 0]p: generate_solver: 0.016 [ms]
[OGL LOG][Proc: 0]p: solve: 5834.078 [ms]
[OGL LOG][Proc: 0]p: copy_x_back: 8.323 [ms]
[OGL LOG][lduLduBase.H:336] 
Statistics:
	Time per iteration: 4923 [mu s]
	Time per residual norm calculation: 1704.000000 [mu s]
	Time per iteration and DOF: 0.097568 [ns]
	Retrieve results bandwidth 1.796000 [GByte/s]
[OGL LOG][Proc: 0]p: solve_multi_gpu: 6220.093 [ms]
BJhipGKOCG:  Solving for p, Initial residual = 1.000000000000567, Final residual = 0.00997864352534514, No Iterations 1185
[INFO] SolveP: 7165.356 [ms]
time step continuity errors : sum local = 0.003661210703714609, global = -2.782550961937532e-06, cumulative = -2.782550961937532e-06
[INFO] postSolveP: 159.699 [ms]
smoothSolver:  Solving for nuTilda, Initial residual = 0.9999999959861052, Final residual = 0.06429166507382585, No Iterations 3
[INFO] TimeStep: 18028.949 [ms]
ExecutionTime = 71.02 s  ClockTime = 71 s

--> FOAM Warning : 
    From virtual bool Foam::functionObjects::fieldSelection::checkSelection()
    in file functionObjects/fieldSelections/fieldSelection/fieldSelection.C at line 166
    Field k not found
--> FOAM Warning : 
    From virtual bool Foam::functionObjects::fieldSelection::checkSelection()
    in file functionObjects/fieldSelections/fieldSelection/fieldSelection.C at line 166
    Field gammaInt not found
--> FOAM Warning : 
    From virtual bool Foam::functionObjects::fieldSelection::checkSelection()
    in file functionObjects/fieldSelections/fieldSelection/fieldSelection.C at line 166
    Field omega not found
--> FOAM Warning : 
    From virtual bool Foam::functionObjects::fieldSelection::checkSelection()
    in file functionObjects/fieldSelections/fieldSelection/fieldSelection.C at line 166
    Field ReThetat not found
--> FOAM Warning : 
    From virtual bool Foam::functionObjects::fieldSelection::checkSelection()
    in file functionObjects/fieldSelections/fieldSelection/fieldSelection.C at line 166
    Field epsilon not found
--> FOAM Warning : 
    From virtual bool Foam::functionObjects::solverFieldSelection::updateSelection()
    in file functionObjects/fieldSelections/solverFieldSelection/solverFieldSelection.C at line 85
    Valid solver fields are: 3(U nuTilda p)Time = 2

velocityDampingConstraint velocityDamping damped 0 (0%) of cells, with max limit 300
[INFO] MatrixAssemblyU: 3380.289 [ms]
smoothSolver:  Solving for Ux, Initial residual = 0.2130939505538799, Final residual = 0.0184007589442211, No Iterations 13
smoothSolver:  Solving for Uy, Initial residual = 0.3542961198127559, Final residual = 0.03298443190591476, No Iterations 13
smoothSolver:  Solving for Uz, Initial residual = 0.3287075101598571, Final residual = 0.02813006871102135, No Iterations 13
[INFO] MomentumPredictor: 3255.375 [ms]
[INFO] MatrixAssemblyPI: 665.397 [ms]
[INFO] MatrixAssemblyPII: 313.84 [ms]
[OGL LOG][Proc: 0]: global_index_init: 0.128 [ms]
[OGL LOG][Proc: 0]p_local_coeffs: call_update: 0.001 [ms]
[OGL LOG][Proc: 0]p_non_local_coeffs: call_update: 0 [ms]
[OGL LOG][Proc: 0]p: update_local_matrix_data: 79.35000000000001 [ms]
[OGL LOG][Proc: 0]p: update_non_local_matrix_data: 0.242 [ms]
[OGL LOG][Proc: 0]p_matrix: call_update: 23.439 [ms]
[OGL LOG][Proc: 0]p_rhs: call_update: 9.415000000000001 [ms]
[OGL LOG][Preconditioner.H:121] Generate preconditioner BJ MaxBlockSize 1
[OGL LOG][Proc: 0]p: init_precond: 1.473 [ms]
[OGL LOG][StoppingCriterion.H:373] Creating stopping criterion with minIter 711 frequency 15
[OGL LOG][Proc: 0]p: generate_solver: 0.001 [ms]
[OGL LOG][Proc: 0]p: solve: 2891.032 [ms]
[OGL LOG][Proc: 0]p: copy_x_back: 8 [ms]
[OGL LOG][lduLduBase.H:336] 
Statistics:
	Time per iteration: 3008 [mu s]
	Time per residual norm calculation: 379.000000 [mu s]
	Time per iteration and DOF: 0.059615 [ns]
	Retrieve results bandwidth 1.868000 [GByte/s]
[OGL LOG][Proc: 0]p: solve_multi_gpu: 2934.753 [ms]
BJhipGKOCG:  Solving for p, Initial residual = 0.2097846590799225, Final residual = 0.001754327956875878, No Iterations 961
[INFO] SolveP: 3031.738 [ms]
time step continuity errors : sum local = 0.03596035641904566, global = 0.001697434683530271, cumulative = 0.001694652132568334
[INFO] postSolveP: 163.045 [ms]
smoothSolver:  Solving for nuTilda, Initial residual = 0.4060370718601609, Final residual = 0.02532637332728408, No Iterations 1
[INFO] TimeStep: 12951.711 [ms]
ExecutionTime = 86.91 s  ClockTime = 87 s

Time = 3

velocityDampingConstraint velocityDamping damped 6642 (0.01%) of cells, with max limit 300
[INFO] MatrixAssemblyU: 3412.124 [ms]
smoothSolver:  Solving for Ux, Initial residual = 0.1248206991060635, Final residual = 0.01171404676679713, No Iterations 9
smoothSolver:  Solving for Uy, Initial residual = 0.205688597830445, Final residual = 0.01959817918437515, No Iterations 10
smoothSolver:  Solving for Uz, Initial residual = 0.2186523601854022, Final residual = 0.02134845828415267, No Iterations 9
[INFO] MomentumPredictor: 2511.71 [ms]
[INFO] MatrixAssemblyPI: 666.773 [ms]
[INFO] MatrixAssemblyPII: 312.8 [ms]
[OGL LOG][Proc: 0]: global_index_init: 0.057 [ms]
[OGL LOG][Proc: 0]p_local_coeffs: call_update: 0 [ms]
[OGL LOG][Proc: 0]p_non_local_coeffs: call_update: 0 [ms]
[OGL LOG][Proc: 0]p: update_local_matrix_data: 81.53100000000001 [ms]
[OGL LOG][Proc: 0]p: update_non_local_matrix_data: 0.273 [ms]
[OGL LOG][Proc: 0]p_matrix: call_update: 20.329 [ms]
[OGL LOG][Proc: 0]p_rhs: call_update: 10.842 [ms]
[OGL LOG][Preconditioner.H:121] Generate preconditioner BJ MaxBlockSize 1
[OGL LOG][Proc: 0]p: init_precond: 1.441 [ms]
[OGL LOG][StoppingCriterion.H:373] Creating stopping criterion with minIter 576 frequency 7
[OGL LOG][Proc: 0]p: generate_solver: 0.001 [ms]
[OGL LOG][Proc: 0]p: solve: 1811.938 [ms]
[OGL LOG][Proc: 0]p: copy_x_back: 9.186999999999999 [ms]
[OGL LOG][lduLduBase.H:336] 
Statistics:
	Time per iteration: 3113 [mu s]
	Time per residual norm calculation: 404.000000 [mu s]
	Time per iteration and DOF: 0.061696 [ns]
	Retrieve results bandwidth 1.627000 [GByte/s]
[OGL LOG][Proc: 0]p: solve_multi_gpu: 1854.932 [ms]
BJhipGKOCG:  Solving for p, Initial residual = 0.1171638246451307, Final residual = 0.001100311585681938, No Iterations 582
[INFO] SolveP: 1954.166 [ms]
time step continuity errors : sum local = 0.01241499521238914, global = 0.0001064337101493708, cumulative = 0.001801085842717705
[INFO] postSolveP: 160.642 [ms]
smoothSolver:  Solving for nuTilda, Initial residual = 0.2092711268182962, Final residual = 0.01312655526467298, No Iterations 2
[INFO] TimeStep: 11223.826 [ms]
ExecutionTime = 101.03 s  ClockTime = 101 s

Time = 4

velocityDampingConstraint velocityDamping damped 0 (0%) of cells, with max limit 300
[INFO] MatrixAssemblyU: 3406.78 [ms]
smoothSolver:  Solving for Ux, Initial residual = 0.05439727943661146, Final residual = 0.004947496510878731, No Iterations 11
smoothSolver:  Solving for Uy, Initial residual = 0.1223166622995241, Final residual = 0.01093686826044013, No Iterations 11
smoothSolver:  Solving for Uz, Initial residual = 0.1335963862488453, Final residual = 0.0129994380600701, No Iterations 10
[INFO] MomentumPredictor: 2786.465 [ms]
[INFO] MatrixAssemblyPI: 664.8819999999999 [ms]
[INFO] MatrixAssemblyPII: 310.287 [ms]
[OGL LOG][Proc: 0]: global_index_init: 0.033 [ms]
[OGL LOG][Proc: 0]p_local_coeffs: call_update: 0 [ms]
[OGL LOG][Proc: 0]p_non_local_coeffs: call_update: 0 [ms]
[OGL LOG][Proc: 0]p: update_local_matrix_data: 82.777 [ms]
[OGL LOG][Proc: 0]p: update_non_local_matrix_data: 0.234 [ms]
[OGL LOG][Proc: 0]p_matrix: call_update: 22.733 [ms]
[OGL LOG][Proc: 0]p_rhs: call_update: 5.261 [ms]
[OGL LOG][Preconditioner.H:121] Generate preconditioner BJ MaxBlockSize 1
[OGL LOG][Proc: 0]p: init_precond: 1.494 [ms]
[OGL LOG][StoppingCriterion.H:373] Creating stopping criterion with minIter 349 frequency 5
[OGL LOG][Proc: 0]p: generate_solver: 0.001 [ms]
[OGL LOG][Proc: 0]p: solve: 1168.328 [ms]
[OGL LOG][Proc: 0]p: copy_x_back: 9.195 [ms]
[OGL LOG][lduLduBase.H:336] 
Statistics:
	Time per iteration: 3281 [mu s]
	Time per residual norm calculation: 406.000000 [mu s]
	Time per iteration and DOF: 0.065026 [ns]
	Retrieve results bandwidth 1.625000 [GByte/s]
[OGL LOG][Proc: 0]p: solve_multi_gpu: 1208.197 [ms]
BJhipGKOCG:  Solving for p, Initial residual = 0.1410221299469789, Final residual = 0.001366618437233675, No Iterations 356
[INFO] SolveP: 1308.774 [ms]
time step continuity errors : sum local = 0.01301880558668684, global = -0.0002909836994087576, cumulative = 0.001510102143308947
[INFO] postSolveP: 164.666 [ms]
smoothSolver:  Solving for nuTilda, Initial residual = 0.1246955352274196, Final residual = 0.0105155488501147, No Iterations 2
[INFO] TimeStep: 10848.164 [ms]
ExecutionTime = 114.66 s  ClockTime = 114 s

Time = 5

velocityDampingConstraint velocityDamping damped 899 (0%) of cells, with max limit 300
[INFO] MatrixAssemblyU: 3397.883 [ms]
smoothSolver:  Solving for Ux, Initial residual = 0.04398075872925211, Final residual = 0.004192260668742155, No Iterations 10
smoothSolver:  Solving for Uy, Initial residual = 0.09784508927233028, Final residual = 0.009219080484457243, No Iterations 11
smoothSolver:  Solving for Uz, Initial residual = 0.1138359706744907, Final residual = 0.01127432969961572, No Iterations 10
[INFO] MomentumPredictor: 2716.958 [ms]
[INFO] MatrixAssemblyPI: 667.049 [ms]
[INFO] MatrixAssemblyPII: 315.658 [ms]
[OGL LOG][Proc: 0]: global_index_init: 0.062 [ms]
[OGL LOG][Proc: 0]p_local_coeffs: call_update: 0 [ms]
[OGL LOG][Proc: 0]p_non_local_coeffs: call_update: 0 [ms]
[OGL LOG][Proc: 0]p: update_local_matrix_data: 81.38500000000001 [ms]
[OGL LOG][Proc: 0]p: update_non_local_matrix_data: 0.339 [ms]
[OGL LOG][Proc: 0]p_matrix: call_update: 15.897 [ms]
[OGL LOG][Proc: 0]p_rhs: call_update: 13.144 [ms]
[OGL LOG][Preconditioner.H:121] Generate preconditioner BJ MaxBlockSize 1
[OGL LOG][Proc: 0]p: init_precond: 1.471 [ms]
[OGL LOG][StoppingCriterion.H:373] Creating stopping criterion with minIter 213 frequency 4
[OGL LOG][Proc: 0]p: generate_solver: 0.002 [ms]
[OGL LOG][Proc: 0]p: solve: 1112.148 [ms]
[OGL LOG][Proc: 0]p: copy_x_back: 8.779 [ms]
[OGL LOG][lduLduBase.H:336] 
Statistics:
	Time per iteration: 3300 [mu s]
	Time per residual norm calculation: 374.000000 [mu s]
	Time per iteration and DOF: 0.065402 [ns]
	Retrieve results bandwidth 1.702000 [GByte/s]
[OGL LOG][Proc: 0]p: solve_multi_gpu: 1152.633 [ms]
BJhipGKOCG:  Solving for p, Initial residual = 0.1029057771784881, Final residual = 0.001023391149306012, No Iterations 337
[INFO] SolveP: 1251.751 [ms]
time step continuity errors : sum local = 0.007632781122749802, global = 0.0003870210811569548, cumulative = 0.001897123224465902
[INFO] postSolveP: 161.548 [ms]
smoothSolver:  Solving for nuTilda, Initial residual = 0.07091441283815628, Final residual = 0.004311867960033584, No Iterations 3
[INFO] TimeStep: 10769.757 [ms]
ExecutionTime = 128.16 s  ClockTime = 128 s

Time = 6

velocityDampingConstraint velocityDamping damped 0 (0%) of cells, with max limit 300
[INFO] MatrixAssemblyU: 3366.744 [ms]
smoothSolver:  Solving for Ux, Initial residual = 0.02988570725752405, Final residual = 0.002661156214615747, No Iterations 12
smoothSolver:  Solving for Uy, Initial residual = 0.07444145521931371, Final residual = 0.006888056362744066, No Iterations 12
smoothSolver:  Solving for Uz, Initial residual = 0.08087450942826695, Final residual = 0.006927417879753414, No Iterations 12
[INFO] MomentumPredictor: 3053.588 [ms]
[INFO] MatrixAssemblyPI: 666.49 [ms]
[INFO] MatrixAssemblyPII: 311.682 [ms]
[OGL LOG][Proc: 0]: global_index_init: 0.05 [ms]
[OGL LOG][Proc: 0]p_local_coeffs: call_update: 0 [ms]
[OGL LOG][Proc: 0]p_non_local_coeffs: call_update: 0 [ms]
[OGL LOG][Proc: 0]p: update_local_matrix_data: 79.117 [ms]
[OGL LOG][Proc: 0]p: update_non_local_matrix_data: 0.361 [ms]
[OGL LOG][Proc: 0]p_matrix: call_update: 21.381 [ms]
[OGL LOG][Proc: 0]p_rhs: call_update: 12.015 [ms]
[OGL LOG][Preconditioner.H:121] Generate preconditioner BJ MaxBlockSize 1
[OGL LOG][Proc: 0]p: init_precond: 1.433 [ms]
[OGL LOG][StoppingCriterion.H:373] Creating stopping criterion with minIter 202 frequency 4
[OGL LOG][Proc: 0]p: generate_solver: 0.001 [ms]
[OGL LOG][Proc: 0]p: solve: 1082.973 [ms]
[OGL LOG][Proc: 0]p: copy_x_back: 8.694000000000001 [ms]
[OGL LOG][lduLduBase.H:336] 
Statistics:
	Time per iteration: 3332 [mu s]
	Time per residual norm calculation: 378.000000 [mu s]
	Time per iteration and DOF: 0.066036 [ns]
	Retrieve results bandwidth 1.719000 [GByte/s]
[OGL LOG][Proc: 0]p: solve_multi_gpu: 1127.705 [ms]
BJhipGKOCG:  Solving for p, Initial residual = 0.09132768664935211, Final residual = 0.0008945003294794605, No Iterations 325
[INFO] SolveP: 1224.597 [ms]
time step continuity errors : sum local = 0.006941102594601955, global = 0.0001406225509971762, cumulative = 0.002037745775463078
[INFO] postSolveP: 159.855 [ms]
smoothSolver:  Solving for nuTilda, Initial residual = 0.06426656914508969, Final residual = 0.003005196958971387, No Iterations 3
[INFO] TimeStep: 11041.54 [ms]
ExecutionTime = 141.91 s  ClockTime = 141 s

Time = 7

velocityDampingConstraint velocityDamping damped 104 (0%) of cells, with max limit 300
[INFO] MatrixAssemblyU: 3364.841 [ms]
smoothSolver:  Solving for Ux, Initial residual = 0.02701866569867419, Final residual = 0.002408499689048985, No Iterations 12
smoothSolver:  Solving for Uy, Initial residual = 0.06736365484520848, Final residual = 0.006371258986731836, No Iterations 12
smoothSolver:  Solving for Uz, Initial residual = 0.07108713904688502, Final residual = 0.006218377313012911, No Iterations 12
[INFO] MomentumPredictor: 3053.487 [ms]
[INFO] MatrixAssemblyPI: 667.268 [ms]
[INFO] MatrixAssemblyPII: 316.079 [ms]
[OGL LOG][Proc: 0]: global_index_init: 0.089 [ms]
[OGL LOG][Proc: 0]p_local_coeffs: call_update: 0 [ms]
[OGL LOG][Proc: 0]p_non_local_coeffs: call_update: 0 [ms]
[OGL LOG][Proc: 0]p: update_local_matrix_data: 77.753 [ms]
[OGL LOG][Proc: 0]p: update_non_local_matrix_data: 0.218 [ms]
[OGL LOG][Proc: 0]p_matrix: call_update: 16.077 [ms]
[OGL LOG][Proc: 0]p_rhs: call_update: 26.007 [ms]
[OGL LOG][Preconditioner.H:121] Generate preconditioner BJ MaxBlockSize 1
[OGL LOG][Proc: 0]p: init_precond: 1.46 [ms]
[OGL LOG][StoppingCriterion.H:373] Creating stopping criterion with minIter 195 frequency 4
[OGL LOG][Proc: 0]p: generate_solver: 0.001 [ms]
[OGL LOG][Proc: 0]p: solve: 1194.507 [ms]
[OGL LOG][Proc: 0]p: copy_x_back: 8.693 [ms]
[OGL LOG][lduLduBase.H:336] 
Statistics:
	Time per iteration: 3383 [mu s]
	Time per residual norm calculation: 377.000000 [mu s]
	Time per iteration and DOF: 0.067047 [ns]
	Retrieve results bandwidth 1.719000 [GByte/s]
[OGL LOG][Proc: 0]p: solve_multi_gpu: 1248.051 [ms]
BJhipGKOCG:  Solving for p, Initial residual = 0.07948455354329657, Final residual = 0.0007836651082347752, No Iterations 353
[INFO] SolveP: 1343.866 [ms]
time step continuity errors : sum local = 0.0059648343171622, global = -0.0004672901064119157, cumulative = 0.001570455669051162
[INFO] postSolveP: 160.733 [ms]
smoothSolver:  Solving for nuTilda, Initial residual = 0.04911532713558526, Final residual = 0.0032295985402379, No Iterations 3
[INFO] TimeStep: 11164.011 [ms]
ExecutionTime = 155.8 s  ClockTime = 155 s

Time = 8

velocityDampingConstraint velocityDamping damped 0 (0%) of cells, with max limit 300
[INFO] MatrixAssemblyU: 3354.432 [ms]
smoothSolver:  Solving for Ux, Initial residual = 0.02305493479417388, Final residual = 0.002136773287139134, No Iterations 12
smoothSolver:  Solving for Uy, Initial residual = 0.05998015664236906, Final residual = 0.005881104232330917, No Iterations 12
smoothSolver:  Solving for Uz, Initial residual = 0.06206037541049055, Final residual = 0.00562421742880127, No Iterations 12
[INFO] MomentumPredictor: 3044.428 [ms]
[INFO] MatrixAssemblyPI: 667.721 [ms]
[INFO] MatrixAssemblyPII: 314.209 [ms]
[OGL LOG][Proc: 0]: global_index_init: 0.043 [ms]
[OGL LOG][Proc: 0]p_local_coeffs: call_update: 0 [ms]
[OGL LOG][Proc: 0]p_non_local_coeffs: call_update: 0 [ms]
[OGL LOG][Proc: 0]p: update_local_matrix_data: 81.396 [ms]
[OGL LOG][Proc: 0]p: update_non_local_matrix_data: 0.307 [ms]
[OGL LOG][Proc: 0]p_matrix: call_update: 19.11 [ms]
[OGL LOG][Proc: 0]p_rhs: call_update: 11.479 [ms]
[OGL LOG][Preconditioner.H:121] Generate preconditioner BJ MaxBlockSize 1
[OGL LOG][Proc: 0]p: init_precond: 1.415 [ms]
[OGL LOG][StoppingCriterion.H:373] Creating stopping criterion with minIter 211 frequency 4
[OGL LOG][Proc: 0]p: generate_solver: 0.001 [ms]
[OGL LOG][Proc: 0]p: solve: 2361.228 [ms]
[OGL LOG][Proc: 0]p: copy_x_back: 8.538 [ms]
[OGL LOG][lduLduBase.H:336] 
Statistics:
	Time per iteration: 3135 [mu s]
	Time per residual norm calculation: 371.000000 [mu s]
	Time per iteration and DOF: 0.062132 [ns]
	Retrieve results bandwidth 1.750000 [GByte/s]
[OGL LOG][Proc: 0]p: solve_multi_gpu: 2402.986 [ms]
BJhipGKOCG:  Solving for p, Initial residual = 0.07195865836553846, Final residual = 0.0007119017793720878, No Iterations 753
[INFO] SolveP: 2501.975 [ms]
time step continuity errors : sum local = 0.005525589168678071, global = -0.0003704775726306759, cumulative = 0.001199978096420486
[INFO] postSolveP: 161.617 [ms]
smoothSolver:  Solving for nuTilda, Initial residual = 0.06536868973975736, Final residual = 0.005862768409456738, No Iterations 2
[INFO] TimeStep: 12230.949 [ms]
ExecutionTime = 170.96 s  ClockTime = 170 s

Time = 9

velocityDampingConstraint velocityDamping damped 0 (0%) of cells, with max limit 300
[INFO] MatrixAssemblyU: 3352.901 [ms]
smoothSolver:  Solving for Ux, Initial residual = 0.02047088292712028, Final residual = 0.001906757499727979, No Iterations 12
smoothSolver:  Solving for Uy, Initial residual = 0.0545975263269855, Final residual = 0.005401488602995256, No Iterations 12
smoothSolver:  Solving for Uz, Initial residual = 0.05536689888020282, Final residual = 0.005124909872693823, No Iterations 12
[INFO] MomentumPredictor: 3039.808 [ms]
[INFO] MatrixAssemblyPI: 668.559 [ms]
[INFO] MatrixAssemblyPII: 314.466 [ms]
[OGL LOG][Proc: 0]: global_index_init: 0.067 [ms]
[OGL LOG][Proc: 0]p_local_coeffs: call_update: 0 [ms]
[OGL LOG][Proc: 0]p_non_local_coeffs: call_update: 0 [ms]
[OGL LOG][Proc: 0]p: update_local_matrix_data: 80.44 [ms]
[OGL LOG][Proc: 0]p: update_non_local_matrix_data: 0.236 [ms]
[OGL LOG][Proc: 0]p_matrix: call_update: 16.573 [ms]
[OGL LOG][Proc: 0]p_rhs: call_update: 16.681 [ms]
[OGL LOG][Preconditioner.H:121] Generate preconditioner BJ MaxBlockSize 1
[OGL LOG][Proc: 0]p: init_precond: 1.423 [ms]
[OGL LOG][StoppingCriterion.H:373] Creating stopping criterion with minIter 451 frequency 6
[OGL LOG][Proc: 0]p: generate_solver: 0.001 [ms]
[OGL LOG][Proc: 0]p: solve: 1462.715 [ms]
[OGL LOG][Proc: 0]p: copy_x_back: 9.363 [ms]
[OGL LOG][lduLduBase.H:336] 
Statistics:
	Time per iteration: 3200 [mu s]
	Time per residual norm calculation: 413.000000 [mu s]
	Time per iteration and DOF: 0.063420 [ns]
	Retrieve results bandwidth 1.596000 [GByte/s]
[OGL LOG][Proc: 0]p: solve_multi_gpu: 1507.909 [ms]
BJhipGKOCG:  Solving for p, Initial residual = 0.06867441569564267, Final residual = 0.0003936311936692686, No Iterations 457
[INFO] SolveP: 1606.021 [ms]
time step continuity errors : sum local = 0.002961366456415495, global = 0.0005085847281485541, cumulative = 0.00170856282456904
[INFO] postSolveP: 160.566 [ms]
smoothSolver:  Solving for nuTilda, Initial residual = 0.04415118562616827, Final residual = 0.003202518496070245, No Iterations 3
[INFO] TimeStep: 11392.342 [ms]
ExecutionTime = 185.14 s  ClockTime = 184 s

Time = 10

velocityDampingConstraint velocityDamping damped 0 (0%) of cells, with max limit 300
[INFO] MatrixAssemblyU: 3349.051 [ms]
smoothSolver:  Solving for Ux, Initial residual = 0.01842818068048523, Final residual = 0.001727765662775094, No Iterations 12
smoothSolver:  Solving for Uy, Initial residual = 0.05016793763661407, Final residual = 0.00497775014853731, No Iterations 12
smoothSolver:  Solving for Uz, Initial residual = 0.05059039001757607, Final residual = 0.004757376648498978, No Iterations 12
[INFO] MomentumPredictor: 3067.639 [ms]
[INFO] MatrixAssemblyPI: 665.1180000000001 [ms]
[INFO] MatrixAssemblyPII: 309.29 [ms]
[OGL LOG][Proc: 0]: global_index_init: 0.06 [ms]
[OGL LOG][Proc: 0]p_local_coeffs: call_update: 0 [ms]
[OGL LOG][Proc: 0]p_non_local_coeffs: call_update: 0 [ms]
[OGL LOG][Proc: 0]p: update_local_matrix_data: 80.473 [ms]
[OGL LOG][Proc: 0]p: update_non_local_matrix_data: 0.251 [ms]
[OGL LOG][Proc: 0]p_matrix: call_update: 24.372 [ms]
[OGL LOG][Proc: 0]p_rhs: call_update: 7.303 [ms]
[OGL LOG][Preconditioner.H:121] Generate preconditioner BJ MaxBlockSize 1
[OGL LOG][Proc: 0]p: init_precond: 1.464 [ms]
[OGL LOG][StoppingCriterion.H:373] Creating stopping criterion with minIter 274 frequency 5
[OGL LOG][Proc: 0]p: generate_solver: 0.001 [ms]
[OGL LOG][Proc: 0]p: solve: 1005.845 [ms]
[OGL LOG][Proc: 0]p: copy_x_back: 8.999000000000001 [ms]
[OGL LOG][lduLduBase.H:336] 
Statistics:
	Time per iteration: 3398 [mu s]
	Time per residual norm calculation: 379.000000 [mu s]
	Time per iteration and DOF: 0.067344 [ns]
	Retrieve results bandwidth 1.661000 [GByte/s]
[OGL LOG][Proc: 0]p: solve_multi_gpu: 1049.17 [ms]
BJhipGKOCG:  Solving for p, Initial residual = 0.06284294817224459, Final residual = 0.0006279771667457947, No Iterations 296
[INFO] SolveP: 1147.438 [ms]
time step continuity errors : sum local = 0.00468673737320283, global = 0.0009606446062980737, cumulative = 0.002669207430867114
[INFO] postSolveP: 161.447 [ms]
smoothSolver:  Solving for nuTilda, Initial residual = 0.06970477454300882, Final residual = 0.005492323411623527, No Iterations 2
[INFO] TimeStep: 10886.907 [ms]
ExecutionTime = 198.71 s  ClockTime = 197 s

Time = 11

velocityDampingConstraint velocityDamping damped 0 (0%) of cells, with max limit 300
[INFO] MatrixAssemblyU: 3346.615 [ms]
smoothSolver:  Solving for Ux, Initial residual = 0.01673460175353952, Final residual = 0.00160303855298504, No Iterations 12
smoothSolver:  Solving for Uy, Initial residual = 0.04726910505539928, Final residual = 0.004661299550248402, No Iterations 12
smoothSolver:  Solving for Uz, Initial residual = 0.04714328776866105, Final residual = 0.004471225773762197, No Iterations 12
[INFO] MomentumPredictor: 3053.395 [ms]
[INFO] MatrixAssemblyPI: 665.603 [ms]
[INFO] MatrixAssemblyPII: 312.121 [ms]
[OGL LOG][Proc: 0]: global_index_init: 0.033 [ms]
[OGL LOG][Proc: 0]p_local_coeffs: call_update: 0 [ms]
[OGL LOG][Proc: 0]p_non_local_coeffs: call_update: 0 [ms]
[OGL LOG][Proc: 0]p: update_local_matrix_data: 81.65900000000001 [ms]
[OGL LOG][Proc: 0]p: update_non_local_matrix_data: 0.219 [ms]
[OGL LOG][Proc: 0]p_matrix: call_update: 23.053 [ms]
[OGL LOG][Proc: 0]p_rhs: call_update: 10.998 [ms]
[OGL LOG][Preconditioner.H:121] Generate preconditioner BJ MaxBlockSize 1
[OGL LOG][Proc: 0]p: init_precond: 1.447 [ms]
[OGL LOG][StoppingCriterion.H:373] Creating stopping criterion with minIter 177 frequency 3
[OGL LOG][Proc: 0]p: generate_solver: 0.001 [ms]
[OGL LOG][Proc: 0]p: solve: 2345.936 [ms]
[OGL LOG][Proc: 0]p: copy_x_back: 8.465 [ms]
[OGL LOG][lduLduBase.H:336] 
Statistics:
	Time per iteration: 3148 [mu s]
	Time per residual norm calculation: 375.000000 [mu s]
	Time per iteration and DOF: 0.062390 [ns]
	Retrieve results bandwidth 1.766000 [GByte/s]
[OGL LOG][Proc: 0]p: solve_multi_gpu: 2391.107 [ms]
BJhipGKOCG:  Solving for p, Initial residual = 0.05832799045246023, Final residual = 0.0005814504588839614, No Iterations 745
[INFO] SolveP: 2490.429 [ms]
time step continuity errors : sum local = 0.004345202305170792, global = -0.0001531996204830382, cumulative = 0.002516007810384076
[INFO] postSolveP: 159.935 [ms]
smoothSolver:  Solving for nuTilda, Initial residual = 0.03913921316533311, Final residual = 0.003026184489752221, No Iterations 3
[INFO] TimeStep: 12279.135 [ms]
ExecutionTime = 213.95 s  ClockTime = 212 s

Time = 12

velocityDampingConstraint velocityDamping damped 0 (0%) of cells, with max limit 300
[INFO] MatrixAssemblyU: 3345.331 [ms]
smoothSolver:  Solving for Ux, Initial residual = 0.0155935452617361, Final residual = 0.001514923366941736, No Iterations 12
smoothSolver:  Solving for Uy, Initial residual = 0.04570747323721558, Final residual = 0.004448286011022626, No Iterations 12
smoothSolver:  Solving for Uz, Initial residual = 0.04515845473032521, Final residual = 0.004281032447881621, No Iterations 12
[INFO] MomentumPredictor: 3058.306 [ms]
[INFO] MatrixAssemblyPI: 662.8200000000001 [ms]
[INFO] MatrixAssemblyPII: 313.267 [ms]
[OGL LOG][Proc: 0]: global_index_init: 0.057 [ms]
[OGL LOG][Proc: 0]p_local_coeffs: call_update: 0 [ms]
[OGL LOG][Proc: 0]p_non_local_coeffs: call_update: 0 [ms]
[OGL LOG][Proc: 0]p: update_local_matrix_data: 81.494 [ms]
[OGL LOG][Proc: 0]p: update_non_local_matrix_data: 0.212 [ms]
[OGL LOG][Proc: 0]p_matrix: call_update: 21.605 [ms]
[OGL LOG][Proc: 0]p_rhs: call_update: 12.138 [ms]
[OGL LOG][Preconditioner.H:121] Generate preconditioner BJ MaxBlockSize 1
[OGL LOG][Proc: 0]p: init_precond: 1.384 [ms]
[OGL LOG][StoppingCriterion.H:373] Creating stopping criterion with minIter 447 frequency 6
[OGL LOG][Proc: 0]p: generate_solver: 0.001 [ms]
[OGL LOG][Proc: 0]p: solve: 1428.677 [ms]
[OGL LOG][Proc: 0]p: copy_x_back: 8.691000000000001 [ms]
[OGL LOG][lduLduBase.H:336] 
Statistics:
	Time per iteration: 3167 [mu s]
	Time per residual norm calculation: 420.000000 [mu s]
	Time per iteration and DOF: 0.062766 [ns]
	Retrieve results bandwidth 1.720000 [GByte/s]
[OGL LOG][Proc: 0]p: solve_multi_gpu: 1473.704 [ms]
BJhipGKOCG:  Solving for p, Initial residual = 0.05111089151261201, Final residual = 0.0003168061314109892, No Iterations 451
[INFO] SolveP: 1572.83 [ms]
time step continuity errors : sum local = 0.002529067710206841, global = -0.0003545888717538713, cumulative = 0.002161418938630205
[INFO] postSolveP: 161.281 [ms]
smoothSolver:  Solving for nuTilda, Initial residual = 0.0654900053700956, Final residual = 0.005101709964640382, No Iterations 2
[INFO] TimeStep: 11306.143 [ms]
ExecutionTime = 228.02 s  ClockTime = 226 s

Time = 13

velocityDampingConstraint velocityDamping damped 0 (0%) of cells, with max limit 300
[INFO] MatrixAssemblyU: 3364.421 [ms]
smoothSolver:  Solving for Ux, Initial residual = 0.01448595651587499, Final residual = 0.001440217494281565, No Iterations 12
smoothSolver:  Solving for Uy, Initial residual = 0.04349384616413456, Final residual = 0.004245941475710775, No Iterations 12
smoothSolver:  Solving for Uz, Initial residual = 0.0430516546634306, Final residual = 0.004136195732618664, No Iterations 12
[INFO] MomentumPredictor: 3062.821 [ms]
[INFO] MatrixAssemblyPI: 665.895 [ms]
[INFO] MatrixAssemblyPII: 315.593 [ms]
[OGL LOG][Proc: 0]: global_index_init: 0.036 [ms]
[OGL LOG][Proc: 0]p_local_coeffs: call_update: 0 [ms]
[OGL LOG][Proc: 0]p_non_local_coeffs: call_update: 0 [ms]
[OGL LOG][Proc: 0]p: update_local_matrix_data: 80.839 [ms]
[OGL LOG][Proc: 0]p: update_non_local_matrix_data: 0.192 [ms]
[OGL LOG][Proc: 0]p_matrix: call_update: 23.822 [ms]
[OGL LOG][Proc: 0]p_rhs: call_update: 9.056000000000001 [ms]
[OGL LOG][Preconditioner.H:121] Generate preconditioner BJ MaxBlockSize 1
[OGL LOG][Proc: 0]p: init_precond: 1.434 [ms]
[OGL LOG][StoppingCriterion.H:373] Creating stopping criterion with minIter 270 frequency 5
[OGL LOG][Proc: 0]p: generate_solver: 0.001 [ms]
[OGL LOG][Proc: 0]p: solve: 969.458 [ms]
[OGL LOG][Proc: 0]p: copy_x_back: 8.098000000000001 [ms]
[OGL LOG][lduLduBase.H:336] 
Statistics:
	Time per iteration: 3389 [mu s]
	Time per residual norm calculation: 383.000000 [mu s]
	Time per iteration and DOF: 0.067166 [ns]
	Retrieve results bandwidth 1.846000 [GByte/s]
[OGL LOG][Proc: 0]p: solve_multi_gpu: 1013.138 [ms]
BJhipGKOCG:  Solving for p, Initial residual = 0.04860547840680084, Final residual = 0.0004806350698019091, No Iterations 286
[INFO] SolveP: 1112.067 [ms]
time step continuity errors : sum local = 0.003808925397167602, global = -0.0007801548839023323, cumulative = 0.001381264054727873
[INFO] postSolveP: 158.881 [ms]
smoothSolver:  Solving for nuTilda, Initial residual = 0.03471760165758349, Final residual = 0.00282815145094774, No Iterations 3
[INFO] TimeStep: 10937.154 [ms]
ExecutionTime = 241.63 s  ClockTime = 240 s

Time = 14

velocityDampingConstraint velocityDamping damped 0 (0%) of cells, with max limit 300
[INFO] MatrixAssemblyU: 3365.668 [ms]
smoothSolver:  Solving for Ux, Initial residual = 0.01364693652714825, Final residual = 0.001168829930380821, No Iterations 13
smoothSolver:  Solving for Uy, Initial residual = 0.04152261110239215, Final residual = 0.004071763416120945, No Iterations 12
smoothSolver:  Solving for Uz, Initial residual = 0.04193392345812083, Final residual = 0.004046737761635485, No Iterations 12
[INFO] MomentumPredictor: 3127.133 [ms]
[INFO] MatrixAssemblyPI: 667.259 [ms]
[INFO] MatrixAssemblyPII: 315.343 [ms]
[OGL LOG][Proc: 0]: global_index_init: 0.052 [ms]
[OGL LOG][Proc: 0]p_local_coeffs: call_update: 0 [ms]
[OGL LOG][Proc: 0]p_non_local_coeffs: call_update: 0 [ms]
[OGL LOG][Proc: 0]p: update_local_matrix_data: 79.864 [ms]
[OGL LOG][Proc: 0]p: update_non_local_matrix_data: 0.22 [ms]
[OGL LOG][Proc: 0]p_matrix: call_update: 20.61 [ms]
[OGL LOG][Proc: 0]p_rhs: call_update: 8.734999999999999 [ms]
[OGL LOG][Preconditioner.H:121] Generate preconditioner BJ MaxBlockSize 1
[OGL LOG][Proc: 0]p: init_precond: 1.482 [ms]
[OGL LOG][StoppingCriterion.H:373] Creating stopping criterion with minIter 171 frequency 3
[OGL LOG][Proc: 0]p: generate_solver: 0.001 [ms]
[OGL LOG][Proc: 0]p: solve: 2163.672 [ms]
[OGL LOG][Proc: 0]p: copy_x_back: 8.513999999999999 [ms]
[OGL LOG][lduLduBase.H:336] 
Statistics:
	Time per iteration: 3158 [mu s]
	Time per residual norm calculation: 369.000000 [mu s]
	Time per iteration and DOF: 0.062588 [ns]
	Retrieve results bandwidth 1.755000 [GByte/s]
[OGL LOG][Proc: 0]p: solve_multi_gpu: 2204.241 [ms]
BJhipGKOCG:  Solving for p, Initial residual = 0.04649914267433018, Final residual = 0.0004583489148357493, No Iterations 685
[INFO] SolveP: 2301.893 [ms]
time step continuity errors : sum local = 0.003624096866144648, global = -0.0002739231459828017, cumulative = 0.001107340908745071
[INFO] postSolveP: 160.516 [ms]
smoothSolver:  Solving for nuTilda, Initial residual = 0.05813810653928034, Final residual = 0.004801916413450449, No Iterations 2
[INFO] TimeStep: 12123.146 [ms]
ExecutionTime = 256.68 s  ClockTime = 254 s

Time = 15

velocityDampingConstraint velocityDamping damped 0 (0%) of cells, with max limit 300
[INFO] MatrixAssemblyU: 3347.322 [ms]
smoothSolver:  Solving for Ux, Initial residual = 0.01294033690442559, Final residual = 0.001113606185548849, No Iterations 13
smoothSolver:  Solving for Uy, Initial residual = 0.04066352990524845, Final residual = 0.003977687648688297, No Iterations 12
smoothSolver:  Solving for Uz, Initial residual = 0.0419672139551428, Final residual = 0.004054335734290423, No Iterations 12
[INFO] MomentumPredictor: 3109.528 [ms]
[INFO] MatrixAssemblyPI: 668.586 [ms]
[INFO] MatrixAssemblyPII: 313.039 [ms]
[OGL LOG][Proc: 0]: global_index_init: 0.045 [ms]
[OGL LOG][Proc: 0]p_local_coeffs: call_update: 0 [ms]
[OGL LOG][Proc: 0]p_non_local_coeffs: call_update: 0 [ms]
[OGL LOG][Proc: 0]p: update_local_matrix_data: 82.203 [ms]
[OGL LOG][Proc: 0]p: update_non_local_matrix_data: 0.264 [ms]
[OGL LOG][Proc: 0]p_matrix: call_update: 21.853 [ms]
[OGL LOG][Proc: 0]p_rhs: call_update: 7.359 [ms]
[OGL LOG][Preconditioner.H:121] Generate preconditioner BJ MaxBlockSize 1
[OGL LOG][Proc: 0]p: init_precond: 1.428 [ms]
[OGL LOG][StoppingCriterion.H:373] Creating stopping criterion with minIter 411 frequency 5
[OGL LOG][Proc: 0]p: generate_solver: 0.001 [ms]
[OGL LOG][Proc: 0]p: solve: 1341.36 [ms]
[OGL LOG][Proc: 0]p: copy_x_back: 8.032 [ms]
[OGL LOG][lduLduBase.H:336] 
Statistics:
	Time per iteration: 3224 [mu s]
	Time per residual norm calculation: 422.000000 [mu s]
	Time per iteration and DOF: 0.063896 [ns]
	Retrieve results bandwidth 1.861000 [GByte/s]
[OGL LOG][Proc: 0]p: solve_multi_gpu: 1381.338 [ms]
BJhipGKOCG:  Solving for p, Initial residual = 0.04681755581500722, Final residual = 0.0004141080872852449, No Iterations 416
[INFO] SolveP: 1481.755 [ms]
time step continuity errors : sum local = 0.003159052129239173, global = 0.0004984088758731087, cumulative = 0.00160574978461818
[INFO] postSolveP: 163.927 [ms]
smoothSolver:  Solving for nuTilda, Initial residual = 0.03138790873433487, Final residual = 0.00266270116623418, No Iterations 3
[INFO] TimeStep: 11334.12 [ms]
ExecutionTime = 270.75 s  ClockTime = 268 s

Time = 16

velocityDampingConstraint velocityDamping damped 0 (0%) of cells, with max limit 300
[INFO] MatrixAssemblyU: 3350.495 [ms]
smoothSolver:  Solving for Ux, Initial residual = 0.01225129966947609, Final residual = 0.001056795312804544, No Iterations 13
smoothSolver:  Solving for Uy, Initial residual = 0.03937059141196127, Final residual = 0.003897051294061929, No Iterations 12
smoothSolver:  Solving for Uz, Initial residual = 0.04166845791122344, Final residual = 0.00404907403823488, No Iterations 12
[INFO] MomentumPredictor: 3134.758 [ms]
[INFO] MatrixAssemblyPI: 668.854 [ms]
[INFO] MatrixAssemblyPII: 311.956 [ms]
[OGL LOG][Proc: 0]: global_index_init: 0.07200000000000001 [ms]
[OGL LOG][Proc: 0]p_local_coeffs: call_update: 0 [ms]
[OGL LOG][Proc: 0]p_non_local_coeffs: call_update: 0 [ms]
[OGL LOG][Proc: 0]p: update_local_matrix_data: 80.53100000000001 [ms]
[OGL LOG][Proc: 0]p: update_non_local_matrix_data: 0.376 [ms]
[OGL LOG][Proc: 0]p_matrix: call_update: 18.109 [ms]
[OGL LOG][Proc: 0]p_rhs: call_update: 14.55 [ms]
[OGL LOG][Preconditioner.H:121] Generate preconditioner BJ MaxBlockSize 1
[OGL LOG][Proc: 0]p: init_precond: 2.041 [ms]
[OGL LOG][StoppingCriterion.H:373] Creating stopping criterion with minIter 249 frequency 4
[OGL LOG][Proc: 0]p: generate_solver: 0 [ms]
[OGL LOG][Proc: 0]p: solve: 2018.61 [ms]
[OGL LOG][Proc: 0]p: copy_x_back: 8.263999999999999 [ms]
[OGL LOG][lduLduBase.H:336] 
Statistics:
	Time per iteration: 3188 [mu s]
	Time per residual norm calculation: 376.000000 [mu s]
	Time per iteration and DOF: 0.063182 [ns]
	Retrieve results bandwidth 1.808000 [GByte/s]
[OGL LOG][Proc: 0]p: solve_multi_gpu: 2062.78 [ms]
BJhipGKOCG:  Solving for p, Initial residual = 0.04525453958409317, Final residual = 0.0004500223711335727, No Iterations 633
[INFO] SolveP: 2161.134 [ms]
time step continuity errors : sum local = 0.003459708972107553, global = -2.136612655092407e-05, cumulative = 0.001584383658067255
[INFO] postSolveP: 160.687 [ms]
smoothSolver:  Solving for nuTilda, Initial residual = 0.05170367857159042, Final residual = 0.004553320726907422, No Iterations 2
[INFO] TimeStep: 11967.52 [ms]
ExecutionTime = 285.57 s  ClockTime = 283 s

Time = 17

velocityDampingConstraint velocityDamping damped 0 (0%) of cells, with max limit 300
[INFO] MatrixAssemblyU: 3369.204 [ms]
smoothSolver:  Solving for Ux, Initial residual = 0.01154826949411098, Final residual = 0.001003994522902122, No Iterations 13
smoothSolver:  Solving for Uy, Initial residual = 0.03921459328230785, Final residual = 0.003882336880324043, No Iterations 12
smoothSolver:  Solving for Uz, Initial residual = 0.04172257837757289, Final residual = 0.004066160357747599, No Iterations 12
[INFO] MomentumPredictor: 3113.278 [ms]
[INFO] MatrixAssemblyPI: 666.849 [ms]
[INFO] MatrixAssemblyPII: 314.01 [ms]
[OGL LOG][Proc: 0]: global_index_init: 0.045 [ms]
[OGL LOG][Proc: 0]p_local_coeffs: call_update: 0 [ms]
[OGL LOG][Proc: 0]p_non_local_coeffs: call_update: 0 [ms]
[OGL LOG][Proc: 0]p: update_local_matrix_data: 81.161 [ms]
[OGL LOG][Proc: 0]p: update_non_local_matrix_data: 0.304 [ms]
[OGL LOG][Proc: 0]p_matrix: call_update: 21.529 [ms]
[OGL LOG][Proc: 0]p_rhs: call_update: 9.528 [ms]
[OGL LOG][Preconditioner.H:121] Generate preconditioner BJ MaxBlockSize 1
[OGL LOG][Proc: 0]p: init_precond: 1.465 [ms]
[OGL LOG][StoppingCriterion.H:373] Creating stopping criterion with minIter 379 frequency 5
[OGL LOG][Proc: 0]p: generate_solver: 0.002 [ms]
[OGL LOG][Proc: 0]p: solve: 1235.652 [ms]
[OGL LOG][Proc: 0]p: copy_x_back: 8.415000000000001 [ms]
[OGL LOG][lduLduBase.H:336] 
Statistics:
	Time per iteration: 3243 [mu s]
	Time per residual norm calculation: 412.000000 [mu s]
	Time per iteration and DOF: 0.064272 [ns]
	Retrieve results bandwidth 1.776000 [GByte/s]
[OGL LOG][Proc: 0]p: solve_multi_gpu: 1277.882 [ms]
BJhipGKOCG:  Solving for p, Initial residual = 0.04333649793921114, Final residual = 0.0002315979015040016, No Iterations 381
[INFO] SolveP: 1376.944 [ms]
time step continuity errors : sum local = 0.00185186505920937, global = -0.000102870698611672, cumulative = 0.001481512959455583
[INFO] postSolveP: 159.964 [ms]
smoothSolver:  Solving for nuTilda, Initial residual = 0.02892924372649491, Final residual = 0.002512954624394215, No Iterations 3
[INFO] TimeStep: 11248.773 [ms]
ExecutionTime = 299.54 s  ClockTime = 297 s

Time = 18

velocityDampingConstraint velocityDamping damped 0 (0%) of cells, with max limit 300
[INFO] MatrixAssemblyU: 3357.692 [ms]
smoothSolver:  Solving for Ux, Initial residual = 0.01119523590401863, Final residual = 0.0009657970383313555, No Iterations 13
smoothSolver:  Solving for Uy, Initial residual = 0.03871458450313924, Final residual = 0.003297883930287295, No Iterations 13
smoothSolver:  Solving for Uz, Initial residual = 0.04172560802727047, Final residual = 0.004055883509151698, No Iterations 12
[INFO] MomentumPredictor: 3208.014 [ms]
[INFO] MatrixAssemblyPI: 666.559 [ms]
[INFO] MatrixAssemblyPII: 314.63 [ms]
[OGL LOG][Proc: 0]: global_index_init: 0.039 [ms]
[OGL LOG][Proc: 0]p_local_coeffs: call_update: 0 [ms]
[OGL LOG][Proc: 0]p_non_local_coeffs: call_update: 0 [ms]
[OGL LOG][Proc: 0]p: update_local_matrix_data: 81.364 [ms]
[OGL LOG][Proc: 0]p: update_non_local_matrix_data: 0.232 [ms]
[OGL LOG][Proc: 0]p_matrix: call_update: 15.92 [ms]
[OGL LOG][Proc: 0]p_rhs: call_update: 11.573 [ms]
[OGL LOG][Preconditioner.H:121] Generate preconditioner BJ MaxBlockSize 1
[OGL LOG][Proc: 0]p: init_precond: 1.462 [ms]
[OGL LOG][StoppingCriterion.H:373] Creating stopping criterion with minIter 228 frequency 4
[OGL LOG][Proc: 0]p: generate_solver: 0.001 [ms]
[OGL LOG][Proc: 0]p: solve: 853.577 [ms]
[OGL LOG][Proc: 0]p: copy_x_back: 8.064 [ms]
[OGL LOG][lduLduBase.H:336] 
Statistics:
	Time per iteration: 3428 [mu s]
	Time per residual norm calculation: 381.000000 [mu s]
	Time per iteration and DOF: 0.067939 [ns]
	Retrieve results bandwidth 1.853000 [GByte/s]
[OGL LOG][Proc: 0]p: solve_multi_gpu: 891.822 [ms]
BJhipGKOCG:  Solving for p, Initial residual = 0.04333992616655213, Final residual = 0.0004286766666980498, No Iterations 249
[INFO] SolveP: 991.3049999999999 [ms]
time step continuity errors : sum local = 0.003437796097957515, global = -0.0002222822942903951, cumulative = 0.001259230665165188
[INFO] postSolveP: 159.567 [ms]
smoothSolver:  Solving for nuTilda, Initial residual = 0.04636903356704618, Final residual = 0.004302164237039404, No Iterations 2
[INFO] TimeStep: 10875.688 [ms]
ExecutionTime = 313.04 s  ClockTime = 310 s

Time = 19

velocityDampingConstraint velocityDamping damped 0 (0%) of cells, with max limit 300
[INFO] MatrixAssemblyU: 3348.596 [ms]
smoothSolver:  Solving for Ux, Initial residual = 0.01084909206344852, Final residual = 0.0009353260738516995, No Iterations 13
smoothSolver:  Solving for Uy, Initial residual = 0.03896140169920917, Final residual = 0.003321528309859825, No Iterations 13
smoothSolver:  Solving for Uz, Initial residual = 0.04253710135995682, Final residual = 0.004110398734235314, No Iterations 12
[INFO] MomentumPredictor: 3197.489 [ms]
[INFO] MatrixAssemblyPI: 665.278 [ms]
[INFO] MatrixAssemblyPII: 316.635 [ms]
[OGL LOG][Proc: 0]: global_index_init: 0.036 [ms]
[OGL LOG][Proc: 0]p_local_coeffs: call_update: 0 [ms]
[OGL LOG][Proc: 0]p_non_local_coeffs: call_update: 0 [ms]
[OGL LOG][Proc: 0]p: update_local_matrix_data: 79.179 [ms]
[OGL LOG][Proc: 0]p: update_non_local_matrix_data: 0.277 [ms]
[OGL LOG][Proc: 0]p_matrix: call_update: 21.452 [ms]
[OGL LOG][Proc: 0]p_rhs: call_update: 12.232 [ms]
[OGL LOG][Preconditioner.H:121] Generate preconditioner BJ MaxBlockSize 1
[OGL LOG][Proc: 0]p: init_precond: 1.468 [ms]
[OGL LOG][StoppingCriterion.H:373] Creating stopping criterion with minIter 149 frequency 3
[OGL LOG][Proc: 0]p: generate_solver: 0.001 [ms]
[OGL LOG][Proc: 0]p: solve: 1114.852 [ms]
[OGL LOG][Proc: 0]p: copy_x_back: 8.388 [ms]
[OGL LOG][lduLduBase.H:336] 
Statistics:
	Time per iteration: 3368 [mu s]
	Time per residual norm calculation: 366.000000 [mu s]
	Time per iteration and DOF: 0.066750 [ns]
	Retrieve results bandwidth 1.782000 [GByte/s]
[OGL LOG][Proc: 0]p: solve_multi_gpu: 1159.628 [ms]
BJhipGKOCG:  Solving for p, Initial residual = 0.0437089398459341, Final residual = 0.000429481243794763, No Iterations 331
[INFO] SolveP: 1257.294 [ms]
time step continuity errors : sum local = 0.003456678711115184, global = -0.0002621635333817448, cumulative = 0.0009970671317834435
[INFO] postSolveP: 157.612 [ms]
smoothSolver:  Solving for nuTilda, Initial residual = 0.02700306586442243, Final residual = 0.002363461866624248, No Iterations 3
[INFO] TimeStep: 11191.007 [ms]
ExecutionTime = 326.92 s  ClockTime = 324 s

Time = 20

velocityDampingConstraint velocityDamping damped 0 (0%) of cells, with max limit 300
[INFO] MatrixAssemblyU: 3358.196 [ms]
smoothSolver:  Solving for Ux, Initial residual = 0.01069775454175246, Final residual = 0.0009172188606855877, No Iterations 13
smoothSolver:  Solving for Uy, Initial residual = 0.03933855735214679, Final residual = 0.003920472176027667, No Iterations 12
smoothSolver:  Solving for Uz, Initial residual = 0.04315701265822999, Final residual = 0.004140254108405576, No Iterations 12
[INFO] MomentumPredictor: 3116.945 [ms]
[INFO] MatrixAssemblyPI: 668.813 [ms]
[INFO] MatrixAssemblyPII: 312.139 [ms]
[OGL LOG][Proc: 0]: global_index_init: 0.034 [ms]
[OGL LOG][Proc: 0]p_local_coeffs: call_update: 0 [ms]
[OGL LOG][Proc: 0]p_non_local_coeffs: call_update: 0 [ms]
[OGL LOG][Proc: 0]p: update_local_matrix_data: 81.551 [ms]
[OGL LOG][Proc: 0]p: update_non_local_matrix_data: 0.226 [ms]
[OGL LOG][Proc: 0]p_matrix: call_update: 23.667 [ms]
[OGL LOG][Proc: 0]p_rhs: call_update: 7.318000000000001 [ms]
[OGL LOG][Preconditioner.H:121] Generate preconditioner BJ MaxBlockSize 1
[OGL LOG][Proc: 0]p: init_precond: 2.035 [ms]
[OGL LOG][StoppingCriterion.H:373] Creating stopping criterion with minIter 198 frequency 3
[OGL LOG][Proc: 0]p: generate_solver: 0.001 [ms]
[OGL LOG][Proc: 0]p: solve: 1122.6 [ms]
[OGL LOG][Proc: 0]p: copy_x_back: 8.568 [ms]
[OGL LOG][lduLduBase.H:336] 
Statistics:
	Time per iteration: 3361 [mu s]
	Time per residual norm calculation: 373.000000 [mu s]
	Time per iteration and DOF: 0.066611 [ns]
	Retrieve results bandwidth 1.744000 [GByte/s]
[OGL LOG][Proc: 0]p: solve_multi_gpu: 1165.379 [ms]
BJhipGKOCG:  Solving for p, Initial residual = 0.04362833659316876, Final residual = 0.0004343345973870232, No Iterations 334
[INFO] SolveP: 1264.679 [ms]
time step continuity errors : sum local = 0.003527471673106673, global = -0.000273245231145339, cumulative = 0.0007238219006381045
[INFO] postSolveP: 161.363 [ms]
smoothSolver:  Solving for nuTilda, Initial residual = 0.04182790869488858, Final residual = 0.004047949989518707, No Iterations 2
[INFO] TimeStep: 11054.814 [ms]
ExecutionTime = 340.67 s  ClockTime = 338 s

Time = 21

velocityDampingConstraint velocityDamping damped 0 (0%) of cells, with max limit 300
[INFO] MatrixAssemblyU: 3342.847 [ms]
smoothSolver:  Solving for Ux, Initial residual = 0.01049941604659776, Final residual = 0.0009031816410010942, No Iterations 13
smoothSolver:  Solving for Uy, Initial residual = 0.03998589970120485, Final residual = 0.003969865771008811, No Iterations 12
smoothSolver:  Solving for Uz, Initial residual = 0.04348217806017393, Final residual = 0.004135618724942688, No Iterations 12
[INFO] MomentumPredictor: 3132.81 [ms]
[INFO] MatrixAssemblyPI: 665.74 [ms]
[INFO] MatrixAssemblyPII: 314.041 [ms]
[OGL LOG][Proc: 0]: global_index_init: 0.034 [ms]
[OGL LOG][Proc: 0]p_local_coeffs: call_update: 0 [ms]
[OGL LOG][Proc: 0]p_non_local_coeffs: call_update: 0 [ms]
[OGL LOG][Proc: 0]p: update_local_matrix_data: 79.608 [ms]
[OGL LOG][Proc: 0]p: update_non_local_matrix_data: 0.233 [ms]
[OGL LOG][Proc: 0]p_matrix: call_update: 21.032 [ms]
[OGL LOG][Proc: 0]p_rhs: call_update: 11.685 [ms]
[OGL LOG][Preconditioner.H:121] Generate preconditioner BJ MaxBlockSize 1
[OGL LOG][Proc: 0]p: init_precond: 5.452 [ms]
[OGL LOG][StoppingCriterion.H:373] Creating stopping criterion with minIter 200 frequency 3
[OGL LOG][Proc: 0]p: generate_solver: 0.001 [ms]
[OGL LOG][Proc: 0]p: solve: 1095.145 [ms]
[OGL LOG][Proc: 0]p: copy_x_back: 8.474 [ms]
[OGL LOG][lduLduBase.H:336] 
Statistics:
	Time per iteration: 3308 [mu s]
	Time per residual norm calculation: 382.000000 [mu s]
	Time per iteration and DOF: 0.065561 [ns]
	Retrieve results bandwidth 1.764000 [GByte/s]
[OGL LOG][Proc: 0]p: solve_multi_gpu: 1143.043 [ms]
BJhipGKOCG:  Solving for p, Initial residual = 0.04380119431309137, Final residual = 0.0004371040755060846, No Iterations 331
[INFO] SolveP: 1241.428 [ms]
time step continuity errors : sum local = 0.003583935902525745, global = -0.0002069768172539082, cumulative = 0.0005168450833841963
[INFO] postSolveP: 158.189 [ms]
smoothSolver:  Solving for nuTilda, Initial residual = 0.0252080492158885, Final residual = 0.00221827555988037, No Iterations 3
[INFO] TimeStep: 11104.883 [ms]
ExecutionTime = 354.47 s  ClockTime = 351 s

Time = 22

velocityDampingConstraint velocityDamping damped 0 (0%) of cells, with max limit 300
[INFO] MatrixAssemblyU: 3351.603 [ms]
smoothSolver:  Solving for Ux, Initial residual = 0.01047148495965604, Final residual = 0.00104684031150461, No Iterations 12
smoothSolver:  Solving for Uy, Initial residual = 0.04058648851432664, Final residual = 0.003992055113258909, No Iterations 12
smoothSolver:  Solving for Uz, Initial residual = 0.04338554918169919, Final residual = 0.004095833099770164, No Iterations 12
[INFO] MomentumPredictor: 3054.349 [ms]
[INFO] MatrixAssemblyPI: 666.107 [ms]
[INFO] MatrixAssemblyPII: 310.491 [ms]
[OGL LOG][Proc: 0]: global_index_init: 0.415 [ms]
[OGL LOG][Proc: 0]p_local_coeffs: call_update: 0 [ms]
[OGL LOG][Proc: 0]p_non_local_coeffs: call_update: 0 [ms]
[OGL LOG][Proc: 0]p: update_local_matrix_data: 80.87 [ms]
[OGL LOG][Proc: 0]p: update_non_local_matrix_data: 0.43 [ms]
[OGL LOG][Proc: 0]p_matrix: call_update: 19.108 [ms]
[OGL LOG][Proc: 0]p_rhs: call_update: 9.314 [ms]
[OGL LOG][Preconditioner.H:121] Generate preconditioner BJ MaxBlockSize 1
[OGL LOG][Proc: 0]p: init_precond: 1.471 [ms]
[OGL LOG][StoppingCriterion.H:373] Creating stopping criterion with minIter 198 frequency 4
[OGL LOG][Proc: 0]p: generate_solver: 0.001 [ms]
[OGL LOG][Proc: 0]p: solve: 1092.745 [ms]
[OGL LOG][Proc: 0]p: copy_x_back: 6.225000000000001 [ms]
[OGL LOG][lduLduBase.H:336] 
Statistics:
	Time per iteration: 3281 [mu s]
	Time per residual norm calculation: 374.000000 [mu s]
	Time per iteration and DOF: 0.065026 [ns]
	Retrieve results bandwidth 2.401000 [GByte/s]
[OGL LOG][Proc: 0]p: solve_multi_gpu: 1130.052 [ms]
BJhipGKOCG:  Solving for p, Initial residual = 0.04373523338030051, Final residual = 0.0004252768652707578, No Iterations 333
[INFO] SolveP: 1234.432 [ms]
time step continuity errors : sum local = 0.003520248365225029, global = -5.025951201222986e-05, cumulative = 0.0004665855713719664
[INFO] postSolveP: 160.534 [ms]
smoothSolver:  Solving for nuTilda, Initial residual = 0.03796449137180278, Final residual = 0.002018735106704162, No Iterations 3
[INFO] TimeStep: 11030.991 [ms]
ExecutionTime = 368.2 s  ClockTime = 365 s

Time = 23

velocityDampingConstraint velocityDamping damped 0 (0%) of cells, with max limit 300
[INFO] MatrixAssemblyU: 3347.572 [ms]
smoothSolver:  Solving for Ux, Initial residual = 0.01036549672889546, Final residual = 0.0008859956717281854, No Iterations 13
smoothSolver:  Solving for Uy, Initial residual = 0.04107804424633066, Final residual = 0.003984978731956092, No Iterations 12
smoothSolver:  Solving for Uz, Initial residual = 0.0429271801292121, Final residual = 0.004009768721496482, No Iterations 12
[INFO] MomentumPredictor: 3124.011 [ms]
[INFO] MatrixAssemblyPI: 670.888 [ms]
[INFO] MatrixAssemblyPII: 313.528 [ms]
[OGL LOG][Proc: 0]: global_index_init: 0.037 [ms]
[OGL LOG][Proc: 0]p_local_coeffs: call_update: 0 [ms]
[OGL LOG][Proc: 0]p_non_local_coeffs: call_update: 0 [ms]
[OGL LOG][Proc: 0]p: update_local_matrix_data: 83.16800000000001 [ms]
[OGL LOG][Proc: 0]p: update_non_local_matrix_data: 0.351 [ms]
[OGL LOG][Proc: 0]p_matrix: call_update: 25.747 [ms]
[OGL LOG][Proc: 0]p_rhs: call_update: 4.382 [ms]
[OGL LOG][Preconditioner.H:121] Generate preconditioner BJ MaxBlockSize 1
[OGL LOG][Proc: 0]p: init_precond: 1.482 [ms]
[OGL LOG][StoppingCriterion.H:373] Creating stopping criterion with minIter 199 frequency 4
[OGL LOG][Proc: 0]p: generate_solver: 0.001 [ms]
[OGL LOG][Proc: 0]p: solve: 1126.928 [ms]
[OGL LOG][Proc: 0]p: copy_x_back: 8.322000000000001 [ms]
[OGL LOG][lduLduBase.H:336] 
Statistics:
	Time per iteration: 3384 [mu s]
	Time per residual norm calculation: 375.000000 [mu s]
	Time per iteration and DOF: 0.067067 [ns]
	Retrieve results bandwidth 1.796000 [GByte/s]
[OGL LOG][Proc: 0]p: solve_multi_gpu: 1168.072 [ms]
BJhipGKOCG:  Solving for p, Initial residual = 0.04350439694945039, Final residual = 0.0004304566310194445, No Iterations 333
[INFO] SolveP: 1269.159 [ms]
time step continuity errors : sum local = 0.003611294972015076, global = 0.0001758926201591885, cumulative = 0.000642478191531155
[INFO] postSolveP: 165.62 [ms]
smoothSolver:  Solving for nuTilda, Initial residual = 0.02338471852449428, Final residual = 0.002087443665358347, No Iterations 3
[INFO] TimeStep: 11130.944 [ms]
ExecutionTime = 382.03 s  ClockTime = 379 s

Time = 24

velocityDampingConstraint velocityDamping damped 0 (0%) of cells, with max limit 300
[INFO] MatrixAssemblyU: 3359.516 [ms]
smoothSolver:  Solving for Ux, Initial residual = 0.01039195908091826, Final residual = 0.001032850754919594, No Iterations 12
smoothSolver:  Solving for Uy, Initial residual = 0.04178931267904267, Final residual = 0.004028402814254494, No Iterations 12
smoothSolver:  Solving for Uz, Initial residual = 0.04255734907726132, Final residual = 0.003940470153773057, No Iterations 12
[INFO] MomentumPredictor: 3051.793 [ms]
[INFO] MatrixAssemblyPI: 668.662 [ms]
[INFO] MatrixAssemblyPII: 314.015 [ms]
[OGL LOG][Proc: 0]: global_index_init: 0.038 [ms]
[OGL LOG][Proc: 0]p_local_coeffs: call_update: 0 [ms]
[OGL LOG][Proc: 0]p_non_local_coeffs: call_update: 0 [ms]
[OGL LOG][Proc: 0]p: update_local_matrix_data: 79.236 [ms]
[OGL LOG][Proc: 0]p: update_non_local_matrix_data: 0.248 [ms]
[OGL LOG][Proc: 0]p_matrix: call_update: 22.313 [ms]
[OGL LOG][Proc: 0]p_rhs: call_update: 11.329 [ms]
[OGL LOG][Preconditioner.H:121] Generate preconditioner BJ MaxBlockSize 1
[OGL LOG][Proc: 0]p: init_precond: 3.266 [ms]
[OGL LOG][StoppingCriterion.H:373] Creating stopping criterion with minIter 199 frequency 3
[OGL LOG][Proc: 0]p: generate_solver: 0.001 [ms]
[OGL LOG][Proc: 0]p: solve: 1113.983 [ms]
[OGL LOG][Proc: 0]p: copy_x_back: 9.348000000000001 [ms]
[OGL LOG][lduLduBase.H:336] 
Statistics:
	Time per iteration: 3335 [mu s]
	Time per residual norm calculation: 378.000000 [mu s]
	Time per iteration and DOF: 0.066096 [ns]
	Retrieve results bandwidth 1.599000 [GByte/s]
[OGL LOG][Proc: 0]p: solve_multi_gpu: 1161.46 [ms]
BJhipGKOCG:  Solving for p, Initial residual = 0.04315503726490045, Final residual = 0.0004255306727544877, No Iterations 334
[INFO] SolveP: 1258.615 [ms]
time step continuity errors : sum local = 0.003622053453423741, global = 0.000394729192154215, cumulative = 0.00103720738368537
[INFO] postSolveP: 161.827 [ms]
smoothSolver:  Solving for nuTilda, Initial residual = 0.03446271821214176, Final residual = 0.001909720366263439, No Iterations 3
[INFO] TimeStep: 11061.15 [ms]
ExecutionTime = 395.79 s  ClockTime = 392 s

Time = 25

velocityDampingConstraint velocityDamping damped 0 (0%) of cells, with max limit 300
[INFO] MatrixAssemblyU: 3350.714 [ms]
smoothSolver:  Solving for Ux, Initial residual = 0.01033607596903701, Final residual = 0.0008835451121007273, No Iterations 13
smoothSolver:  Solving for Uy, Initial residual = 0.04259953576574997, Final residual = 0.004119493345306565, No Iterations 12
smoothSolver:  Solving for Uz, Initial residual = 0.04227592159170608, Final residual = 0.003901953466252706, No Iterations 12
[INFO] MomentumPredictor: 3113.42 [ms]
[INFO] MatrixAssemblyPI: 668.072 [ms]
[INFO] MatrixAssemblyPII: 313.907 [ms]
[OGL LOG][Proc: 0]: global_index_init: 0.078 [ms]
[OGL LOG][Proc: 0]p_local_coeffs: call_update: 0 [ms]
[OGL LOG][Proc: 0]p_non_local_coeffs: call_update: 0 [ms]
[OGL LOG][Proc: 0]p: update_local_matrix_data: 83.28 [ms]
[OGL LOG][Proc: 0]p: update_non_local_matrix_data: 0.335 [ms]
[OGL LOG][Proc: 0]p_matrix: call_update: 26.575 [ms]
[OGL LOG][Proc: 0]p_rhs: call_update: 2.012 [ms]
[OGL LOG][Preconditioner.H:121] Generate preconditioner BJ MaxBlockSize 1
[OGL LOG][Proc: 0]p: init_precond: 1.508 [ms]
[OGL LOG][StoppingCriterion.H:373] Creating stopping criterion with minIter 200 frequency 4
[OGL LOG][Proc: 0]p: generate_solver: 0.001 [ms]
[OGL LOG][Proc: 0]p: solve: 1167.969 [ms]
[OGL LOG][Proc: 0]p: copy_x_back: 8.647 [ms]
[OGL LOG][lduLduBase.H:336] 
Statistics:
	Time per iteration: 3346 [mu s]
	Time per residual norm calculation: 377.000000 [mu s]
	Time per iteration and DOF: 0.066314 [ns]
	Retrieve results bandwidth 1.728000 [GByte/s]
[OGL LOG][Proc: 0]p: solve_multi_gpu: 1207.866 [ms]
BJhipGKOCG:  Solving for p, Initial residual = 0.04257414578990138, Final residual = 0.0004220168594188644, No Iterations 349
[INFO] SolveP: 1309.257 [ms]
time step continuity errors : sum local = 0.003648176822655492, global = 0.0006135604083050659, cumulative = 0.001650767791990436
[INFO] postSolveP: 159.322 [ms]
smoothSolver:  Solving for nuTilda, Initial residual = 0.02152878285371406, Final residual = 0.001956527769056878, No Iterations 3
[INFO] TimeStep: 11169.013 [ms]
ExecutionTime = 409.65 s  ClockTime = 406 s

Time = 26

velocityDampingConstraint velocityDamping damped 0 (0%) of cells, with max limit 300
[INFO] MatrixAssemblyU: 3348.29 [ms]
smoothSolver:  Solving for Ux, Initial residual = 0.01041067363755304, Final residual = 0.001036123504748202, No Iterations 12
smoothSolver:  Solving for Uy, Initial residual = 0.04357071911933998, Final residual = 0.00427233786063509, No Iterations 12
smoothSolver:  Solving for Uz, Initial residual = 0.04229185041473948, Final residual = 0.003943093105408154, No Iterations 12
[INFO] MomentumPredictor: 3056.856 [ms]
[INFO] MatrixAssemblyPI: 664.779 [ms]
[INFO] MatrixAssemblyPII: 311.443 [ms]
[OGL LOG][Proc: 0]: global_index_init: 0.037 [ms]
[OGL LOG][Proc: 0]p_local_coeffs: call_update: 0 [ms]
[OGL LOG][Proc: 0]p_non_local_coeffs: call_update: 0 [ms]
[OGL LOG][Proc: 0]p: update_local_matrix_data: 79.812 [ms]
[OGL LOG][Proc: 0]p: update_non_local_matrix_data: 0.268 [ms]
[OGL LOG][Proc: 0]p_matrix: call_update: 18.522 [ms]
[OGL LOG][Proc: 0]p_rhs: call_update: 9.644 [ms]
[OGL LOG][Preconditioner.H:121] Generate preconditioner BJ MaxBlockSize 1
[OGL LOG][Proc: 0]p: init_precond: 1.449 [ms]
[OGL LOG][StoppingCriterion.H:373] Creating stopping criterion with minIter 209 frequency 4
[OGL LOG][Proc: 0]p: generate_solver: 0.001 [ms]
[OGL LOG][Proc: 0]p: solve: 2348.27 [ms]
[OGL LOG][Proc: 0]p: copy_x_back: 8.537000000000001 [ms]
[OGL LOG][lduLduBase.H:336] 
Statistics:
	Time per iteration: 3169 [mu s]
	Time per residual norm calculation: 378.000000 [mu s]
	Time per iteration and DOF: 0.062806 [ns]
	Retrieve results bandwidth 1.751000 [GByte/s]
[OGL LOG][Proc: 0]p: solve_multi_gpu: 2387.707 [ms]
BJhipGKOCG:  Solving for p, Initial residual = 0.04212265461767541, Final residual = 0.0004201637277149141, No Iterations 741
[INFO] SolveP: 2485.767 [ms]
time step continuity errors : sum local = 0.00368776533308657, global = -9.420953700678118e-05, cumulative = 0.001556558254983655
[INFO] postSolveP: 159.717 [ms]
smoothSolver:  Solving for nuTilda, Initial residual = 0.0314887742273855, Final residual = 0.001803662325172933, No Iterations 3
[INFO] TimeStep: 12279.15 [ms]
ExecutionTime = 424.81 s  ClockTime = 421 s

Time = 27

velocityDampingConstraint velocityDamping damped 0 (0%) of cells, with max limit 300
[INFO] MatrixAssemblyU: 3344.092 [ms]
smoothSolver:  Solving for Ux, Initial residual = 0.01042162431111934, Final residual = 0.001036082623368134, No Iterations 12
smoothSolver:  Solving for Uy, Initial residual = 0.04483505782065803, Final residual = 0.004440702471698423, No Iterations 12
smoothSolver:  Solving for Uz, Initial residual = 0.04268658460496293, Final residual = 0.004017507163899117, No Iterations 12
[INFO] MomentumPredictor: 3059.609 [ms]
[INFO] MatrixAssemblyPI: 667.896 [ms]
[INFO] MatrixAssemblyPII: 315.485 [ms]
[OGL LOG][Proc: 0]: global_index_init: 0.036 [ms]
[OGL LOG][Proc: 0]p_local_coeffs: call_update: 0 [ms]
[OGL LOG][Proc: 0]p_non_local_coeffs: call_update: 0 [ms]
[OGL LOG][Proc: 0]p: update_local_matrix_data: 80.73699999999999 [ms]
[OGL LOG][Proc: 0]p: update_non_local_matrix_data: 0.248 [ms]
[OGL LOG][Proc: 0]p_matrix: call_update: 21.631 [ms]
[OGL LOG][Proc: 0]p_rhs: call_update: 6.472 [ms]
[OGL LOG][Preconditioner.H:121] Generate preconditioner BJ MaxBlockSize 1
[OGL LOG][Proc: 0]p: init_precond: 1.51 [ms]
[OGL LOG][StoppingCriterion.H:373] Creating stopping criterion with minIter 444 frequency 6
[OGL LOG][Proc: 0]p: generate_solver: 0.001 [ms]
[OGL LOG][Proc: 0]p: solve: 1458.677 [ms]
[OGL LOG][Proc: 0]p: copy_x_back: 7.985 [ms]
[OGL LOG][lduLduBase.H:336] 
Statistics:
	Time per iteration: 3277 [mu s]
	Time per residual norm calculation: 420.000000 [mu s]
	Time per iteration and DOF: 0.064946 [ns]
	Retrieve results bandwidth 1.872000 [GByte/s]
[OGL LOG][Proc: 0]p: solve_multi_gpu: 1497.546 [ms]
BJhipGKOCG:  Solving for p, Initial residual = 0.04133564105567222, Final residual = 9.369652951799806e-05, No Iterations 445
[INFO] SolveP: 1595.963 [ms]
time step continuity errors : sum local = 0.0008548186936621653, global = -8.778364564743625e-05, cumulative = 0.001468774609336219
[INFO] postSolveP: 162.481 [ms]
smoothSolver:  Solving for nuTilda, Initial residual = 0.01983506500531585, Final residual = 0.001830741583635433, No Iterations 3
[INFO] TimeStep: 11387.379 [ms]
ExecutionTime = 438.95 s  ClockTime = 435 s

Time = 28

velocityDampingConstraint velocityDamping damped 0 (0%) of cells, with max limit 300
[INFO] MatrixAssemblyU: 3347.471 [ms]
smoothSolver:  Solving for Ux, Initial residual = 0.01051852204764121, Final residual = 0.001038782317666878, No Iterations 12
smoothSolver:  Solving for Uy, Initial residual = 0.04601057588700391, Final residual = 0.003939344495115561, No Iterations 13
smoothSolver:  Solving for Uz, Initial residual = 0.04353493806704293, Final residual = 0.004129248701746714, No Iterations 12
[INFO] MomentumPredictor: 3113.674 [ms]
[INFO] MatrixAssemblyPI: 664.193 [ms]
[INFO] MatrixAssemblyPII: 317.013 [ms]
[OGL LOG][Proc: 0]: global_index_init: 0.037 [ms]
[OGL LOG][Proc: 0]p_local_coeffs: call_update: 0 [ms]
[OGL LOG][Proc: 0]p_non_local_coeffs: call_update: 0 [ms]
[OGL LOG][Proc: 0]p: update_local_matrix_data: 82.3 [ms]
[OGL LOG][Proc: 0]p: update_non_local_matrix_data: 0.395 [ms]
[OGL LOG][Proc: 0]p_matrix: call_update: 19.844 [ms]
[OGL LOG][Proc: 0]p_rhs: call_update: 9.35 [ms]
[OGL LOG][Preconditioner.H:121] Generate preconditioner BJ MaxBlockSize 1
[OGL LOG][Proc: 0]p: init_precond: 1.462 [ms]
[OGL LOG][StoppingCriterion.H:373] Creating stopping criterion with minIter 267 frequency 5
[OGL LOG][Proc: 0]p: generate_solver: 0.001 [ms]
[OGL LOG][Proc: 0]p: solve: 997.418 [ms]
[OGL LOG][Proc: 0]p: copy_x_back: 8.83 [ms]
[OGL LOG][lduLduBase.H:336] 
Statistics:
	Time per iteration: 3313 [mu s]
	Time per residual norm calculation: 373.000000 [mu s]
	Time per iteration and DOF: 0.065660 [ns]
	Retrieve results bandwidth 1.693000 [GByte/s]
[OGL LOG][Proc: 0]p: solve_multi_gpu: 1038.08 [ms]
BJhipGKOCG:  Solving for p, Initial residual = 0.04256011132015131, Final residual = 0.000422411567989144, No Iterations 301
[INFO] SolveP: 1138.395 [ms]
time step continuity errors : sum local = 0.003872986890999563, global = -0.0001864424966059733, cumulative = 0.001282332112730245
[INFO] postSolveP: 160.518 [ms]
smoothSolver:  Solving for nuTilda, Initial residual = 0.02894829916213951, Final residual = 0.001696374670556838, No Iterations 3
[INFO] TimeStep: 10981.396 [ms]
ExecutionTime = 452.59 s  ClockTime = 449 s

Time = 29

velocityDampingConstraint velocityDamping damped 0 (0%) of cells, with max limit 300
[INFO] MatrixAssemblyU: 3342.545 [ms]
smoothSolver:  Solving for Ux, Initial residual = 0.01057720180455141, Final residual = 0.001042024693926812, No Iterations 12
smoothSolver:  Solving for Uy, Initial residual = 0.04752376735876462, Final residual = 0.004078884222969897, No Iterations 13
smoothSolver:  Solving for Uz, Initial residual = 0.04499920822538685, Final residual = 0.004274794529062576, No Iterations 12
[INFO] MomentumPredictor: 3121.036 [ms]
[INFO] MatrixAssemblyPI: 666.046 [ms]
[INFO] MatrixAssemblyPII: 310.917 [ms]
[OGL LOG][Proc: 0]: global_index_init: 0.033 [ms]
[OGL LOG][Proc: 0]p_local_coeffs: call_update: 0 [ms]
[OGL LOG][Proc: 0]p_non_local_coeffs: call_update: 0 [ms]
[OGL LOG][Proc: 0]p: update_local_matrix_data: 82.193 [ms]
[OGL LOG][Proc: 0]p: update_non_local_matrix_data: 0.236 [ms]
[OGL LOG][Proc: 0]p_matrix: call_update: 23.028 [ms]
[OGL LOG][Proc: 0]p_rhs: call_update: 8.394 [ms]
[OGL LOG][Preconditioner.H:121] Generate preconditioner BJ MaxBlockSize 1
[OGL LOG][Proc: 0]p: init_precond: 1.454 [ms]
[OGL LOG][StoppingCriterion.H:373] Creating stopping criterion with minIter 180 frequency 3
[OGL LOG][Proc: 0]p: generate_solver: 0.001 [ms]
[OGL LOG][Proc: 0]p: solve: 1168.392 [ms]
[OGL LOG][Proc: 0]p: copy_x_back: 7.312 [ms]
[OGL LOG][lduLduBase.H:336] 
Statistics:
	Time per iteration: 3347 [mu s]
	Time per residual norm calculation: 372.000000 [mu s]
	Time per iteration and DOF: 0.066334 [ns]
	Retrieve results bandwidth 2.044000 [GByte/s]
[OGL LOG][Proc: 0]p: solve_multi_gpu: 1209.813 [ms]
BJhipGKOCG:  Solving for p, Initial residual = 0.04368604108014555, Final residual = 0.0004311596546104158, No Iterations 349
[INFO] SolveP: 1310.355 [ms]
time step continuity errors : sum local = 0.003980866382946855, global = -0.0001967598930553405, cumulative = 0.001085572219674905
[INFO] postSolveP: 159.178 [ms]
smoothSolver:  Solving for nuTilda, Initial residual = 0.01833983138421694, Final residual = 0.001707118808643902, No Iterations 3
[INFO] TimeStep: 11161.789 [ms]
ExecutionTime = 466.45 s  ClockTime = 462 s

Time = 30

velocityDampingConstraint velocityDamping damped 0 (0%) of cells, with max limit 300
[INFO] MatrixAssemblyU: 3349.58 [ms]
smoothSolver:  Solving for Ux, Initial residual = 0.01076931125262824, Final residual = 0.001048329526856891, No Iterations 12
smoothSolver:  Solving for Uy, Initial residual = 0.04960643633425735, Final residual = 0.004226788447739652, No Iterations 13
smoothSolver:  Solving for Uz, Initial residual = 0.04661482526089204, Final residual = 0.00441330572126456, No Iterations 12
[INFO] MomentumPredictor: 3122.828 [ms]
[INFO] MatrixAssemblyPI: 668.682 [ms]
[INFO] MatrixAssemblyPII: 307.368 [ms]
[OGL LOG][Proc: 0]: global_index_init: 0.062 [ms]
[OGL LOG][Proc: 0]p_local_coeffs: call_update: 0 [ms]
[OGL LOG][Proc: 0]p_non_local_coeffs: call_update: 0 [ms]
[OGL LOG][Proc: 0]p: update_local_matrix_data: 81.947 [ms]
[OGL LOG][Proc: 0]p: update_non_local_matrix_data: 0.265 [ms]
[OGL LOG][Proc: 0]p_matrix: call_update: 14.35 [ms]
[OGL LOG][Proc: 0]p_rhs: call_update: 12.354 [ms]
[OGL LOG][Preconditioner.H:121] Generate preconditioner BJ MaxBlockSize 1
[OGL LOG][Proc: 0]p: init_precond: 1.479 [ms]
[OGL LOG][StoppingCriterion.H:373] Creating stopping criterion with minIter 209 frequency 4
[OGL LOG][Proc: 0]p: generate_solver: 0.001 [ms]
[OGL LOG][Proc: 0]p: solve: 853.446 [ms]
[OGL LOG][Proc: 0]p: copy_x_back: 8.457000000000001 [ms]
[OGL LOG][lduLduBase.H:336] 
Statistics:
	Time per iteration: 3427 [mu s]
	Time per residual norm calculation: 373.000000 [mu s]
	Time per iteration and DOF: 0.067919 [ns]
	Retrieve results bandwidth 1.767000 [GByte/s]
[OGL LOG][Proc: 0]p: solve_multi_gpu: 891.279 [ms]
BJhipGKOCG:  Solving for p, Initial residual = 0.04460110256163266, Final residual = 0.0004452584344466939, No Iterations 249
[INFO] SolveP: 991.332 [ms]
time step continuity errors : sum local = 0.004167474619608563, global = -0.0001425159645013338, cumulative = 0.0009430562551735709
[INFO] postSolveP: 159.053 [ms]
smoothSolver:  Solving for nuTilda, Initial residual = 0.0267599054639268, Final residual = 0.00158918078062333, No Iterations 3
[INFO] TimeStep: 10852.809 [ms]
ExecutionTime = 479.95 s  ClockTime = 476 s

Time = 31

velocityDampingConstraint velocityDamping damped 0 (0%) of cells, with max limit 300
[INFO] MatrixAssemblyU: 3345.504 [ms]
smoothSolver:  Solving for Ux, Initial residual = 0.01082420615019088, Final residual = 0.001053685906447105, No Iterations 12
smoothSolver:  Solving for Uy, Initial residual = 0.05183649415911668, Final residual = 0.005161172354134415, No Iterations 12
smoothSolver:  Solving for Uz, Initial residual = 0.04825707599705616, Final residual = 0.004564095743715899, No Iterations 12
[INFO] MomentumPredictor: 3061.774 [ms]
[INFO] MatrixAssemblyPI: 668.941 [ms]
[INFO] MatrixAssemblyPII: 314.124 [ms]
[OGL LOG][Proc: 0]: global_index_init: 0.043 [ms]
[OGL LOG][Proc: 0]p_local_coeffs: call_update: 0 [ms]
[...]
[INFO] SolveP: 969.284 [ms]
time step continuity errors : sum local = 0.005757260139783275, global = -0.0001318666281105072, cumulative = 0.001164716937047951
[INFO] postSolveP: 158.149 [ms]
smoothSolver:  Solving for nuTilda, Initial residual = 0.01294945903065007, Final residual = 0.00115926343293943, No Iterations 3
[INFO] TimeStep: 10800.893 [ms]
ExecutionTime = 628.39 s  ClockTime = 623 s

Time = 42

velocityDampingConstraint velocityDamping damped 0 (0%) of cells, with max limit 300
[INFO] MatrixAssemblyU: 3327.123 [ms]
smoothSolver:  Solving for Ux, Initial residual = 0.01212832105820465, Final residual = 0.0012024046163409, No Iterations 12
smoothSolver:  Solving for Uy, Initial residual = 0.07105926128110386, Final residual = 0.006617768466396384, No Iterations 13
smoothSolver:  Solving for Uz, Initial residual = 0.07112800714022935, Final residual = 0.006048516505832963, No Iterations 13
[INFO] MomentumPredictor: 3193.739 [ms]
[INFO] MatrixAssemblyPI: 666.725 [ms]
[INFO] MatrixAssemblyPII: 312.209 [ms]
[OGL LOG][Proc: 0]: global_index_init: 0.059 [ms]
[OGL LOG][Proc: 0]p_local_coeffs: call_update: 0 [ms]
[OGL LOG][Proc: 0]p_non_local_coeffs: call_update: 0 [ms]
[OGL LOG][Proc: 0]p: update_local_matrix_data: 78.03 [ms]
[OGL LOG][Proc: 0]p: update_non_local_matrix_data: 0.244 [ms]
[OGL LOG][Proc: 0]p_matrix: call_update: 17.204 [ms]
[OGL LOG][Proc: 0]p_rhs: call_update: 15.496 [ms]
[OGL LOG][Preconditioner.H:121] Generate preconditioner BJ MaxBlockSize 1
[OGL LOG][Proc: 0]p: init_precond: 1.415 [ms]
[OGL LOG][StoppingCriterion.H:373] Creating stopping criterion with minIter 137 frequency 3
[OGL LOG][Proc: 0]p: generate_solver: 0.001 [ms]
[OGL LOG][Proc: 0]p: solve: 812.011 [ms]
[OGL LOG][Proc: 0]p: copy_x_back: 9.239000000000001 [ms]
[OGL LOG][lduLduBase.H:336] 
Statistics:
	Time per iteration: 3545 [mu s]
	Time per residual norm calculation: 376.000000 [mu s]
	Time per iteration and DOF: 0.070258 [ns]
	Retrieve results bandwidth 1.618000 [GByte/s]
[OGL LOG][Proc: 0]p: solve_multi_gpu: 856.566 [ms]
BJhipGKOCG:  Solving for p, Initial residual = 0.05717569483929155, Final residual = 0.0005654161733857773, No Iterations 229
[INFO] SolveP: 955.461 [ms]
time step continuity errors : sum local = 0.005692682969511985, global = -0.0002647475528729029, cumulative = 0.0008999693841750484
[INFO] postSolveP: 159.608 [ms]
smoothSolver:  Solving for nuTilda, Initial residual = 0.01845973721786462, Final residual = 0.001112657590066052, No Iterations 3
[INFO] TimeStep: 10866.091 [ms]
ExecutionTime = 641.89 s  ClockTime = 637 s

Time = 43

velocityDampingConstraint velocityDamping damped 0 (0%) of cells, with max limit 300
[INFO] MatrixAssemblyU: 3326.522 [ms]
smoothSolver:  Solving for Ux, Initial residual = 0.01202807225246572, Final residual = 0.001029860940170256, No Iterations 13
smoothSolver:  Solving for Uy, Initial residual = 0.07182016753622109, Final residual = 0.006842033210796724, No Iterations 13
smoothSolver:  Solving for Uz, Initial residual = 0.070811881379583, Final residual = 0.006133745006069374, No Iterations 13
[INFO] MomentumPredictor: 3267.093 [ms]
[INFO] MatrixAssemblyPI: 667.148 [ms]
[INFO] MatrixAssemblyPII: 312.482 [ms]
[OGL LOG][Proc: 0]: global_index_init: 0.098 [ms]
[OGL LOG][Proc: 0]p_local_coeffs: call_update: 0 [ms]
[OGL LOG][Proc: 0]p_non_local_coeffs: call_update: 0 [ms]
[OGL LOG][Proc: 0]p: update_local_matrix_data: 82.42100000000001 [ms]
[OGL LOG][Proc: 0]p: update_non_local_matrix_data: 0.359 [ms]
[OGL LOG][Proc: 0]p_matrix: call_update: 18.784 [ms]
[OGL LOG][Proc: 0]p_rhs: call_update: 11.282 [ms]
[OGL LOG][Preconditioner.H:121] Generate preconditioner BJ MaxBlockSize 1
[OGL LOG][Proc: 0]p: init_precond: 1.457 [ms]
[OGL LOG][StoppingCriterion.H:373] Creating stopping criterion with minIter 137 frequency 3
[OGL LOG][Proc: 0]p: generate_solver: 0.001 [ms]
[OGL LOG][Proc: 0]p: solve: 794.883 [ms]
[OGL LOG][Proc: 0]p: copy_x_back: 9.282999999999999 [ms]
[OGL LOG][lduLduBase.H:336] 
Statistics:
	Time per iteration: 3517 [mu s]
	Time per residual norm calculation: 373.000000 [mu s]
	Time per iteration and DOF: 0.069703 [ns]
	Retrieve results bandwidth 1.610000 [GByte/s]
[OGL LOG][Proc: 0]p: solve_multi_gpu: 836.861 [ms]
BJhipGKOCG:  Solving for p, Initial residual = 0.05645050647267709, Final residual = 0.0005626828642938484, No Iterations 226
[INFO] SolveP: 937.2140000000001 [ms]
time step continuity errors : sum local = 0.00565161471539288, global = -0.0004346579596141854, cumulative = 0.000465311424560863
[INFO] postSolveP: 165.489 [ms]
smoothSolver:  Solving for nuTilda, Initial residual = 0.0123605640204338, Final residual = 0.001102861113930498, No Iterations 3
[INFO] TimeStep: 10917.691 [ms]
ExecutionTime = 655.4400000000001 s  ClockTime = 650 s

Time = 44

velocityDampingConstraint velocityDamping damped 0 (0%) of cells, with max limit 300
[INFO] MatrixAssemblyU: 3326.108 [ms]
smoothSolver:  Solving for Ux, Initial residual = 0.01203377338796727, Final residual = 0.001038249183672682, No Iterations 13
smoothSolver:  Solving for Uy, Initial residual = 0.07230990670287353, Final residual = 0.007050136990846465, No Iterations 13
smoothSolver:  Solving for Uz, Initial residual = 0.07014833675585311, Final residual = 0.006204900290447788, No Iterations 13
[INFO] MomentumPredictor: 3269.473 [ms]
[INFO] MatrixAssemblyPI: 667.275 [ms]
[INFO] MatrixAssemblyPII: 315.496 [ms]
[OGL LOG][Proc: 0]: global_index_init: 0.119 [ms]
[OGL LOG][Proc: 0]p_local_coeffs: call_update: 0 [ms]
[OGL LOG][Proc: 0]p_non_local_coeffs: call_update: 0 [ms]
[OGL LOG][Proc: 0]p: update_local_matrix_data: 81.371 [ms]
[OGL LOG][Proc: 0]p: update_non_local_matrix_data: 0.235 [ms]
[OGL LOG][Proc: 0]p_matrix: call_update: 21.077 [ms]
[OGL LOG][Proc: 0]p_rhs: call_update: 10.604 [ms]
[OGL LOG][Preconditioner.H:121] Generate preconditioner BJ MaxBlockSize 1
[OGL LOG][Proc: 0]p: init_precond: 1.464 [ms]
[OGL LOG][StoppingCriterion.H:373] Creating stopping criterion with minIter 135 frequency 3
[OGL LOG][Proc: 0]p: generate_solver: 0.001 [ms]
[OGL LOG][Proc: 0]p: solve: 846.269 [ms]
[OGL LOG][Proc: 0]p: copy_x_back: 8.608000000000001 [ms]
[OGL LOG][lduLduBase.H:336] 
Statistics:
	Time per iteration: 3426 [mu s]
	Time per residual norm calculation: 364.000000 [mu s]
	Time per iteration and DOF: 0.067899 [ns]
	Retrieve results bandwidth 1.736000 [GByte/s]
[OGL LOG][Proc: 0]p: solve_multi_gpu: 889.226 [ms]
BJhipGKOCG:  Solving for p, Initial residual = 0.05567036526396218, Final residual = 0.0005397738355319569, No Iterations 247
[INFO] SolveP: 988.272 [ms]
time step continuity errors : sum local = 0.005384829332286624, global = -0.0006499591512082954, cumulative = -0.0001846477266474325
[INFO] postSolveP: 159.939 [ms]
smoothSolver:  Solving for nuTilda, Initial residual = 0.01751573399946539, Final residual = 0.0010600691612202, No Iterations 3
[INFO] TimeStep: 10964.435 [ms]
ExecutionTime = 669.03 s  ClockTime = 664 s

Time = 45

velocityDampingConstraint velocityDamping damped 0 (0%) of cells, with max limit 300
[INFO] MatrixAssemblyU: 3327.488 [ms]
smoothSolver:  Solving for Ux, Initial residual = 0.01188452515378155, Final residual = 0.001047078250661171, No Iterations 13
smoothSolver:  Solving for Uy, Initial residual = 0.07238164554590247, Final residual = 0.007183200349081168, No Iterations 13
smoothSolver:  Solving for Uz, Initial residual = 0.06930465034025678, Final residual = 0.006263785003956213, No Iterations 13
[INFO] MomentumPredictor: 3264.416 [ms]
[INFO] MatrixAssemblyPI: 667.871 [ms]
[INFO] MatrixAssemblyPII: 314.539 [ms]
[OGL LOG][Proc: 0]: global_index_init: 0.037 [ms]
[OGL LOG][Proc: 0]p_local_coeffs: call_update: 0 [ms]
[OGL LOG][Proc: 0]p_non_local_coeffs: call_update: 0 [ms]
[OGL LOG][Proc: 0]p: update_local_matrix_data: 80.47800000000001 [ms]
[OGL LOG][Proc: 0]p: update_non_local_matrix_data: 0.211 [ms]
[OGL LOG][Proc: 0]p_matrix: call_update: 19.257 [ms]
[OGL LOG][Proc: 0]p_rhs: call_update: 13.898 [ms]
[OGL LOG][Preconditioner.H:121] Generate preconditioner BJ MaxBlockSize 1
[OGL LOG][Proc: 0]p: init_precond: 1.497 [ms]
[OGL LOG][StoppingCriterion.H:373] Creating stopping criterion with minIter 148 frequency 3
[OGL LOG][Proc: 0]p: generate_solver: 0.001 [ms]
[OGL LOG][Proc: 0]p: solve: 900.6 [ms]
[OGL LOG][Proc: 0]p: copy_x_back: 8.641 [ms]
[OGL LOG][lduLduBase.H:336] 
Statistics:
	Time per iteration: 3437 [mu s]
	Time per residual norm calculation: 374.000000 [mu s]
	Time per iteration and DOF: 0.068117 [ns]
	Retrieve results bandwidth 1.730000 [GByte/s]
[OGL LOG][Proc: 0]p: solve_multi_gpu: 945.1270000000001 [ms]
BJhipGKOCG:  Solving for p, Initial residual = 0.05512982345253958, Final residual = 0.0005493706622753008, No Iterations 262
[INFO] SolveP: 1043.417 [ms]
time step continuity errors : sum local = 0.005420478970823161, global = -0.0008466612393519915, cumulative = -0.001031308965999424
[INFO] postSolveP: 160.679 [ms]
smoothSolver:  Solving for nuTilda, Initial residual = 0.01179680601017584, Final residual = 0.001048713017068647, No Iterations 3
[INFO] TimeStep: 11019.449 [ms]
ExecutionTime = 682.71 s  ClockTime = 678 s

Time = 46

velocityDampingConstraint velocityDamping damped 0 (0%) of cells, with max limit 300
[INFO] MatrixAssemblyU: 3324.712 [ms]
smoothSolver:  Solving for Ux, Initial residual = 0.01175325039036934, Final residual = 0.001050824129633362, No Iterations 13
smoothSolver:  Solving for Uy, Initial residual = 0.07224724716998902, Final residual = 0.006181582238603997, No Iterations 14
smoothSolver:  Solving for Uz, Initial residual = 0.06806677191254711, Final residual = 0.006316536222829403, No Iterations 13
[INFO] MomentumPredictor: 3324.055 [ms]
[INFO] MatrixAssemblyPI: 666.325 [ms]
[INFO] MatrixAssemblyPII: 314.31 [ms]
[OGL LOG][Proc: 0]: global_index_init: 0.16 [ms]
[OGL LOG][Proc: 0]p_local_coeffs: call_update: 0 [ms]
[OGL LOG][Proc: 0]p_non_local_coeffs: call_update: 0 [ms]
[OGL LOG][Proc: 0]p: update_local_matrix_data: 81.64 [ms]
[OGL LOG][Proc: 0]p: update_non_local_matrix_data: 0.224 [ms]
[OGL LOG][Proc: 0]p_matrix: call_update: 21.839 [ms]
[OGL LOG][Proc: 0]p_rhs: call_update: 11.76 [ms]
[OGL LOG][Preconditioner.H:121] Generate preconditioner BJ MaxBlockSize 1
[OGL LOG][Proc: 0]p: init_precond: 1.466 [ms]
[OGL LOG][StoppingCriterion.H:373] Creating stopping criterion with minIter 157 frequency 3
[OGL LOG][Proc: 0]p: generate_solver: 0.001 [ms]
[OGL LOG][Proc: 0]p: solve: 1907.3 [ms]
[OGL LOG][Proc: 0]p: copy_x_back: 8.022 [ms]
[OGL LOG][lduLduBase.H:336] 
Statistics:
	Time per iteration: 3221 [mu s]
	Time per residual norm calculation: 371.000000 [mu s]
	Time per iteration and DOF: 0.063836 [ns]
	Retrieve results bandwidth 1.863000 [GByte/s]
[OGL LOG][Proc: 0]p: solve_multi_gpu: 1951.659 [ms]
BJhipGKOCG:  Solving for p, Initial residual = 0.05447896951710655, Final residual = 0.0005401810182705993, No Iterations 592
[INFO] SolveP: 2051.331 [ms]
time step continuity errors : sum local = 0.005280309404196396, global = -0.0001751315130233454, cumulative = -0.001206440479022769
[INFO] postSolveP: 159.873 [ms]
smoothSolver:  Solving for nuTilda, Initial residual = 0.01663493413831206, Final residual = 0.001011647828301763, No Iterations 3
[INFO] TimeStep: 12078.484 [ms]
ExecutionTime = 697.61 s  ClockTime = 692 s

Time = 47

velocityDampingConstraint velocityDamping damped 0 (0%) of cells, with max limit 300
[INFO] MatrixAssemblyU: 3326.659 [ms]
smoothSolver:  Solving for Ux, Initial residual = 0.01167547285483996, Final residual = 0.00105711288997887, No Iterations 13
smoothSolver:  Solving for Uy, Initial residual = 0.07214397454155969, Final residual = 0.006175419008932923, No Iterations 14
smoothSolver:  Solving for Uz, Initial residual = 0.06698570428426863, Final residual = 0.006357059900835034, No Iterations 13
[INFO] MomentumPredictor: 3334.147 [ms]
[INFO] MatrixAssemblyPI: 667.3049999999999 [ms]
[INFO] MatrixAssemblyPII: 309.09 [ms]
[OGL LOG][Proc: 0]: global_index_init: 0.038 [ms]
[OGL LOG][Proc: 0]p_local_coeffs: call_update: 0 [ms]
[OGL LOG][Proc: 0]p_non_local_coeffs: call_update: 0 [ms]
[OGL LOG][Proc: 0]p: update_local_matrix_data: 81.712 [ms]
[OGL LOG][Proc: 0]p: update_non_local_matrix_data: 0.245 [ms]
[OGL LOG][Proc: 0]p_matrix: call_update: 20.716 [ms]
[OGL LOG][Proc: 0]p_rhs: call_update: 6.984 [ms]
[OGL LOG][Preconditioner.H:121] Generate preconditioner BJ MaxBlockSize 1
[OGL LOG][Proc: 0]p: init_precond: 1.496 [ms]
[OGL LOG][StoppingCriterion.H:373] Creating stopping criterion with minIter 355 frequency 5
[OGL LOG][Proc: 0]p: generate_solver: 0.001 [ms]
[OGL LOG][Proc: 0]p: solve: 1163.578 [ms]
[OGL LOG][Proc: 0]p: copy_x_back: 8.684000000000001 [ms]
[OGL LOG][lduLduBase.H:336] 
Statistics:
	Time per iteration: 3268 [mu s]
	Time per residual norm calculation: 423.000000 [mu s]
	Time per iteration and DOF: 0.064768 [ns]
	Retrieve results bandwidth 1.721000 [GByte/s]
[OGL LOG][Proc: 0]p: solve_multi_gpu: 1202.689 [ms]
BJhipGKOCG:  Solving for p, Initial residual = 0.05511719451652473, Final residual = 0.0002568048702928976, No Iterations 356
[INFO] SolveP: 1302.345 [ms]
time step continuity errors : sum local = 0.002428026590092777, global = 0.0004230211661207522, cumulative = -0.0007834193129020172
[INFO] postSolveP: 160.124 [ms]
smoothSolver:  Solving for nuTilda, Initial residual = 0.01128332264668702, Final residual = 0.001001981015061305, No Iterations 3
[INFO] TimeStep: 11350.821 [ms]
ExecutionTime = 711.66 s  ClockTime = 706 s

Time = 48

velocityDampingConstraint velocityDamping damped 0 (0%) of cells, with max limit 300
[INFO] MatrixAssemblyU: 3324.665 [ms]
smoothSolver:  Solving for Ux, Initial residual = 0.01160052832648252, Final residual = 0.001063436833839902, No Iterations 13
smoothSolver:  Solving for Uy, Initial residual = 0.07140145682671882, Final residual = 0.006153099440779222, No Iterations 14
smoothSolver:  Solving for Uz, Initial residual = 0.0655681557805893, Final residual = 0.006341649729646218, No Iterations 13
[INFO] MomentumPredictor: 3340.157 [ms]
[INFO] MatrixAssemblyPI: 667.662 [ms]
[INFO] MatrixAssemblyPII: 311.016 [ms]
[OGL LOG][Proc: 0]: global_index_init: 0.03 [ms]
[OGL LOG][Proc: 0]p_local_coeffs: call_update: 0 [ms]
[OGL LOG][Proc: 0]p_non_local_coeffs: call_update: 0 [ms]
[OGL LOG][Proc: 0]p: update_local_matrix_data: 77.66500000000001 [ms]
[OGL LOG][Proc: 0]p: update_non_local_matrix_data: 0.241 [ms]
[OGL LOG][Proc: 0]p_matrix: call_update: 18.093 [ms]
[OGL LOG][Proc: 0]p_rhs: call_update: 13.51 [ms]
[OGL LOG][Preconditioner.H:121] Generate preconditioner BJ MaxBlockSize 1
[OGL LOG][Proc: 0]p: init_precond: 1.434 [ms]
[OGL LOG][StoppingCriterion.H:373] Creating stopping criterion with minIter 213 frequency 4
[OGL LOG][Proc: 0]p: generate_solver: 0.001 [ms]
[OGL LOG][Proc: 0]p: solve: 889.998 [ms]
[OGL LOG][Proc: 0]p: copy_x_back: 8.523 [ms]
[OGL LOG][lduLduBase.H:336] 
Statistics:
	Time per iteration: 3409 [mu s]
	Time per residual norm calculation: 370.000000 [mu s]
	Time per iteration and DOF: 0.067562 [ns]
	Retrieve results bandwidth 1.754000 [GByte/s]
[OGL LOG][Proc: 0]p: solve_multi_gpu: 932.751 [ms]
BJhipGKOCG:  Solving for p, Initial residual = 0.05417159187026337, Final residual = 0.0005330597596035024, No Iterations 261
[INFO] SolveP: 1028.141 [ms]
time step continuity errors : sum local = 0.00501215209780531, global = 0.0008065991938822707, cumulative = 2.31798809802535e-05
[INFO] postSolveP: 162.574 [ms]
smoothSolver:  Solving for nuTilda, Initial residual = 0.01585492009528553, Final residual = 0.0009708451002176504, No Iterations 3
[INFO] TimeStep: 11074.358 [ms]
ExecutionTime = 725.38 s  ClockTime = 720 s

Time = 49

velocityDampingConstraint velocityDamping damped 0 (0%) of cells, with max limit 300
[INFO] MatrixAssemblyU: 3320.032 [ms]
smoothSolver:  Solving for Ux, Initial residual = 0.01147803708825017, Final residual = 0.001067234307033636, No Iterations 13
smoothSolver:  Solving for Uy, Initial residual = 0.07060728070413473, Final residual = 0.006123068777175212, No Iterations 14
smoothSolver:  Solving for Uz, Initial residual = 0.06456938764889059, Final residual = 0.006318038930381498, No Iterations 13
[INFO] MomentumPredictor: 3330.512 [ms]
[INFO] MatrixAssemblyPI: 665.804 [ms]
[INFO] MatrixAssemblyPII: 310.699 [ms]
[OGL LOG][Proc: 0]: global_index_init: 0.033 [ms]
[OGL LOG][Proc: 0]p_local_coeffs: call_update: 0 [ms]
[OGL LOG][Proc: 0]p_non_local_coeffs: call_update: 0 [ms]
[OGL LOG][Proc: 0]p: update_local_matrix_data: 82.828 [ms]
[OGL LOG][Proc: 0]p: update_non_local_matrix_data: 0.225 [ms]
[OGL LOG][Proc: 0]p_matrix: call_update: 19.749 [ms]
[OGL LOG][Proc: 0]p_rhs: call_update: 12.328 [ms]
[OGL LOG][Preconditioner.H:121] Generate preconditioner BJ MaxBlockSize 1
[OGL LOG][Proc: 0]p: init_precond: 1.459 [ms]
[OGL LOG][StoppingCriterion.H:373] Creating stopping criterion with minIter 156 frequency 3
[OGL LOG][Proc: 0]p: generate_solver: 0.001 [ms]
[OGL LOG][Proc: 0]p: solve: 1118.504 [ms]
[OGL LOG][Proc: 0]p: copy_x_back: 8.837 [ms]
[OGL LOG][lduLduBase.H:336] 
Statistics:
	Time per iteration: 3289 [mu s]
	Time per residual norm calculation: 369.000000 [mu s]
	Time per iteration and DOF: 0.065184 [ns]
	Retrieve results bandwidth 1.691000 [GByte/s]
[OGL LOG][Proc: 0]p: solve_multi_gpu: 1162.02 [ms]
BJhipGKOCG:  Solving for p, Initial residual = 0.05360093304104212, Final residual = 0.0005330627832240208, No Iterations 340
[INFO] SolveP: 1262.544 [ms]
time step continuity errors : sum local = 0.004994930515174367, global = 0.0008275125714885957, cumulative = 0.0008506924524688492
[INFO] postSolveP: 160.272 [ms]
smoothSolver:  Solving for nuTilda, Initial residual = 0.01085078746083499, Final residual = 0.0009646782332094105, No Iterations 3
[INFO] TimeStep: 11291.397 [ms]
ExecutionTime = 739.34 s  ClockTime = 734 s

Time = 50

velocityDampingConstraint velocityDamping damped 0 (0%) of cells, with max limit 300
[INFO] MatrixAssemblyU: 3323.047 [ms]
smoothSolver:  Solving for Ux, Initial residual = 0.01146202143226552, Final residual = 0.001068623284597421, No Iterations 13
smoothSolver:  Solving for Uy, Initial residual = 0.06968797838243822, Final residual = 0.006059887928717977, No Iterations 14
smoothSolver:  Solving for Uz, Initial residual = 0.0638450763376243, Final residual = 0.006306214038491078, No Iterations 13
[INFO] MomentumPredictor: 3326.825 [ms]
[INFO] MatrixAssemblyPI: 670.2910000000001 [ms]
[INFO] MatrixAssemblyPII: 307.536 [ms]
[OGL LOG][Proc: 0]: global_index_init: 0.043 [ms]
[OGL LOG][Proc: 0]p_local_coeffs: call_update: 0 [ms]
[OGL LOG][Proc: 0]p_non_local_coeffs: call_update: 0 [ms]
[OGL LOG][Proc: 0]p: update_local_matrix_data: 81.514 [ms]
[OGL LOG][Proc: 0]p: update_non_local_matrix_data: 0.248 [ms]
[OGL LOG][Proc: 0]p_matrix: call_update: 17.07 [ms]
[OGL LOG][Proc: 0]p_rhs: call_update: 17.101 [ms]
[OGL LOG][Preconditioner.H:121] Generate preconditioner BJ MaxBlockSize 1
[OGL LOG][Proc: 0]p: init_precond: 1.447 [ms]
[OGL LOG][StoppingCriterion.H:373] Creating stopping criterion with minIter 204 frequency 4
[OGL LOG][Proc: 0]p: generate_solver: 0.001 [ms]
[OGL LOG][Proc: 0]p: solve: 877.508 [ms]
[OGL LOG][Proc: 0]p: copy_x_back: 8.378 [ms]
[OGL LOG][lduLduBase.H:336] 
Statistics:
	Time per iteration: 3414 [mu s]
	Time per residual norm calculation: 379.000000 [mu s]
	Time per iteration and DOF: 0.067661 [ns]
	Retrieve results bandwidth 1.784000 [GByte/s]
[OGL LOG][Proc: 0]p: solve_multi_gpu: 922.768 [ms]
BJhipGKOCG:  Solving for p, Initial residual = 0.05304069655579938, Final residual = 0.0005254934021079783, No Iterations 257
[INFO] SolveP: 1021.354 [ms]
time step continuity errors : sum local = 0.004923381793923706, global = 0.0008122405528833115, cumulative = 0.001662933005352161
[INFO] postSolveP: 162.974 [ms]
smoothSolver:  Solving for nuTilda, Initial residual = 0.01517354664804957, Final residual = 0.0009391149399358293, No Iterations 3
[INFO] TimeStep: 11069.02 [ms]
ExecutionTime = 753.05 s  ClockTime = 747 s

End

Finalising parallel run
