/*---------------------------------------------------------------------------*\
| =========                 |                                                 |
| \\      /  F ield         | OpenFOAM: The Open Source CFD Toolbox           |
|  \\    /   O peration     | Version:  2312                                  |
|   \\  /    A nd           | Website:  www.openfoam.com                      |
|    \\/     M anipulation  |                                                 |
\*---------------------------------------------------------------------------*/
Build  : a46b310f-20240104 OPENFOAM=2312 version=v2312
Arch   : "LSB;label=32;scalar=64"
Exec   : decomposePar -force
Date   : Feb 16 2024
Time   : 21:47:04
Host   : i20r02c03s06
PID    : 21481
--> FOAM Warning : 
    From Foam::fileName Foam::cwd_L()
    in file POSIX.C at line 552
    PWD is not the cwd() - reverting to physical description
I/O    : uncollated
--> FOAM Warning : 
    From Foam::fileName Foam::cwd_L()
    in file POSIX.C at line 552
    PWD is not the cwd() - reverting to physical description
Case   : /hppfs/scratch/0B/di35yan/lidDriven3D/workspace/13ba17fef6b331714ce694245f13c258/case
nProcs : 1
trapFpe: Floating point exception trapping enabled (FOAM_SIGFPE).
fileModificationChecking : Monitoring run-time modified files using timeStampMaster (fileModificationSkew 5, maxFileModificationPolls 20)
allowSystemOperations : Allowing user-supplied system call operations

// * * * * * * * * * * * * * * * * * * * * * * * * * * * * * * * * * * * * * //
Create time

--> FOAM Warning : 
    From void* Foam::dlLibraryTable::openLibrary(const Foam::fileName&, bool)
    in file db/dynamicLibrary/dlLibraryTable/dlLibraryTable.C at line 188
    Could not load "libpetscFoam.so"
libpetscFoam.so: cannot open shared object file: No such file or directory


Decomposing mesh

Create mesh

Calculating distribution of cells
Decomposition method simple [80] (region region0)

Finished decomposition in 44.62 s

Calculating original mesh data

Distributing cells to processors

Distributing faces to processors

Distributing points to processors

Constructing processor meshes

Processor 0
    Number of cells = 800000
    Number of points = 832341
    Number of faces shared with processor 1 = 8000
    Number of faces shared with processor 4 = 20000
    Number of faces shared with processor 40 = 4000
    Number of processor patches = 3
    Number of processor faces = 32000
    Number of boundary faces = 32000

Processor 1
    Number of cells = 800000
    Number of points = 832341
    Number of faces shared with processor 0 = 8000
    Number of faces shared with processor 2 = 8000
    Number of faces shared with processor 5 = 20000
    Number of faces shared with processor 41 = 4000
    Number of processor patches = 4
    Number of processor faces = 40000
    Number of boundary faces = 24000

Processor 2
    Number of cells = 800000
    Number of points = 832341
    Number of faces shared with processor 1 = 8000
    Number of faces shared with processor 3 = 8000
    Number of faces shared with processor 6 = 20000
    Number of faces shared with processor 42 = 4000
    Number of processor patches = 4
    Number of processor faces = 40000
    Number of boundary faces = 24000

Processor 3
    Number of cells = 797600
    Number of points = 829920
    Number of faces shared with processor 2 = 8000
    Number of faces shared with processor 7 = 19979
    Number of faces shared with processor 43 = 4118
    Number of processor patches = 3
    Number of processor faces = 32097
    Number of boundary faces = 31861

Processor 4
    Number of cells = 800000
    Number of points = 832341
    Number of faces shared with processor 0 = 20000
    Number of faces shared with processor 5 = 8000
    Number of faces shared with processor 8 = 20000
    Number of faces shared with processor 44 = 4000
    Number of processor patches = 4
    Number of processor faces = 52000
    Number of boundary faces = 12000

Processor 5
    Number of cells = 800000
    Number of points = 832341
    Number of faces shared with processor 1 = 20000
    Number of faces shared with processor 4 = 8000
    Number of faces shared with processor 6 = 8000
    Number of faces shared with processor 9 = 20000
    Number of faces shared with processor 45 = 4000
    Number of processor patches = 5
    Number of processor faces = 60000
    Number of boundary faces = 4000

Processor 6
    Number of cells = 800000
    Number of points = 832341
    Number of faces shared with processor 2 = 20000
    Number of faces shared with processor 5 = 8000
    Number of faces shared with processor 7 = 8000
    Number of faces shared with processor 10 = 20000
    Number of faces shared with processor 46 = 4000
    Number of processor patches = 5
    Number of processor faces = 60000
    Number of boundary faces = 4000

Processor 7
    Number of cells = 799900
    Number of points = 832241
    Number of faces shared with processor 3 = 19979
    Number of faces shared with processor 6 = 8000
    Number of faces shared with processor 11 = 20000
    Number of faces shared with processor 43 = 2
    Number of faces shared with processor 47 = 4029
    Number of processor patches = 5
    Number of processor faces = 52010
    Number of boundary faces = 11990

Processor 8
    Number of cells = 800000
    Number of points = 832341
    Number of faces shared with processor 4 = 20000
    Number of faces shared with processor 9 = 8000
    Number of faces shared with processor 12 = 20000
    Number of faces shared with processor 48 = 4000
    Number of processor patches = 4
    Number of processor faces = 52000
    Number of boundary faces = 12000

Processor 9
    Number of cells = 800000
    Number of points = 832341
    Number of faces shared with processor 5 = 20000
    Number of faces shared with processor 8 = 8000
    Number of faces shared with processor 10 = 8000
    Number of faces shared with processor 13 = 20000
    Number of faces shared with processor 49 = 4000
    Number of processor patches = 5
    Number of processor faces = 60000
    Number of boundary faces = 4000

Processor 10
    Number of cells = 800000
    Number of points = 832341
    Number of faces shared with processor 6 = 20000
    Number of faces shared with processor 9 = 8000
    Number of faces shared with processor 11 = 8000
    Number of faces shared with processor 14 = 20000
    Number of faces shared with processor 50 = 4000
    Number of processor patches = 5
    Number of processor faces = 60000
    Number of boundary faces = 4000

Processor 11
    Number of cells = 800000
    Number of points = 832341
    Number of faces shared with processor 7 = 20000
    Number of faces shared with processor 10 = 8000
    Number of faces shared with processor 15 = 20000
    Number of faces shared with processor 51 = 4000
    Number of processor patches = 4
    Number of processor faces = 52000
    Number of boundary faces = 12000

Processor 12
    Number of cells = 800000
    Number of points = 832341
    Number of faces shared with processor 8 = 20000
    Number of faces shared with processor 13 = 8000
    Number of faces shared with processor 16 = 20000
    Number of faces shared with processor 52 = 4000
    Number of processor patches = 4
    Number of processor faces = 52000
    Number of boundary faces = 12000

Processor 13
    Number of cells = 800000
    Number of points = 832341
    Number of faces shared with processor 9 = 20000
    Number of faces shared with processor 12 = 8000
    Number of faces shared with processor 14 = 8000
    Number of faces shared with processor 17 = 20000
    Number of faces shared with processor 53 = 4000
    Number of processor patches = 5
    Number of processor faces = 60000
    Number of boundary faces = 4000

Processor 14
    Number of cells = 800000
    Number of points = 832341
    Number of faces shared with processor 10 = 20000
    Number of faces shared with processor 13 = 8000
    Number of faces shared with processor 15 = 8000
    Number of faces shared with processor 18 = 20000
    Number of faces shared with processor 54 = 4000
    Number of processor patches = 5
    Number of processor faces = 60000
    Number of boundary faces = 4000

Processor 15
    Number of cells = 800000
    Number of points = 832341
    Number of faces shared with processor 11 = 20000
    Number of faces shared with processor 14 = 8000
    Number of faces shared with processor 19 = 20000
    Number of faces shared with processor 55 = 4000
    Number of processor patches = 4
    Number of processor faces = 52000
    Number of boundary faces = 12000

Processor 16
    Number of cells = 800000
    Number of points = 832341
    Number of faces shared with processor 12 = 20000
    Number of faces shared with processor 17 = 8000
    Number of faces shared with processor 20 = 20000
    Number of faces shared with processor 56 = 4000
    Number of processor patches = 4
    Number of processor faces = 52000
    Number of boundary faces = 12000

Processor 17
    Number of cells = 800000
    Number of points = 832341
    Number of faces shared with processor 13 = 20000
    Number of faces shared with processor 16 = 8000
    Number of faces shared with processor 18 = 8000
    Number of faces shared with processor 21 = 20000
    Number of faces shared with processor 57 = 4000
    Number of processor patches = 5
    Number of processor faces = 60000
    Number of boundary faces = 4000

Processor 18
    Number of cells = 800000
    Number of points = 832341
    Number of faces shared with processor 14 = 20000
    Number of faces shared with processor 17 = 8000
    Number of faces shared with processor 19 = 8000
    Number of faces shared with processor 22 = 20000
    Number of faces shared with processor 58 = 4000
    Number of processor patches = 5
    Number of processor faces = 60000
    Number of boundary faces = 4000

Processor 19
    Number of cells = 800000
    Number of points = 832341
    Number of faces shared with processor 15 = 20000
    Number of faces shared with processor 18 = 8000
    Number of faces shared with processor 23 = 20000
    Number of faces shared with processor 59 = 4000
    Number of processor patches = 4
    Number of processor faces = 52000
    Number of boundary faces = 12000

Processor 20
    Number of cells = 800000
    Number of points = 832341
    Number of faces shared with processor 16 = 20000
    Number of faces shared with processor 21 = 8000
    Number of faces shared with processor 24 = 20000
    Number of faces shared with processor 60 = 4000
    Number of processor patches = 4
    Number of processor faces = 52000
    Number of boundary faces = 12000

Processor 21
    Number of cells = 800000
    Number of points = 832341
    Number of faces shared with processor 17 = 20000
    Number of faces shared with processor 20 = 8000
    Number of faces shared with processor 22 = 8000
    Number of faces shared with processor 25 = 20000
    Number of faces shared with processor 61 = 4000
    Number of processor patches = 5
    Number of processor faces = 60000
    Number of boundary faces = 4000

Processor 22
    Number of cells = 800000
    Number of points = 832341
    Number of faces shared with processor 18 = 20000
    Number of faces shared with processor 21 = 8000
    Number of faces shared with processor 23 = 8000
    Number of faces shared with processor 26 = 20000
    Number of faces shared with processor 62 = 4000
    Number of processor patches = 5
    Number of processor faces = 60000
    Number of boundary faces = 4000

Processor 23
    Number of cells = 800000
    Number of points = 832341
    Number of faces shared with processor 19 = 20000
    Number of faces shared with processor 22 = 8000
    Number of faces shared with processor 27 = 20000
    Number of faces shared with processor 63 = 4000
    Number of processor patches = 4
    Number of processor faces = 52000
    Number of boundary faces = 12000

Processor 24
    Number of cells = 800000
    Number of points = 832341
    Number of faces shared with processor 20 = 20000
    Number of faces shared with processor 25 = 8000
    Number of faces shared with processor 28 = 20000
    Number of faces shared with processor 64 = 4000
    Number of processor patches = 4
    Number of processor faces = 52000
    Number of boundary faces = 12000

Processor 25
    Number of cells = 800000
    Number of points = 832341
    Number of faces shared with processor 21 = 20000
    Number of faces shared with processor 24 = 8000
    Number of faces shared with processor 26 = 8000
    Number of faces shared with processor 29 = 20000
    Number of faces shared with processor 65 = 4000
    Number of processor patches = 5
    Number of processor faces = 60000
    Number of boundary faces = 4000

Processor 26
    Number of cells = 800000
    Number of points = 832341
    Number of faces shared with processor 22 = 20000
    Number of faces shared with processor 25 = 8000
    Number of faces shared with processor 27 = 8000
    Number of faces shared with processor 30 = 20000
    Number of faces shared with processor 66 = 4000
    Number of processor patches = 5
    Number of processor faces = 60000
    Number of boundary faces = 4000

Processor 27
    Number of cells = 800000
    Number of points = 832341
    Number of faces shared with processor 23 = 20000
    Number of faces shared with processor 26 = 8000
    Number of faces shared with processor 31 = 20000
    Number of faces shared with processor 67 = 4000
    Number of processor patches = 4
    Number of processor faces = 52000
    Number of boundary faces = 12000

Processor 28
    Number of cells = 800000
    Number of points = 832341
    Number of faces shared with processor 24 = 20000
    Number of faces shared with processor 29 = 8000
    Number of faces shared with processor 32 = 20000
    Number of faces shared with processor 68 = 4000
    Number of processor patches = 4
    Number of processor faces = 52000
    Number of boundary faces = 12000

Processor 29
    Number of cells = 800000
    Number of points = 832341
    Number of faces shared with processor 25 = 20000
    Number of faces shared with processor 28 = 8000
    Number of faces shared with processor 30 = 8000
    Number of faces shared with processor 33 = 20000
    Number of faces shared with processor 69 = 4000
    Number of processor patches = 5
    Number of processor faces = 60000
    Number of boundary faces = 4000

Processor 30
    Number of cells = 800000
    Number of points = 832341
    Number of faces shared with processor 26 = 20000
    Number of faces shared with processor 29 = 8000
    Number of faces shared with processor 31 = 8000
    Number of faces shared with processor 34 = 20000
    Number of faces shared with processor 70 = 4000
    Number of processor patches = 5
    Number of processor faces = 60000
    Number of boundary faces = 4000

Processor 31
    Number of cells = 800000
    Number of points = 832341
    Number of faces shared with processor 27 = 20000
    Number of faces shared with processor 30 = 8000
    Number of faces shared with processor 35 = 20000
    Number of faces shared with processor 71 = 4000
    Number of processor patches = 4
    Number of processor faces = 52000
    Number of boundary faces = 12000

Processor 32
    Number of cells = 800100
    Number of points = 832471
    Number of faces shared with processor 28 = 20000
    Number of faces shared with processor 33 = 8000
    Number of faces shared with processor 36 = 20019
    Number of faces shared with processor 72 = 4029
    Number of processor patches = 4
    Number of processor faces = 52048
    Number of boundary faces = 12010

Processor 33
    Number of cells = 800000
    Number of points = 832341
    Number of faces shared with processor 29 = 20000
    Number of faces shared with processor 32 = 8000
    Number of faces shared with processor 34 = 8000
    Number of faces shared with processor 37 = 20000
    Number of faces shared with processor 73 = 4000
    Number of processor patches = 5
    Number of processor faces = 60000
    Number of boundary faces = 4000

Processor 34
    Number of cells = 800000
    Number of points = 832341
    Number of faces shared with processor 30 = 20000
    Number of faces shared with processor 33 = 8000
    Number of faces shared with processor 35 = 8000
    Number of faces shared with processor 38 = 20000
    Number of faces shared with processor 74 = 4000
    Number of processor patches = 5
    Number of processor faces = 60000
    Number of boundary faces = 4000

Processor 35
    Number of cells = 800000
    Number of points = 832341
    Number of faces shared with processor 31 = 20000
    Number of faces shared with processor 34 = 8000
    Number of faces shared with processor 39 = 20000
    Number of faces shared with processor 75 = 4000
    Number of processor patches = 4
    Number of processor faces = 52000
    Number of boundary faces = 12000

Processor 36
    Number of cells = 802400
    Number of points = 834881
    Number of faces shared with processor 32 = 20019
    Number of faces shared with processor 37 = 8000
    Number of faces shared with processor 72 = 2
    Number of faces shared with processor 76 = 4118
    Number of processor patches = 4
    Number of processor faces = 32139
    Number of boundary faces = 32139

Processor 37
    Number of cells = 800000
    Number of points = 832341
    Number of faces shared with processor 33 = 20000
    Number of faces shared with processor 36 = 8000
    Number of faces shared with processor 38 = 8000
    Number of faces shared with processor 77 = 4000
    Number of processor patches = 4
    Number of processor faces = 40000
    Number of boundary faces = 24000

Processor 38
    Number of cells = 800000
    Number of points = 832341
    Number of faces shared with processor 34 = 20000
    Number of faces shared with processor 37 = 8000
    Number of faces shared with processor 39 = 8000
    Number of faces shared with processor 78 = 4000
    Number of processor patches = 4
    Number of processor faces = 40000
    Number of boundary faces = 24000

Processor 39
    Number of cells = 800000
    Number of points = 832341
    Number of faces shared with processor 35 = 20000
    Number of faces shared with processor 38 = 8000
    Number of faces shared with processor 79 = 4000
    Number of processor patches = 3
    Number of processor faces = 32000
    Number of boundary faces = 32000

Processor 40
    Number of cells = 800000
    Number of points = 832341
    Number of faces shared with processor 0 = 4000
    Number of faces shared with processor 41 = 8000
    Number of faces shared with processor 44 = 20000
    Number of processor patches = 3
    Number of processor faces = 32000
    Number of boundary faces = 32000

Processor 41
    Number of cells = 800000
    Number of points = 832341
    Number of faces shared with processor 1 = 4000
    Number of faces shared with processor 40 = 8000
    Number of faces shared with processor 42 = 8000
    Number of faces shared with processor 45 = 20000
    Number of processor patches = 4
    Number of processor faces = 40000
    Number of boundary faces = 24000

Processor 42
    Number of cells = 800000
    Number of points = 832341
    Number of faces shared with processor 2 = 4000
    Number of faces shared with processor 41 = 8000
    Number of faces shared with processor 43 = 8000
    Number of faces shared with processor 46 = 20000
    Number of processor patches = 4
    Number of processor faces = 40000
    Number of boundary faces = 24000

Processor 43
    Number of cells = 802400
    Number of points = 834881
    Number of faces shared with processor 3 = 4118
    Number of faces shared with processor 7 = 2
    Number of faces shared with processor 42 = 8000
    Number of faces shared with processor 47 = 20019
    Number of processor patches = 4
    Number of processor faces = 32139
    Number of boundary faces = 32139

Processor 44
    Number of cells = 800000
    Number of points = 832341
    Number of faces shared with processor 4 = 4000
    Number of faces shared with processor 40 = 20000
    Number of faces shared with processor 45 = 8000
    Number of faces shared with processor 48 = 20000
    Number of processor patches = 4
    Number of processor faces = 52000
    Number of boundary faces = 12000

Processor 45
    Number of cells = 800000
    Number of points = 832341
    Number of faces shared with processor 5 = 4000
    Number of faces shared with processor 41 = 20000
    Number of faces shared with processor 44 = 8000
    Number of faces shared with processor 46 = 8000
    Number of faces shared with processor 49 = 20000
    Number of processor patches = 5
    Number of processor faces = 60000
    Number of boundary faces = 4000

Processor 46
    Number of cells = 800000
    Number of points = 832341
    Number of faces shared with processor 6 = 4000
    Number of faces shared with processor 42 = 20000
    Number of faces shared with processor 45 = 8000
    Number of faces shared with processor 47 = 8000
    Number of faces shared with processor 50 = 20000
    Number of processor patches = 5
    Number of processor faces = 60000
    Number of boundary faces = 4000

Processor 47
    Number of cells = 800100
    Number of points = 832471
    Number of faces shared with processor 7 = 4029
    Number of faces shared with processor 43 = 20019
    Number of faces shared with processor 46 = 8000
    Number of faces shared with processor 51 = 20000
    Number of processor patches = 4
    Number of processor faces = 52048
    Number of boundary faces = 12010

Processor 48
    Number of cells = 800000
    Number of points = 832341
    Number of faces shared with processor 8 = 4000
    Number of faces shared with processor 44 = 20000
    Number of faces shared with processor 49 = 8000
    Number of faces shared with processor 52 = 20000
    Number of processor patches = 4
    Number of processor faces = 52000
    Number of boundary faces = 12000

Processor 49
    Number of cells = 800000
    Number of points = 832341
    Number of faces shared with processor 9 = 4000
    Number of faces shared with processor 45 = 20000
    Number of faces shared with processor 48 = 8000
    Number of faces shared with processor 50 = 8000
    Number of faces shared with processor 53 = 20000
    Number of processor patches = 5
    Number of processor faces = 60000
    Number of boundary faces = 4000

Processor 50
    Number of cells = 800000
    Number of points = 832341
    Number of faces shared with processor 10 = 4000
    Number of faces shared with processor 46 = 20000
    Number of faces shared with processor 49 = 8000
    Number of faces shared with processor 51 = 8000
    Number of faces shared with processor 54 = 20000
    Number of processor patches = 5
    Number of processor faces = 60000
    Number of boundary faces = 4000

Processor 51
    Number of cells = 800000
    Number of points = 832341
    Number of faces shared with processor 11 = 4000
    Number of faces shared with processor 47 = 20000
    Number of faces shared with processor 50 = 8000
    Number of faces shared with processor 55 = 20000
    Number of processor patches = 4
    Number of processor faces = 52000
    Number of boundary faces = 12000

Processor 52
    Number of cells = 800000
    Number of points = 832341
    Number of faces shared with processor 12 = 4000
    Number of faces shared with processor 48 = 20000
    Number of faces shared with processor 53 = 8000
    Number of faces shared with processor 56 = 20000
    Number of processor patches = 4
    Number of processor faces = 52000
    Number of boundary faces = 12000

Processor 53
    Number of cells = 800000
    Number of points = 832341
    Number of faces shared with processor 13 = 4000
    Number of faces shared with processor 49 = 20000
    Number of faces shared with processor 52 = 8000
    Number of faces shared with processor 54 = 8000
    Number of faces shared with processor 57 = 20000
    Number of processor patches = 5
    Number of processor faces = 60000
    Number of boundary faces = 4000

Processor 54
    Number of cells = 800000
    Number of points = 832341
    Number of faces shared with processor 14 = 4000
    Number of faces shared with processor 50 = 20000
    Number of faces shared with processor 53 = 8000
    Number of faces shared with processor 55 = 8000
    Number of faces shared with processor 58 = 20000
    Number of processor patches = 5
    Number of processor faces = 60000
    Number of boundary faces = 4000

Processor 55
    Number of cells = 800000
    Number of points = 832341
    Number of faces shared with processor 15 = 4000
    Number of faces shared with processor 51 = 20000
    Number of faces shared with processor 54 = 8000
    Number of faces shared with processor 59 = 20000
    Number of processor patches = 4
    Number of processor faces = 52000
    Number of boundary faces = 12000

Processor 56
    Number of cells = 800000
    Number of points = 832341
    Number of faces shared with processor 16 = 4000
    Number of faces shared with processor 52 = 20000
    Number of faces shared with processor 57 = 8000
    Number of faces shared with processor 60 = 20000
    Number of processor patches = 4
    Number of processor faces = 52000
    Number of boundary faces = 12000

Processor 57
    Number of cells = 800000
    Number of points = 832341
    Number of faces shared with processor 17 = 4000
    Number of faces shared with processor 53 = 20000
    Number of faces shared with processor 56 = 8000
    Number of faces shared with processor 58 = 8000
    Number of faces shared with processor 61 = 20000
    Number of processor patches = 5
    Number of processor faces = 60000
    Number of boundary faces = 4000

Processor 58
    Number of cells = 800000
    Number of points = 832341
    Number of faces shared with processor 18 = 4000
    Number of faces shared with processor 54 = 20000
    Number of faces shared with processor 57 = 8000
    Number of faces shared with processor 59 = 8000
    Number of faces shared with processor 62 = 20000
    Number of processor patches = 5
    Number of processor faces = 60000
    Number of boundary faces = 4000

Processor 59
    Number of cells = 800000
    Number of points = 832341
    Number of faces shared with processor 19 = 4000
    Number of faces shared with processor 55 = 20000
    Number of faces shared with processor 58 = 8000
    Number of faces shared with processor 63 = 20000
    Number of processor patches = 4
    Number of processor faces = 52000
    Number of boundary faces = 12000

Processor 60
    Number of cells = 800000
    Number of points = 832341
    Number of faces shared with processor 20 = 4000
    Number of faces shared with processor 56 = 20000
    Number of faces shared with processor 61 = 8000
    Number of faces shared with processor 64 = 20000
    Number of processor patches = 4
    Number of processor faces = 52000
    Number of boundary faces = 12000

Processor 61
    Number of cells = 800000
    Number of points = 832341
    Number of faces shared with processor 21 = 4000
    Number of faces shared with processor 57 = 20000
    Number of faces shared with processor 60 = 8000
    Number of faces shared with processor 62 = 8000
    Number of faces shared with processor 65 = 20000
    Number of processor patches = 5
    Number of processor faces = 60000
    Number of boundary faces = 4000

Processor 62
    Number of cells = 800000
    Number of points = 832341
    Number of faces shared with processor 22 = 4000
    Number of faces shared with processor 58 = 20000
    Number of faces shared with processor 61 = 8000
    Number of faces shared with processor 63 = 8000
    Number of faces shared with processor 66 = 20000
    Number of processor patches = 5
    Number of processor faces = 60000
    Number of boundary faces = 4000

Processor 63
    Number of cells = 800000
    Number of points = 832341
    Number of faces shared with processor 23 = 4000
    Number of faces shared with processor 59 = 20000
    Number of faces shared with processor 62 = 8000
    Number of faces shared with processor 67 = 20000
    Number of processor patches = 4
    Number of processor faces = 52000
    Number of boundary faces = 12000

Processor 64
    Number of cells = 800000
    Number of points = 832341
    Number of faces shared with processor 24 = 4000
    Number of faces shared with processor 60 = 20000
    Number of faces shared with processor 65 = 8000
    Number of faces shared with processor 68 = 20000
    Number of processor patches = 4
    Number of processor faces = 52000
    Number of boundary faces = 12000

Processor 65
    Number of cells = 800000
    Number of points = 832341
    Number of faces shared with processor 25 = 4000
    Number of faces shared with processor 61 = 20000
    Number of faces shared with processor 64 = 8000
    Number of faces shared with processor 66 = 8000
    Number of faces shared with processor 69 = 20000
    Number of processor patches = 5
    Number of processor faces = 60000
    Number of boundary faces = 4000

Processor 66
    Number of cells = 800000
    Number of points = 832341
    Number of faces shared with processor 26 = 4000
    Number of faces shared with processor 62 = 20000
    Number of faces shared with processor 65 = 8000
    Number of faces shared with processor 67 = 8000
    Number of faces shared with processor 70 = 20000
    Number of processor patches = 5
    Number of processor faces = 60000
    Number of boundary faces = 4000

Processor 67
    Number of cells = 800000
    Number of points = 832341
    Number of faces shared with processor 27 = 4000
    Number of faces shared with processor 63 = 20000
    Number of faces shared with processor 66 = 8000
    Number of faces shared with processor 71 = 20000
    Number of processor patches = 4
    Number of processor faces = 52000
    Number of boundary faces = 12000

Processor 68
    Number of cells = 800000
    Number of points = 832341
    Number of faces shared with processor 28 = 4000
    Number of faces shared with processor 64 = 20000
    Number of faces shared with processor 69 = 8000
    Number of faces shared with processor 72 = 20000
    Number of processor patches = 4
    Number of processor faces = 52000
    Number of boundary faces = 12000

Processor 69
    Number of cells = 800000
    Number of points = 832341
    Number of faces shared with processor 29 = 4000
    Number of faces shared with processor 65 = 20000
    Number of faces shared with processor 68 = 8000
    Number of faces shared with processor 70 = 8000
    Number of faces shared with processor 73 = 20000
    Number of processor patches = 5
    Number of processor faces = 60000
    Number of boundary faces = 4000

Processor 70
    Number of cells = 800000
    Number of points = 832341
    Number of faces shared with processor 30 = 4000
    Number of faces shared with processor 66 = 20000
    Number of faces shared with processor 69 = 8000
    Number of faces shared with processor 71 = 8000
    Number of faces shared with processor 74 = 20000
    Number of processor patches = 5
    Number of processor faces = 60000
    Number of boundary faces = 4000

Processor 71
    Number of cells = 800000
    Number of points = 832341
    Number of faces shared with processor 31 = 4000
    Number of faces shared with processor 67 = 20000
    Number of faces shared with processor 70 = 8000
    Number of faces shared with processor 75 = 20000
    Number of processor patches = 4
    Number of processor faces = 52000
    Number of boundary faces = 12000

Processor 72
    Number of cells = 799900
    Number of points = 832241
    Number of faces shared with processor 32 = 4029
    Number of faces shared with processor 36 = 2
    Number of faces shared with processor 68 = 20000
    Number of faces shared with processor 73 = 8000
    Number of faces shared with processor 76 = 19979
    Number of processor patches = 5
    Number of processor faces = 52010
    Number of boundary faces = 11990

Processor 73
    Number of cells = 800000
    Number of points = 832341
    Number of faces shared with processor 33 = 4000
    Number of faces shared with processor 69 = 20000
    Number of faces shared with processor 72 = 8000
    Number of faces shared with processor 74 = 8000
    Number of faces shared with processor 77 = 20000
    Number of processor patches = 5
    Number of processor faces = 60000
    Number of boundary faces = 4000

Processor 74
    Number of cells = 800000
    Number of points = 832341
    Number of faces shared with processor 34 = 4000
    Number of faces shared with processor 70 = 20000
    Number of faces shared with processor 73 = 8000
    Number of faces shared with processor 75 = 8000
    Number of faces shared with processor 78 = 20000
    Number of processor patches = 5
    Number of processor faces = 60000
    Number of boundary faces = 4000

Processor 75
    Number of cells = 800000
    Number of points = 832341
    Number of faces shared with processor 35 = 4000
    Number of faces shared with processor 71 = 20000
    Number of faces shared with processor 74 = 8000
    Number of faces shared with processor 79 = 20000
    Number of processor patches = 4
    Number of processor faces = 52000
    Number of boundary faces = 12000

Processor 76
    Number of cells = 797600
    Number of points = 829920
    Number of faces shared with processor 36 = 4118
    Number of faces shared with processor 72 = 19979
    Number of faces shared with processor 77 = 8000
    Number of processor patches = 3
    Number of processor faces = 32097
    Number of boundary faces = 31861

Processor 77
    Number of cells = 800000
    Number of points = 832341
    Number of faces shared with processor 37 = 4000
    Number of faces shared with processor 73 = 20000
    Number of faces shared with processor 76 = 8000
    Number of faces shared with processor 78 = 8000
    Number of processor patches = 4
    Number of processor faces = 40000
    Number of boundary faces = 24000

Processor 78
    Number of cells = 800000
    Number of points = 832341
    Number of faces shared with processor 38 = 4000
    Number of faces shared with processor 74 = 20000
    Number of faces shared with processor 77 = 8000
    Number of faces shared with processor 79 = 8000
    Number of processor patches = 4
    Number of processor faces = 40000
    Number of boundary faces = 24000

Processor 79
    Number of cells = 800000
    Number of points = 832341
    Number of faces shared with processor 39 = 4000
    Number of faces shared with processor 75 = 20000
    Number of faces shared with processor 78 = 8000
    Number of processor patches = 3
    Number of processor faces = 32000
    Number of boundary faces = 32000

Number of processor faces = 2080294
Max number of cells = 802400 (0.3% above average 800000)
Max number of processor patches = 5 (14.9425% above average 4.35)
Max number of faces between processors = 60000 (15.3683% above average 52007.3)

Time = 0

Processor 0: field transfer
--> FOAM Warning : 
    From void* Foam::dlLibraryTable::openLibrary(const Foam::fileName&, bool)
    in file db/dynamicLibrary/dlLibraryTable/dlLibraryTable.C at line 188
    Could not load "libpetscFoam.so"
libpetscFoam.so: cannot open shared object file: No such file or directory
Processor 1: field transfer
--> FOAM Warning : 
    From void* Foam::dlLibraryTable::openLibrary(const Foam::fileName&, bool)
    in file db/dynamicLibrary/dlLibraryTable/dlLibraryTable.C at line 188
    Could not load "libpetscFoam.so"
libpetscFoam.so: cannot open shared object file: No such file or directory
Processor 2: field transfer
--> FOAM Warning : 
    From void* Foam::dlLibraryTable::openLibrary(const Foam::fileName&, bool)
    in file db/dynamicLibrary/dlLibraryTable/dlLibraryTable.C at line 188
    Could not load "libpetscFoam.so"
libpetscFoam.so: cannot open shared object file: No such file or directory
Processor 3: field transfer
--> FOAM Warning : 
    From void* Foam::dlLibraryTable::openLibrary(const Foam::fileName&, bool)
    in file db/dynamicLibrary/dlLibraryTable/dlLibraryTable.C at line 188
    Could not load "libpetscFoam.so"
libpetscFoam.so: cannot open shared object file: No such file or directory
Processor 4: field transfer
--> FOAM Warning : 
    From void* Foam::dlLibraryTable::openLibrary(const Foam::fileName&, bool)
    in file db/dynamicLibrary/dlLibraryTable/dlLibraryTable.C at line 188
    Could not load "libpetscFoam.so"
libpetscFoam.so: cannot open shared object file: No such file or directory
Processor 5: field transfer
--> FOAM Warning : 
    From void* Foam::dlLibraryTable::openLibrary(const Foam::fileName&, bool)
    in file db/dynamicLibrary/dlLibraryTable/dlLibraryTable.C at line 188
    Could not load "libpetscFoam.so"
libpetscFoam.so: cannot open shared object file: No such file or directory
Processor 6: field transfer
--> FOAM Warning : 
    From void* Foam::dlLibraryTable::openLibrary(const Foam::fileName&, bool)
    in file db/dynamicLibrary/dlLibraryTable/dlLibraryTable.C at line 188
    Could not load "libpetscFoam.so"
libpetscFoam.so: cannot open shared object file: No such file or directory
Processor 7: field transfer
--> FOAM Warning : 
    From void* Foam::dlLibraryTable::openLibrary(const Foam::fileName&, bool)
    in file db/dynamicLibrary/dlLibraryTable/dlLibraryTable.C at line 188
    Could not load "libpetscFoam.so"
libpetscFoam.so: cannot open shared object file: No such file or directory
Processor 8: field transfer
--> FOAM Warning : 
    From void* Foam::dlLibraryTable::openLibrary(const Foam::fileName&, bool)
    in file db/dynamicLibrary/dlLibraryTable/dlLibraryTable.C at line 188
    Could not load "libpetscFoam.so"
libpetscFoam.so: cannot open shared object file: No such file or directory
Processor 9: field transfer
--> FOAM Warning : 
    From void* Foam::dlLibraryTable::openLibrary(const Foam::fileName&, bool)
    in file db/dynamicLibrary/dlLibraryTable/dlLibraryTable.C at line 188
    Could not load "libpetscFoam.so"
libpetscFoam.so: cannot open shared object file: No such file or directory
Processor 10: field transfer
--> FOAM Warning : 
    From void* Foam::dlLibraryTable::openLibrary(const Foam::fileName&, bool)
    in file db/dynamicLibrary/dlLibraryTable/dlLibraryTable.C at line 188
    Could not load "libpetscFoam.so"
libpetscFoam.so: cannot open shared object file: No such file or directory
Processor 11: field transfer
--> FOAM Warning : 
    From void* Foam::dlLibraryTable::openLibrary(const Foam::fileName&, bool)
    in file db/dynamicLibrary/dlLibraryTable/dlLibraryTable.C at line 188
    Could not load "libpetscFoam.so"
libpetscFoam.so: cannot open shared object file: No such file or directory
Processor 12: field transfer
--> FOAM Warning : 
    From void* Foam::dlLibraryTable::openLibrary(const Foam::fileName&, bool)
    in file db/dynamicLibrary/dlLibraryTable/dlLibraryTable.C at line 188
    Could not load "libpetscFoam.so"
libpetscFoam.so: cannot open shared object file: No such file or directory
Processor 13: field transfer
--> FOAM Warning : 
    From void* Foam::dlLibraryTable::openLibrary(const Foam::fileName&, bool)
    in file db/dynamicLibrary/dlLibraryTable/dlLibraryTable.C at line 188
    Could not load "libpetscFoam.so"
libpetscFoam.so: cannot open shared object file: No such file or directory
Processor 14: field transfer
--> FOAM Warning : 
    From void* Foam::dlLibraryTable::openLibrary(const Foam::fileName&, bool)
    in file db/dynamicLibrary/dlLibraryTable/dlLibraryTable.C at line 188
    Could not load "libpetscFoam.so"
libpetscFoam.so: cannot open shared object file: No such file or directory
Processor 15: field transfer
--> FOAM Warning : 
    From void* Foam::dlLibraryTable::openLibrary(const Foam::fileName&, bool)
    in file db/dynamicLibrary/dlLibraryTable/dlLibraryTable.C at line 188
    Could not load "libpetscFoam.so"
libpetscFoam.so: cannot open shared object file: No such file or directory
Processor 16: field transfer
--> FOAM Warning : 
    From void* Foam::dlLibraryTable::openLibrary(const Foam::fileName&, bool)
    in file db/dynamicLibrary/dlLibraryTable/dlLibraryTable.C at line 188
    Could not load "libpetscFoam.so"
libpetscFoam.so: cannot open shared object file: No such file or directory
Processor 17: field transfer
--> FOAM Warning : 
    From void* Foam::dlLibraryTable::openLibrary(const Foam::fileName&, bool)
    in file db/dynamicLibrary/dlLibraryTable/dlLibraryTable.C at line 188
    Could not load "libpetscFoam.so"
libpetscFoam.so: cannot open shared object file: No such file or directory
Processor 18: field transfer
--> FOAM Warning : 
    From void* Foam::dlLibraryTable::openLibrary(const Foam::fileName&, bool)
    in file db/dynamicLibrary/dlLibraryTable/dlLibraryTable.C at line 188
    Could not load "libpetscFoam.so"
libpetscFoam.so: cannot open shared object file: No such file or directory
Processor 19: field transfer
--> FOAM Warning : 
    From void* Foam::dlLibraryTable::openLibrary(const Foam::fileName&, bool)
    in file db/dynamicLibrary/dlLibraryTable/dlLibraryTable.C at line 188
    Could not load "libpetscFoam.so"
libpetscFoam.so: cannot open shared object file: No such file or directory
Processor 20: field transfer
--> FOAM Warning : 
    From void* Foam::dlLibraryTable::openLibrary(const Foam::fileName&, bool)
    in file db/dynamicLibrary/dlLibraryTable/dlLibraryTable.C at line 188
    Could not load "libpetscFoam.so"
libpetscFoam.so: cannot open shared object file: No such file or directory
Processor 21: field transfer
--> FOAM Warning : 
    From void* Foam::dlLibraryTable::openLibrary(const Foam::fileName&, bool)
    in file db/dynamicLibrary/dlLibraryTable/dlLibraryTable.C at line 188
    Could not load "libpetscFoam.so"
libpetscFoam.so: cannot open shared object file: No such file or directory
Processor 22: field transfer
--> FOAM Warning : 
    From void* Foam::dlLibraryTable::openLibrary(const Foam::fileName&, bool)
    in file db/dynamicLibrary/dlLibraryTable/dlLibraryTable.C at line 188
    Could not load "libpetscFoam.so"
libpetscFoam.so: cannot open shared object file: No such file or directory
Processor 23: field transfer
--> FOAM Warning : 
    From void* Foam::dlLibraryTable::openLibrary(const Foam::fileName&, bool)
    in file db/dynamicLibrary/dlLibraryTable/dlLibraryTable.C at line 188
    Could not load "libpetscFoam.so"
libpetscFoam.so: cannot open shared object file: No such file or directory
Processor 24: field transfer
--> FOAM Warning : 
    From void* Foam::dlLibraryTable::openLibrary(const Foam::fileName&, bool)
    in file db/dynamicLibrary/dlLibraryTable/dlLibraryTable.C at line 188
    Could not load "libpetscFoam.so"
libpetscFoam.so: cannot open shared object file: No such file or directory
Processor 25: field transfer
--> FOAM Warning : 
    From void* Foam::dlLibraryTable::openLibrary(const Foam::fileName&, bool)
    in file db/dynamicLibrary/dlLibraryTable/dlLibraryTable.C at line 188
    Could not load "libpetscFoam.so"
libpetscFoam.so: cannot open shared object file: No such file or directory
Processor 26: field transfer
--> FOAM Warning : 
    From void* Foam::dlLibraryTable::openLibrary(const Foam::fileName&, bool)
    in file db/dynamicLibrary/dlLibraryTable/dlLibraryTable.C at line 188
    Could not load "libpetscFoam.so"
libpetscFoam.so: cannot open shared object file: No such file or directory
Processor 27: field transfer
--> FOAM Warning : 
    From void* Foam::dlLibraryTable::openLibrary(const Foam::fileName&, bool)
    in file db/dynamicLibrary/dlLibraryTable/dlLibraryTable.C at line 188
    Could not load "libpetscFoam.so"
libpetscFoam.so: cannot open shared object file: No such file or directory
Processor 28: field transfer
--> FOAM Warning : 
    From void* Foam::dlLibraryTable::openLibrary(const Foam::fileName&, bool)
    in file db/dynamicLibrary/dlLibraryTable/dlLibraryTable.C at line 188
    Could not load "libpetscFoam.so"
libpetscFoam.so: cannot open shared object file: No such file or directory
Processor 29: field transfer
--> FOAM Warning : 
    From void* Foam::dlLibraryTable::openLibrary(const Foam::fileName&, bool)
    in file db/dynamicLibrary/dlLibraryTable/dlLibraryTable.C at line 188
    Could not load "libpetscFoam.so"
libpetscFoam.so: cannot open shared object file: No such file or directory
Processor 30: field transfer
--> FOAM Warning : 
    From void* Foam::dlLibraryTable::openLibrary(const Foam::fileName&, bool)
    in file db/dynamicLibrary/dlLibraryTable/dlLibraryTable.C at line 188
    Could not load "libpetscFoam.so"
libpetscFoam.so: cannot open shared object file: No such file or directory
Processor 31: field transfer
--> FOAM Warning : 
    From void* Foam::dlLibraryTable::openLibrary(const Foam::fileName&, bool)
    in file db/dynamicLibrary/dlLibraryTable/dlLibraryTable.C at line 188
    Could not load "libpetscFoam.so"
libpetscFoam.so: cannot open shared object file: No such file or directory
Processor 32: field transfer
--> FOAM Warning : 
    From void* Foam::dlLibraryTable::openLibrary(const Foam::fileName&, bool)
    in file db/dynamicLibrary/dlLibraryTable/dlLibraryTable.C at line 188
    Could not load "libpetscFoam.so"
libpetscFoam.so: cannot open shared object file: No such file or directory
Processor 33: field transfer
--> FOAM Warning : 
    From void* Foam::dlLibraryTable::openLibrary(const Foam::fileName&, bool)
    in file db/dynamicLibrary/dlLibraryTable/dlLibraryTable.C at line 188
    Could not load "libpetscFoam.so"
libpetscFoam.so: cannot open shared object file: No such file or directory
Processor 34: field transfer
--> FOAM Warning : 
    From void* Foam::dlLibraryTable::openLibrary(const Foam::fileName&, bool)
    in file db/dynamicLibrary/dlLibraryTable/dlLibraryTable.C at line 188
    Could not load "libpetscFoam.so"
libpetscFoam.so: cannot open shared object file: No such file or directory
Processor 35: field transfer
--> FOAM Warning : 
    From void* Foam::dlLibraryTable::openLibrary(const Foam::fileName&, bool)
    in file db/dynamicLibrary/dlLibraryTable/dlLibraryTable.C at line 188
    Could not load "libpetscFoam.so"
libpetscFoam.so: cannot open shared object file: No such file or directory
Processor 36: field transfer
--> FOAM Warning : 
    From void* Foam::dlLibraryTable::openLibrary(const Foam::fileName&, bool)
    in file db/dynamicLibrary/dlLibraryTable/dlLibraryTable.C at line 188
    Could not load "libpetscFoam.so"
libpetscFoam.so: cannot open shared object file: No such file or directory
Processor 37: field transfer
--> FOAM Warning : 
    From void* Foam::dlLibraryTable::openLibrary(const Foam::fileName&, bool)
    in file db/dynamicLibrary/dlLibraryTable/dlLibraryTable.C at line 188
    Could not load "libpetscFoam.so"
libpetscFoam.so: cannot open shared object file: No such file or directory
Processor 38: field transfer
--> FOAM Warning : 
    From void* Foam::dlLibraryTable::openLibrary(const Foam::fileName&, bool)
    in file db/dynamicLibrary/dlLibraryTable/dlLibraryTable.C at line 188
    Could not load "libpetscFoam.so"
libpetscFoam.so: cannot open shared object file: No such file or directory
Processor 39: field transfer
--> FOAM Warning : 
    From void* Foam::dlLibraryTable::openLibrary(const Foam::fileName&, bool)
    in file db/dynamicLibrary/dlLibraryTable/dlLibraryTable.C at line 188
    Could not load "libpetscFoam.so"
libpetscFoam.so: cannot open shared object file: No such file or directory
Processor 40: field transfer
--> FOAM Warning : 
    From void* Foam::dlLibraryTable::openLibrary(const Foam::fileName&, bool)
    in file db/dynamicLibrary/dlLibraryTable/dlLibraryTable.C at line 188
    Could not load "libpetscFoam.so"
libpetscFoam.so: cannot open shared object file: No such file or directory
Processor 41: field transfer
--> FOAM Warning : 
    From void* Foam::dlLibraryTable::openLibrary(const Foam::fileName&, bool)
    in file db/dynamicLibrary/dlLibraryTable/dlLibraryTable.C at line 188
    Could not load "libpetscFoam.so"
libpetscFoam.so: cannot open shared object file: No such file or directory
Processor 42: field transfer
--> FOAM Warning : 
    From void* Foam::dlLibraryTable::openLibrary(const Foam::fileName&, bool)
    in file db/dynamicLibrary/dlLibraryTable/dlLibraryTable.C at line 188
    Could not load "libpetscFoam.so"
libpetscFoam.so: cannot open shared object file: No such file or directory
Processor 43: field transfer
--> FOAM Warning : 
    From void* Foam::dlLibraryTable::openLibrary(const Foam::fileName&, bool)
    in file db/dynamicLibrary/dlLibraryTable/dlLibraryTable.C at line 188
    Could not load "libpetscFoam.so"
libpetscFoam.so: cannot open shared object file: No such file or directory
Processor 44: field transfer
--> FOAM Warning : 
    From void* Foam::dlLibraryTable::openLibrary(const Foam::fileName&, bool)
    in file db/dynamicLibrary/dlLibraryTable/dlLibraryTable.C at line 188
    Could not load "libpetscFoam.so"
libpetscFoam.so: cannot open shared object file: No such file or directory
Processor 45: field transfer
--> FOAM Warning : 
    From void* Foam::dlLibraryTable::openLibrary(const Foam::fileName&, bool)
    in file db/dynamicLibrary/dlLibraryTable/dlLibraryTable.C at line 188
    Could not load "libpetscFoam.so"
libpetscFoam.so: cannot open shared object file: No such file or directory
Processor 46: field transfer
--> FOAM Warning : 
    From void* Foam::dlLibraryTable::openLibrary(const Foam::fileName&, bool)
    in file db/dynamicLibrary/dlLibraryTable/dlLibraryTable.C at line 188
    Could not load "libpetscFoam.so"
libpetscFoam.so: cannot open shared object file: No such file or directory
Processor 47: field transfer
--> FOAM Warning : 
    From void* Foam::dlLibraryTable::openLibrary(const Foam::fileName&, bool)
    in file db/dynamicLibrary/dlLibraryTable/dlLibraryTable.C at line 188
    Could not load "libpetscFoam.so"
libpetscFoam.so: cannot open shared object file: No such file or directory
Processor 48: field transfer
--> FOAM Warning : 
    From void* Foam::dlLibraryTable::openLibrary(const Foam::fileName&, bool)
    in file db/dynamicLibrary/dlLibraryTable/dlLibraryTable.C at line 188
    Could not load "libpetscFoam.so"
libpetscFoam.so: cannot open shared object file: No such file or directory
Processor 49: field transfer
--> FOAM Warning : 
    From void* Foam::dlLibraryTable::openLibrary(const Foam::fileName&, bool)
    in file db/dynamicLibrary/dlLibraryTable/dlLibraryTable.C at line 188
    Could not load "libpetscFoam.so"
libpetscFoam.so: cannot open shared object file: No such file or directory
Processor 50: field transfer
--> FOAM Warning : 
    From void* Foam::dlLibraryTable::openLibrary(const Foam::fileName&, bool)
    in file db/dynamicLibrary/dlLibraryTable/dlLibraryTable.C at line 188
    Could not load "libpetscFoam.so"
libpetscFoam.so: cannot open shared object file: No such file or directory
Processor 51: field transfer
--> FOAM Warning : 
    From void* Foam::dlLibraryTable::openLibrary(const Foam::fileName&, bool)
    in file db/dynamicLibrary/dlLibraryTable/dlLibraryTable.C at line 188
    Could not load "libpetscFoam.so"
libpetscFoam.so: cannot open shared object file: No such file or directory
Processor 52: field transfer
--> FOAM Warning : 
    From void* Foam::dlLibraryTable::openLibrary(const Foam::fileName&, bool)
    in file db/dynamicLibrary/dlLibraryTable/dlLibraryTable.C at line 188
    Could not load "libpetscFoam.so"
libpetscFoam.so: cannot open shared object file: No such file or directory
Processor 53: field transfer
--> FOAM Warning : 
    From void* Foam::dlLibraryTable::openLibrary(const Foam::fileName&, bool)
    in file db/dynamicLibrary/dlLibraryTable/dlLibraryTable.C at line 188
    Could not load "libpetscFoam.so"
libpetscFoam.so: cannot open shared object file: No such file or directory
Processor 54: field transfer
--> FOAM Warning : 
    From void* Foam::dlLibraryTable::openLibrary(const Foam::fileName&, bool)
    in file db/dynamicLibrary/dlLibraryTable/dlLibraryTable.C at line 188
    Could not load "libpetscFoam.so"
libpetscFoam.so: cannot open shared object file: No such file or directory
Processor 55: field transfer
--> FOAM Warning : 
    From void* Foam::dlLibraryTable::openLibrary(const Foam::fileName&, bool)
    in file db/dynamicLibrary/dlLibraryTable/dlLibraryTable.C at line 188
    Could not load "libpetscFoam.so"
libpetscFoam.so: cannot open shared object file: No such file or directory
Processor 56: field transfer
--> FOAM Warning : 
    From void* Foam::dlLibraryTable::openLibrary(const Foam::fileName&, bool)
    in file db/dynamicLibrary/dlLibraryTable/dlLibraryTable.C at line 188
    Could not load "libpetscFoam.so"
libpetscFoam.so: cannot open shared object file: No such file or directory
Processor 57: field transfer
--> FOAM Warning : 
    From void* Foam::dlLibraryTable::openLibrary(const Foam::fileName&, bool)
    in file db/dynamicLibrary/dlLibraryTable/dlLibraryTable.C at line 188
    Could not load "libpetscFoam.so"
libpetscFoam.so: cannot open shared object file: No such file or directory
Processor 58: field transfer
--> FOAM Warning : 
    From void* Foam::dlLibraryTable::openLibrary(const Foam::fileName&, bool)
    in file db/dynamicLibrary/dlLibraryTable/dlLibraryTable.C at line 188
    Could not load "libpetscFoam.so"
libpetscFoam.so: cannot open shared object file: No such file or directory
Processor 59: field transfer
--> FOAM Warning : 
    From void* Foam::dlLibraryTable::openLibrary(const Foam::fileName&, bool)
    in file db/dynamicLibrary/dlLibraryTable/dlLibraryTable.C at line 188
    Could not load "libpetscFoam.so"
libpetscFoam.so: cannot open shared object file: No such file or directory
Processor 60: field transfer
--> FOAM Warning : 
    From void* Foam::dlLibraryTable::openLibrary(const Foam::fileName&, bool)
    in file db/dynamicLibrary/dlLibraryTable/dlLibraryTable.C at line 188
    Could not load "libpetscFoam.so"
libpetscFoam.so: cannot open shared object file: No such file or directory
Processor 61: field transfer
--> FOAM Warning : 
    From void* Foam::dlLibraryTable::openLibrary(const Foam::fileName&, bool)
    in file db/dynamicLibrary/dlLibraryTable/dlLibraryTable.C at line 188
    Could not load "libpetscFoam.so"
libpetscFoam.so: cannot open shared object file: No such file or directory
Processor 62: field transfer
--> FOAM Warning : 
    From void* Foam::dlLibraryTable::openLibrary(const Foam::fileName&, bool)
    in file db/dynamicLibrary/dlLibraryTable/dlLibraryTable.C at line 188
    Could not load "libpetscFoam.so"
libpetscFoam.so: cannot open shared object file: No such file or directory
Processor 63: field transfer
--> FOAM Warning : 
    From void* Foam::dlLibraryTable::openLibrary(const Foam::fileName&, bool)
    in file db/dynamicLibrary/dlLibraryTable/dlLibraryTable.C at line 188
    Could not load "libpetscFoam.so"
libpetscFoam.so: cannot open shared object file: No such file or directory
Processor 64: field transfer
--> FOAM Warning : 
    From void* Foam::dlLibraryTable::openLibrary(const Foam::fileName&, bool)
    in file db/dynamicLibrary/dlLibraryTable/dlLibraryTable.C at line 188
    Could not load "libpetscFoam.so"
libpetscFoam.so: cannot open shared object file: No such file or directory
Processor 65: field transfer
--> FOAM Warning : 
    From void* Foam::dlLibraryTable::openLibrary(const Foam::fileName&, bool)
    in file db/dynamicLibrary/dlLibraryTable/dlLibraryTable.C at line 188
    Could not load "libpetscFoam.so"
libpetscFoam.so: cannot open shared object file: No such file or directory
Processor 66: field transfer
--> FOAM Warning : 
    From void* Foam::dlLibraryTable::openLibrary(const Foam::fileName&, bool)
    in file db/dynamicLibrary/dlLibraryTable/dlLibraryTable.C at line 188
    Could not load "libpetscFoam.so"
libpetscFoam.so: cannot open shared object file: No such file or directory
Processor 67: field transfer
--> FOAM Warning : 
    From void* Foam::dlLibraryTable::openLibrary(const Foam::fileName&, bool)
    in file db/dynamicLibrary/dlLibraryTable/dlLibraryTable.C at line 188
    Could not load "libpetscFoam.so"
libpetscFoam.so: cannot open shared object file: No such file or directory
Processor 68: field transfer
--> FOAM Warning : 
    From void* Foam::dlLibraryTable::openLibrary(const Foam::fileName&, bool)
    in file db/dynamicLibrary/dlLibraryTable/dlLibraryTable.C at line 188
    Could not load "libpetscFoam.so"
libpetscFoam.so: cannot open shared object file: No such file or directory
Processor 69: field transfer
--> FOAM Warning : 
    From void* Foam::dlLibraryTable::openLibrary(const Foam::fileName&, bool)
    in file db/dynamicLibrary/dlLibraryTable/dlLibraryTable.C at line 188
    Could not load "libpetscFoam.so"
libpetscFoam.so: cannot open shared object file: No such file or directory
Processor 70: field transfer
--> FOAM Warning : 
    From void* Foam::dlLibraryTable::openLibrary(const Foam::fileName&, bool)
    in file db/dynamicLibrary/dlLibraryTable/dlLibraryTable.C at line 188
    Could not load "libpetscFoam.so"
libpetscFoam.so: cannot open shared object file: No such file or directory
Processor 71: field transfer
--> FOAM Warning : 
    From void* Foam::dlLibraryTable::openLibrary(const Foam::fileName&, bool)
    in file db/dynamicLibrary/dlLibraryTable/dlLibraryTable.C at line 188
    Could not load "libpetscFoam.so"
libpetscFoam.so: cannot open shared object file: No such file or directory
Processor 72: field transfer
--> FOAM Warning : 
    From void* Foam::dlLibraryTable::openLibrary(const Foam::fileName&, bool)
    in file db/dynamicLibrary/dlLibraryTable/dlLibraryTable.C at line 188
    Could not load "libpetscFoam.so"
libpetscFoam.so: cannot open shared object file: No such file or directory
Processor 73: field transfer
--> FOAM Warning : 
    From void* Foam::dlLibraryTable::openLibrary(const Foam::fileName&, bool)
    in file db/dynamicLibrary/dlLibraryTable/dlLibraryTable.C at line 188
    Could not load "libpetscFoam.so"
libpetscFoam.so: cannot open shared object file: No such file or directory
Processor 74: field transfer
--> FOAM Warning : 
    From void* Foam::dlLibraryTable::openLibrary(const Foam::fileName&, bool)
    in file db/dynamicLibrary/dlLibraryTable/dlLibraryTable.C at line 188
    Could not load "libpetscFoam.so"
libpetscFoam.so: cannot open shared object file: No such file or directory
Processor 75: field transfer
--> FOAM Warning : 
    From void* Foam::dlLibraryTable::openLibrary(const Foam::fileName&, bool)
    in file db/dynamicLibrary/dlLibraryTable/dlLibraryTable.C at line 188
    Could not load "libpetscFoam.so"
libpetscFoam.so: cannot open shared object file: No such file or directory
Processor 76: field transfer
--> FOAM Warning : 
    From void* Foam::dlLibraryTable::openLibrary(const Foam::fileName&, bool)
    in file db/dynamicLibrary/dlLibraryTable/dlLibraryTable.C at line 188
    Could not load "libpetscFoam.so"
libpetscFoam.so: cannot open shared object file: No such file or directory
Processor 77: field transfer
--> FOAM Warning : 
    From void* Foam::dlLibraryTable::openLibrary(const Foam::fileName&, bool)
    in file db/dynamicLibrary/dlLibraryTable/dlLibraryTable.C at line 188
    Could not load "libpetscFoam.so"
libpetscFoam.so: cannot open shared object file: No such file or directory
Processor 78: field transfer
--> FOAM Warning : 
    From void* Foam::dlLibraryTable::openLibrary(const Foam::fileName&, bool)
    in file db/dynamicLibrary/dlLibraryTable/dlLibraryTable.C at line 188
    Could not load "libpetscFoam.so"
libpetscFoam.so: cannot open shared object file: No such file or directory
Processor 79: field transfer
--> FOAM Warning : 
    From void* Foam::dlLibraryTable::openLibrary(const Foam::fileName&, bool)
    in file db/dynamicLibrary/dlLibraryTable/dlLibraryTable.C at line 188
    Could not load "libpetscFoam.so"
libpetscFoam.so: cannot open shared object file: No such file or directory

End

