/*---------------------------------------------------------------------------*\
| =========                 |                                                 |
| \\      /  F ield         | OpenFOAM: The Open Source CFD Toolbox           |
|  \\    /   O peration     | Version:  2306                                  |
|   \\  /    A nd           | Website:  www.openfoam.com                      |
|    \\/     M anipulation  |                                                 |
\*---------------------------------------------------------------------------*/
Build  : a6e826bd55-20230630 OPENFOAM=2306 version=v2306
Arch   : "LSB;label=32;scalar=64"
Exec   : icoFoam -parallel -case /tmp/lidDrivenCavity3D/workspace/6118dc89ed320001f8d6df31a2fca075/case
Date   : Dec 09 2023
Time   : 09:25:58
Host   : nla-gpu2.ianm.kit.edu
PID    : 269851
I/O    : uncollated
Case   : /tmp/lidDrivenCavity3D/workspace/6118dc89ed320001f8d6df31a2fca075/case
nProcs : 8
Hosts  :
(
    (nla-gpu2.ianm.kit.edu 8)
)
Pstream initialized with:
    floatTransfer      : false
    nProcsSimpleSum    : 0
    nonBlockingExchange: 0 (tuning: 0)
    exchange algorithm : -1
    commsType          : nonBlocking
    polling iterations : 0
trapFpe: Floating point exception trapping enabled (FOAM_SIGFPE).
fileModificationChecking : Monitoring run-time modified files using timeStampMaster (fileModificationSkew 5, maxFileModificationPolls 20)
allowSystemOperations : Allowing user-supplied system call operations

// * * * * * * * * * * * * * * * * * * * * * * * * * * * * * * * * * * * * * //
Create time

--> FOAM Warning : 
    From void* Foam::dlLibraryTable::openLibrary(const Foam::fileName&, bool)
    in file db/dynamicLibrary/dlLibraryTable/dlLibraryTable.C at line 188
    Could not load "libpetscFoam.so"
libpetscFoam.so: cannot open shared object file: No such file or directory
Create mesh for time = 0


PISO: Operating solver in PISO mode

Reading transportProperties

Reading field p

Reading field U

Reading/calculating face flux field phi


Starting time loop

Time = 0.00025

Courant Number mean: 8.24341e-18 max: 2.08167e-14
[INFO] MatrixAssemblyU: 108.917 [ms]
DILUPBiCGStab:  Solving for Ux, Initial residual = 1, Final residual = 0.00959752, No Iterations 5
DILUPBiCGStab:  Solving for Uy:  solution singularity
DILUPBiCGStab:  Solving for Uz:  solution singularity
[INFO] MomentumPredictor: 484.122 [ms]
[INFO] MatrixAssemblyPI: 105.155 [ms]
[INFO] AdjustPhi: 7.518 [ms]
[INFO] ConstrainPressure: 0.013 [ms]
[INFO] MatrixAssemblyPII: 30.154 [ms]
[OGL LOG][lduLduBase.H:119] Initialising OGL
	OGL commit:  5ef1233
	Branch: feat/on_device_permute 
	Build type: Release
	Ginkgo version: 1.7.0 ( develop)
	Ginkgo commit: sparse-communicator
	MPI is GPU aware: 1
	Forces host buffer based communication: 0
	CPU ranks per GPU: 1
	Matrix format: Coo
	End OGL_INFO
[OGL LOG][Proc: 0]: global_index_init: 0.974 [ms]
[OGL LOG][Proc: 0]p_local_cols: call_init: 0.034 [ms]
[OGL LOG][Proc: 0]p_local_rows: call_init: 0.003 [ms]
[OGL LOG][Proc: 0]p_local_ldu_map: call_init: 0.011 [ms]
[OGL LOG][Proc: 0]p_local_coeffs: call_init: 0.15 [ms]
[OGL LOG][Proc: 0]p_non_local_cols: call_init: 0.004 [ms]
[OGL LOG][Proc: 0]p_non_local_rows: call_init: 0.002 [ms]
[OGL LOG][Proc: 0]p_non_local_ldu_map: call_init: 0.002 [ms]
[OGL LOG][Proc: 0]p_non_local_coeffs: call_init: 0.003 [ms]
[OGL LOG][Proc: 0]p: init_local_sparsity_pattern: 142.449 [ms]
[OGL LOG][Proc: 0]p: init_non_local_sparsity_pattern: 16.679 [ms]
[OGL LOG][Proc: 0]p: update_local_matrix_data: 15.129 [ms]
[OGL LOG][Proc: 0]p: update_non_local_matrix_data: 0.152 [ms]
[OGL LOG][Proc: 0]device_partition: call_init: 0.164 [ms]
[OGL LOG][Proc: 0]p_matrix: call_init: 80.235 [ms]
[OGL LOG][Proc: 0]p_rhs: call_init: 4.691 [ms]
[OGL LOG][Proc: 0]p_solution: call_init: 1.201 [ms]
[OGL LOG][Proc: 0]p: init_precond: 0.099 [ms]
[OGL LOG][StoppingCriterion.H:373] Creating stopping criterion with minIter 0 frequency 1
[OGL LOG][Proc: 0]p: generate_solver: 0.045 [ms]
[OGL LOG][Proc: 0]p: solve: 3114.63 [ms]
[OGL LOG][Proc: 0]p: copy_x_back: 2.985 [ms]
[OGL LOG][lduLduBase.H:330] 
Statistics:
	Time per iteration: 1933 [mu s]
	Time per residual norm calculation: 1093.000000 [mu s]
	Time per iteration and DOF: 0.241625 [ns]
	Retrieve results bandwidth 2.680000 [GByte/s]
[OGL LOG][Proc: 0]p: solve_multi_gpu: 3225.06 [ms]
nonehipGKOCG:  Solving for p, Initial residual = 1, Final residual = 9.86583e-05, No Iterations 1611
[INFO] SolveP: 3637.82 [ms]
time step continuity errors : sum local = 7.58108e-09, global = -1.50605e-21, cumulative = -1.50605e-21
[INFO] ContinuityError: 15.156 [ms]
[INFO] CorrectBoundary: 0.9 [ms]
[INFO] PISOStep: 3834.55 [ms]
[INFO] MatrixAssemblyPI: 101.1 [ms]
[INFO] AdjustPhi: 6.822 [ms]
[INFO] ConstrainPressure: 0.004 [ms]
[INFO] MatrixAssemblyPII: 30.075 [ms]
[OGL LOG][Proc: 0]: global_index_init: 0.12 [ms]
[OGL LOG][Proc: 0]p_local_coeffs: call_update: 0.004 [ms]
[OGL LOG][Proc: 0]p_non_local_coeffs: call_update: 0 [ms]
[OGL LOG][Proc: 0]p: update_local_matrix_data: 12.088 [ms]
[OGL LOG][Proc: 0]p: update_non_local_matrix_data: 0.109 [ms]
[OGL LOG][Proc: 0]p_matrix: call_update: 9.032 [ms]
[OGL LOG][Proc: 0]p_rhs: call_update: 4.302 [ms]
[OGL LOG][Proc: 0]p: init_precond: 0.062 [ms]
[OGL LOG][StoppingCriterion.H:373] Creating stopping criterion with minIter 966 frequency 25
[OGL LOG][Proc: 0]p: generate_solver: 0.005 [ms]
[OGL LOG][Proc: 0]p: solve: 1450.23 [ms]
[OGL LOG][Proc: 0]p: copy_x_back: 2.778 [ms]
[OGL LOG][lduLduBase.H:330] 
Statistics:
	Time per iteration: 905 [mu s]
	Time per residual norm calculation: 273.000000 [mu s]
	Time per iteration and DOF: 0.113125 [ns]
	Retrieve results bandwidth 2.879000 [GByte/s]
[OGL LOG][Proc: 0]p: solve_multi_gpu: 1467.52 [ms]
nonehipGKOCG:  Solving for p, Initial residual = 0.786527, Final residual = 8.7474e-05, No Iterations 1601
[INFO] SolveP: 1483.55 [ms]
time step continuity errors : sum local = 8.40009e-09, global = -1.42046e-21, cumulative = -2.92651e-21
[INFO] ContinuityError: 16.381 [ms]
[INFO] CorrectBoundary: 0.464 [ms]
[INFO] PISOStep: 1674.37 [ms]
[INFO] TimeStep: 6117.52 [ms]
ExecutionTime = 8.02 s  ClockTime = 7 s

Time = 0.0005

Courant Number mean: 0.0159725 max: 0.41252
[INFO] MatrixAssemblyU: 77.991 [ms]
DILUPBiCGStab:  Solving for Ux, Initial residual = 0.129596, Final residual = 0.00510256, No Iterations 5
DILUPBiCGStab:  Solving for Uy, Initial residual = 0.426763, Final residual = 0.0132344, No Iterations 5
DILUPBiCGStab:  Solving for Uz, Initial residual = 0.993464, Final residual = 0.0333258, No Iterations 5
[INFO] MomentumPredictor: 880.261 [ms]
[INFO] MatrixAssemblyPI: 102.016 [ms]
[INFO] AdjustPhi: 6.305 [ms]
[INFO] ConstrainPressure: 0.005 [ms]
[INFO] MatrixAssemblyPII: 29.856 [ms]
[OGL LOG][Proc: 0]: global_index_init: 0.21 [ms]
[OGL LOG][Proc: 0]p_local_coeffs: call_update: 0 [ms]
[OGL LOG][Proc: 0]p_non_local_coeffs: call_update: 0 [ms]
[OGL LOG][Proc: 0]p: update_local_matrix_data: 11.508 [ms]
[OGL LOG][Proc: 0]p: update_non_local_matrix_data: 0.107 [ms]
[OGL LOG][Proc: 0]p_matrix: call_update: 10.552 [ms]
[OGL LOG][Proc: 0]p_rhs: call_update: 2.283 [ms]
[OGL LOG][Proc: 0]p: init_precond: 0.051 [ms]
[OGL LOG][StoppingCriterion.H:373] Creating stopping criterion with minIter 960 frequency 14
[OGL LOG][Proc: 0]p: generate_solver: 0.006 [ms]
[OGL LOG][Proc: 0]p: solve: 1408.5 [ms]
[OGL LOG][Proc: 0]p: copy_x_back: 2.775 [ms]
[OGL LOG][lduLduBase.H:330] 
Statistics:
	Time per iteration: 897 [mu s]
	Time per residual norm calculation: 272.000000 [mu s]
	Time per iteration and DOF: 0.112125 [ns]
	Retrieve results bandwidth 2.882000 [GByte/s]
[OGL LOG][Proc: 0]p: solve_multi_gpu: 1425.96 [ms]
nonehipGKOCG:  Solving for p, Initial residual = 0.824095, Final residual = 9.88152e-05, No Iterations 1569
[INFO] SolveP: 1445.46 [ms]
time step continuity errors : sum local = 1.44762e-08, global = 7.76248e-22, cumulative = -2.15026e-21
[INFO] ContinuityError: 18.09 [ms]
[INFO] CorrectBoundary: 0.477 [ms]
[INFO] PISOStep: 1641.63 [ms]
[INFO] MatrixAssemblyPI: 101.652 [ms]
[INFO] AdjustPhi: 7.781 [ms]
[INFO] ConstrainPressure: 0.004 [ms]
[INFO] MatrixAssemblyPII: 29.451 [ms]
[OGL LOG][Proc: 0]: global_index_init: 0.164 [ms]
[OGL LOG][Proc: 0]p_local_coeffs: call_update: 0 [ms]
[OGL LOG][Proc: 0]p_non_local_coeffs: call_update: 0 [ms]
[OGL LOG][Proc: 0]p: update_local_matrix_data: 12.045 [ms]
[OGL LOG][Proc: 0]p: update_non_local_matrix_data: 0.109 [ms]
[OGL LOG][Proc: 0]p_matrix: call_update: 15.427 [ms]
[OGL LOG][Proc: 0]p_rhs: call_update: 6.618 [ms]
[OGL LOG][Proc: 0]p: init_precond: 0.054 [ms]
[OGL LOG][StoppingCriterion.H:373] Creating stopping criterion with minIter 941 frequency 14
[OGL LOG][Proc: 0]p: generate_solver: 0.006 [ms]
[OGL LOG][Proc: 0]p: solve: 1414.71 [ms]
[OGL LOG][Proc: 0]p: copy_x_back: 2.926 [ms]
[OGL LOG][lduLduBase.H:330] 
Statistics:
	Time per iteration: 901 [mu s]
	Time per residual norm calculation: 278.000000 [mu s]
	Time per iteration and DOF: 0.112625 [ns]
	Retrieve results bandwidth 2.734000 [GByte/s]
[OGL LOG][Proc: 0]p: solve_multi_gpu: 1440.63 [ms]
nonehipGKOCG:  Solving for p, Initial residual = 0.767379, Final residual = 8.9962e-05, No Iterations 1569
[INFO] SolveP: 1456.51 [ms]
time step continuity errors : sum local = 1.34165e-08, global = -1.85835e-21, cumulative = -4.00862e-21
[INFO] ContinuityError: 14.622 [ms]
[INFO] CorrectBoundary: 0.76 [ms]
[INFO] PISOStep: 1647.16 [ms]
[INFO] TimeStep: 4261.51 [ms]
ExecutionTime = 13.42 s  ClockTime = 11 s

Time = 0.00075

Courant Number mean: 0.0243584 max: 0.471981
[INFO] MatrixAssemblyU: 77.874 [ms]
DILUPBiCGStab:  Solving for Ux, Initial residual = 0.0547592, Final residual = 0.00175941, No Iterations 5
DILUPBiCGStab:  Solving for Uy, Initial residual = 0.182081, Final residual = 0.0070754, No Iterations 5
DILUPBiCGStab:  Solving for Uz, Initial residual = 0.815576, Final residual = 0.0252748, No Iterations 5
[INFO] MomentumPredictor: 876.744 [ms]
[INFO] MatrixAssemblyPI: 103.546 [ms]
[INFO] AdjustPhi: 6.965 [ms]
[INFO] ConstrainPressure: 0.004 [ms]
[INFO] MatrixAssemblyPII: 29.906 [ms]
[OGL LOG][Proc: 0]: global_index_init: 0.074 [ms]
[OGL LOG][Proc: 0]p_local_coeffs: call_update: 0 [ms]
[OGL LOG][Proc: 0]p_non_local_coeffs: call_update: 0 [ms]
[OGL LOG][Proc: 0]p: update_local_matrix_data: 11.556 [ms]
[OGL LOG][Proc: 0]p: update_non_local_matrix_data: 0.135 [ms]
[OGL LOG][Proc: 0]p_matrix: call_update: 12.963 [ms]
[OGL LOG][Proc: 0]p_rhs: call_update: 2.383 [ms]
[OGL LOG][Proc: 0]p: init_precond: 0.049 [ms]
[OGL LOG][StoppingCriterion.H:373] Creating stopping criterion with minIter 941 frequency 14
[OGL LOG][Proc: 0]p: generate_solver: 0.005 [ms]
[OGL LOG][Proc: 0]p: solve: 1419.75 [ms]
[OGL LOG][Proc: 0]p: copy_x_back: 2.755 [ms]
[OGL LOG][lduLduBase.H:330] 
Statistics:
	Time per iteration: 896 [mu s]
	Time per residual norm calculation: 271.000000 [mu s]
	Time per iteration and DOF: 0.112000 [ns]
	Retrieve results bandwidth 2.903000 [GByte/s]
[OGL LOG][Proc: 0]p: solve_multi_gpu: 1439.73 [ms]
nonehipGKOCG:  Solving for p, Initial residual = 0.848668, Final residual = 6.61509e-05, No Iterations 1583
[INFO] SolveP: 1455.17 [ms]
time step continuity errors : sum local = 8.8621e-09, global = -9.78322e-22, cumulative = -4.98694e-21
[INFO] ContinuityError: 15.208 [ms]
[INFO] CorrectBoundary: 0.619 [ms]
[INFO] PISOStep: 1646.62 [ms]
[INFO] MatrixAssemblyPI: 99.238 [ms]
[INFO] AdjustPhi: 6.823 [ms]
[INFO] ConstrainPressure: 0.004 [ms]
[INFO] MatrixAssemblyPII: 29.731 [ms]
[OGL LOG][Proc: 0]: global_index_init: 0.042 [ms]
[OGL LOG][Proc: 0]p_local_coeffs: call_update: 0 [ms]
[OGL LOG][Proc: 0]p_non_local_coeffs: call_update: 0 [ms]
[OGL LOG][Proc: 0]p: update_local_matrix_data: 12.096 [ms]
[OGL LOG][Proc: 0]p: update_non_local_matrix_data: 0.11 [ms]
[OGL LOG][Proc: 0]p_matrix: call_update: 9.043 [ms]
[OGL LOG][Proc: 0]p_rhs: call_update: 3.073 [ms]
[OGL LOG][Proc: 0]p: init_precond: 0.056 [ms]
[OGL LOG][StoppingCriterion.H:373] Creating stopping criterion with minIter 949 frequency 14
[OGL LOG][Proc: 0]p: generate_solver: 0.005 [ms]
[OGL LOG][Proc: 0]p: solve: 1445.27 [ms]
[OGL LOG][Proc: 0]p: copy_x_back: 2.935 [ms]
[OGL LOG][lduLduBase.H:330] 
Statistics:
	Time per iteration: 912 [mu s]
	Time per residual norm calculation: 284.000000 [mu s]
	Time per iteration and DOF: 0.114000 [ns]
	Retrieve results bandwidth 2.725000 [GByte/s]
[OGL LOG][Proc: 0]p: solve_multi_gpu: 1461.24 [ms]
nonehipGKOCG:  Solving for p, Initial residual = 0.815333, Final residual = 6.13806e-05, No Iterations 1583
[INFO] SolveP: 1477.21 [ms]
time step continuity errors : sum local = 8.04578e-09, global = 1.20587e-21, cumulative = -3.78107e-21
[INFO] ContinuityError: 13.982 [ms]
[INFO] CorrectBoundary: 0.702 [ms]
[INFO] PISOStep: 1663.29 [ms]
[INFO] TimeStep: 4279.04 [ms]
ExecutionTime = 18.84 s  ClockTime = 15 s

Time = 0.001

Courant Number mean: 0.029233 max: 0.467776
[INFO] MatrixAssemblyU: 78.223 [ms]
DILUPBiCGStab:  Solving for Ux, Initial residual = 0.0346512, Final residual = 0.00116379, No Iterations 5
DILUPBiCGStab:  Solving for Uy, Initial residual = 0.129012, Final residual = 0.00438847, No Iterations 5
DILUPBiCGStab:  Solving for Uz, Initial residual = 0.601226, Final residual = 0.0148394, No Iterations 5
[INFO] MomentumPredictor: 873.999 [ms]
[INFO] MatrixAssemblyPI: 102.134 [ms]
[INFO] AdjustPhi: 6.796 [ms]
[INFO] ConstrainPressure: 0.005 [ms]
[INFO] MatrixAssemblyPII: 30.151 [ms]
[OGL LOG][Proc: 0]: global_index_init: 0.044 [ms]
[OGL LOG][Proc: 0]p_local_coeffs: call_update: 0 [ms]
[OGL LOG][Proc: 0]p_non_local_coeffs: call_update: 0 [ms]
[OGL LOG][Proc: 0]p: update_local_matrix_data: 11.636 [ms]
[OGL LOG][Proc: 0]p: update_non_local_matrix_data: 0.105 [ms]
[OGL LOG][Proc: 0]p_matrix: call_update: 9.848 [ms]
[OGL LOG][Proc: 0]p_rhs: call_update: 2.543 [ms]
[OGL LOG][Proc: 0]p: init_precond: 0.056 [ms]
[OGL LOG][StoppingCriterion.H:373] Creating stopping criterion with minIter 949 frequency 14
[OGL LOG][Proc: 0]p: generate_solver: 0.005 [ms]
[OGL LOG][Proc: 0]p: solve: 865.181 [ms]
[OGL LOG][Proc: 0]p: copy_x_back: 2.972 [ms]
[OGL LOG][lduLduBase.H:330] 
Statistics:
	Time per iteration: 907 [mu s]
	Time per residual norm calculation: 282.000000 [mu s]
	Time per iteration and DOF: 0.113375 [ns]
	Retrieve results bandwidth 2.691000 [GByte/s]
[OGL LOG][Proc: 0]p: solve_multi_gpu: 881.498 [ms]
nonehipGKOCG:  Solving for p, Initial residual = 0.769274, Final residual = 4.99477e-05, No Iterations 953
[INFO] SolveP: 897.412 [ms]
time step continuity errors : sum local = 6.53355e-09, global = 6.13251e-22, cumulative = -3.16782e-21
[INFO] ContinuityError: 14.83 [ms]
[INFO] CorrectBoundary: 0.386 [ms]
[INFO] PISOStep: 1086.97 [ms]
[INFO] MatrixAssemblyPI: 100.245 [ms]
[INFO] AdjustPhi: 5.976 [ms]
[INFO] ConstrainPressure: 0.004 [ms]
[INFO] MatrixAssemblyPII: 29.55 [ms]
[OGL LOG][Proc: 0]: global_index_init: 0.043 [ms]
[OGL LOG][Proc: 0]p_local_coeffs: call_update: 0 [ms]
[OGL LOG][Proc: 0]p_non_local_coeffs: call_update: 0 [ms]
[OGL LOG][Proc: 0]p: update_local_matrix_data: 11.546 [ms]
[OGL LOG][Proc: 0]p: update_non_local_matrix_data: 0.108 [ms]
[OGL LOG][Proc: 0]p_matrix: call_update: 10.853 [ms]
[OGL LOG][Proc: 0]p_rhs: call_update: 2.307 [ms]
[OGL LOG][Proc: 0]p: init_precond: 0.052 [ms]
[OGL LOG][StoppingCriterion.H:373] Creating stopping criterion with minIter 571 frequency 11
[OGL LOG][Proc: 0]p: generate_solver: 0.005 [ms]
[OGL LOG][Proc: 0]p: solve: 703.694 [ms]
[OGL LOG][Proc: 0]p: copy_x_back: 2.772 [ms]
[OGL LOG][lduLduBase.H:330] 
Statistics:
	Time per iteration: 925 [mu s]
	Time per residual norm calculation: 272.000000 [mu s]
	Time per iteration and DOF: 0.115625 [ns]
	Retrieve results bandwidth 2.886000 [GByte/s]
[OGL LOG][Proc: 0]p: solve_multi_gpu: 720.96 [ms]
nonehipGKOCG:  Solving for p, Initial residual = 0.706594, Final residual = 9.88424e-05, No Iterations 760
[INFO] SolveP: 736.499 [ms]
time step continuity errors : sum local = 1.23105e-08, global = -1.23503e-21, cumulative = -4.40285e-21
[INFO] ContinuityError: 14.478 [ms]
[INFO] CorrectBoundary: 0.544 [ms]
[INFO] PISOStep: 922.538 [ms]
[INFO] TimeStep: 2975.38 [ms]
ExecutionTime = 22.44 s  ClockTime = 18 s

Time = 0.00125

Courant Number mean: 0.0333806 max: 0.472901
[INFO] MatrixAssemblyU: 78.169 [ms]
DILUPBiCGStab:  Solving for Ux, Initial residual = 0.027093, Final residual = 0.000842221, No Iterations 5
DILUPBiCGStab:  Solving for Uy, Initial residual = 0.0811958, Final residual = 0.00325901, No Iterations 5
DILUPBiCGStab:  Solving for Uz, Initial residual = 0.448023, Final residual = 0.0108882, No Iterations 5
[INFO] MomentumPredictor: 885.968 [ms]
[INFO] MatrixAssemblyPI: 101.95 [ms]
[INFO] AdjustPhi: 7.49 [ms]
[INFO] ConstrainPressure: 0.004 [ms]
[INFO] MatrixAssemblyPII: 29.162 [ms]
[OGL LOG][Proc: 0]: global_index_init: 0.067 [ms]
[OGL LOG][Proc: 0]p_local_coeffs: call_update: 0 [ms]
[OGL LOG][Proc: 0]p_non_local_coeffs: call_update: 0 [ms]
[OGL LOG][Proc: 0]p: update_local_matrix_data: 12.212 [ms]
[OGL LOG][Proc: 0]p: update_non_local_matrix_data: 0.108 [ms]
[OGL LOG][Proc: 0]p_matrix: call_update: 7.546 [ms]
[OGL LOG][Proc: 0]p_rhs: call_update: 3.642 [ms]
[OGL LOG][Proc: 0]p: init_precond: 0.05 [ms]
[OGL LOG][StoppingCriterion.H:373] Creating stopping criterion with minIter 456 frequency 10
[OGL LOG][Proc: 0]p: generate_solver: 0.006 [ms]
[OGL LOG][Proc: 0]p: solve: 698.364 [ms]
[OGL LOG][Proc: 0]p: copy_x_back: 2.831 [ms]
[OGL LOG][lduLduBase.H:330] 
Statistics:
	Time per iteration: 929 [mu s]
	Time per residual norm calculation: 280.000000 [mu s]
	Time per iteration and DOF: 0.116125 [ns]
	Retrieve results bandwidth 2.825000 [GByte/s]
[OGL LOG][Proc: 0]p: solve_multi_gpu: 713.35 [ms]
nonehipGKOCG:  Solving for p, Initial residual = 0.774757, Final residual = 7.82307e-05, No Iterations 751
[INFO] SolveP: 729.571 [ms]
time step continuity errors : sum local = 8.05276e-09, global = -2.37592e-21, cumulative = -6.77877e-21
[INFO] ContinuityError: 16.462 [ms]
[INFO] CorrectBoundary: 0.618 [ms]
[INFO] PISOStep: 921.674 [ms]
[INFO] MatrixAssemblyPI: 99.218 [ms]
[INFO] AdjustPhi: 7.478 [ms]
[INFO] ConstrainPressure: 0.005 [ms]
[INFO] MatrixAssemblyPII: 29.472 [ms]
[OGL LOG][Proc: 0]: global_index_init: 0.119 [ms]
[OGL LOG][Proc: 0]p_local_coeffs: call_update: 0 [ms]
[OGL LOG][Proc: 0]p_non_local_coeffs: call_update: 0 [ms]
[OGL LOG][Proc: 0]p: update_local_matrix_data: 11.544 [ms]
[OGL LOG][Proc: 0]p: update_non_local_matrix_data: 0.105 [ms]
[OGL LOG][Proc: 0]p_matrix: call_update: 10.14 [ms]
[OGL LOG][Proc: 0]p_rhs: call_update: 1.629 [ms]
[OGL LOG][Proc: 0]p: init_precond: 0.052 [ms]
[OGL LOG][StoppingCriterion.H:373] Creating stopping criterion with minIter 450 frequency 10
[OGL LOG][Proc: 0]p: generate_solver: 0.004 [ms]
[OGL LOG][Proc: 0]p: solve: 696.448 [ms]
[OGL LOG][Proc: 0]p: copy_x_back: 2.69 [ms]
[OGL LOG][lduLduBase.H:330] 
Statistics:
	Time per iteration: 927 [mu s]
	Time per residual norm calculation: 275.000000 [mu s]
	Time per iteration and DOF: 0.115875 [ns]
	Retrieve results bandwidth 2.973000 [GByte/s]
[OGL LOG][Proc: 0]p: solve_multi_gpu: 711.963 [ms]
nonehipGKOCG:  Solving for p, Initial residual = 0.723571, Final residual = 7.5007e-05, No Iterations 751
[INFO] SolveP: 727.58 [ms]
time step continuity errors : sum local = 7.4935e-09, global = 3.07091e-23, cumulative = -6.74806e-21
[INFO] ContinuityError: 14.457 [ms]
[INFO] CorrectBoundary: 0.676 [ms]
[INFO] PISOStep: 914.051 [ms]
[INFO] TimeStep: 2813.09 [ms]
ExecutionTime = 25.79 s  ClockTime = 21 s

Time = 0.0015

Courant Number mean: 0.036686 max: 0.475571
[INFO] MatrixAssemblyU: 78.274 [ms]
DILUPBiCGStab:  Solving for Ux, Initial residual = 0.0203799, Final residual = 0.000603364, No Iterations 5
DILUPBiCGStab:  Solving for Uy, Initial residual = 0.0656709, Final residual = 0.00224178, No Iterations 5
DILUPBiCGStab:  Solving for Uz, Initial residual = 0.325518, Final residual = 0.00776725, No Iterations 5
[INFO] MomentumPredictor: 873.786 [ms]
[INFO] MatrixAssemblyPI: 102.095 [ms]
[INFO] AdjustPhi: 6.536 [ms]
[INFO] ConstrainPressure: 0.005 [ms]
[INFO] MatrixAssemblyPII: 29.998 [ms]
[OGL LOG][Proc: 0]: global_index_init: 0.158 [ms]
[OGL LOG][Proc: 0]p_local_coeffs: call_update: 0 [ms]
[OGL LOG][Proc: 0]p_non_local_coeffs: call_update: 0 [ms]
[OGL LOG][Proc: 0]p: update_local_matrix_data: 11.518 [ms]
[OGL LOG][Proc: 0]p: update_non_local_matrix_data: 0.108 [ms]
[OGL LOG][Proc: 0]p_matrix: call_update: 11.368 [ms]
[OGL LOG][Proc: 0]p_rhs: call_update: 1.047 [ms]
[OGL LOG][Proc: 0]p: init_precond: 0.053 [ms]
[OGL LOG][StoppingCriterion.H:373] Creating stopping criterion with minIter 450 frequency 10
[OGL LOG][Proc: 0]p: generate_solver: 0.005 [ms]
[OGL LOG][Proc: 0]p: solve: 690.899 [ms]
[OGL LOG][Proc: 0]p: copy_x_back: 2.771 [ms]
[OGL LOG][lduLduBase.H:330] 
Statistics:
	Time per iteration: 919 [mu s]
	Time per residual norm calculation: 276.000000 [mu s]
	Time per iteration and DOF: 0.114875 [ns]
	Retrieve results bandwidth 2.887000 [GByte/s]
[OGL LOG][Proc: 0]p: solve_multi_gpu: 708.241 [ms]
nonehipGKOCG:  Solving for p, Initial residual = 0.681234, Final residual = 9.14653e-05, No Iterations 751
[INFO] SolveP: 723.548 [ms]
time step continuity errors : sum local = 9.4953e-09, global = 5.01065e-22, cumulative = -6.247e-21
[INFO] ContinuityError: 14.412 [ms]
[INFO] CorrectBoundary: 0.706 [ms]
[INFO] PISOStep: 912.12 [ms]
[INFO] MatrixAssemblyPI: 99.814 [ms]
[INFO] AdjustPhi: 5.592 [ms]
[INFO] ConstrainPressure: 0.005 [ms]
[INFO] MatrixAssemblyPII: 29.797 [ms]
[OGL LOG][Proc: 0]: global_index_init: 0.209 [ms]
[OGL LOG][Proc: 0]p_local_coeffs: call_update: 0 [ms]
[OGL LOG][Proc: 0]p_non_local_coeffs: call_update: 0 [ms]
[OGL LOG][Proc: 0]p: update_local_matrix_data: 11.686 [ms]
[OGL LOG][Proc: 0]p: update_non_local_matrix_data: 0.113 [ms]
[OGL LOG][Proc: 0]p_matrix: call_update: 9.49 [ms]
[OGL LOG][Proc: 0]p_rhs: call_update: 3.327 [ms]
[OGL LOG][Proc: 0]p: init_precond: 0.055 [ms]
[OGL LOG][StoppingCriterion.H:373] Creating stopping criterion with minIter 450 frequency 10
[OGL LOG][Proc: 0]p: generate_solver: 0.006 [ms]
[OGL LOG][Proc: 0]p: solve: 687.859 [ms]
[OGL LOG][Proc: 0]p: copy_x_back: 2.759 [ms]
[OGL LOG][lduLduBase.H:330] 
Statistics:
	Time per iteration: 928 [mu s]
	Time per residual norm calculation: 272.000000 [mu s]
	Time per iteration and DOF: 0.116000 [ns]
	Retrieve results bandwidth 2.899000 [GByte/s]
[OGL LOG][Proc: 0]p: solve_multi_gpu: 704.546 [ms]
nonehipGKOCG:  Solving for p, Initial residual = 0.620467, Final residual = 9.2639e-05, No Iterations 741
[INFO] SolveP: 720.069 [ms]
time step continuity errors : sum local = 8.93049e-09, global = -1.19398e-21, cumulative = -7.44098e-21
[INFO] ContinuityError: 17.624 [ms]
[INFO] CorrectBoundary: 1.145 [ms]
[INFO] PISOStep: 908.477 [ms]
[INFO] TimeStep: 2786.58 [ms]
ExecutionTime = 29.11 s  ClockTime = 24 s

Time = 0.00175

Courant Number mean: 0.039604 max: 0.477516
[INFO] MatrixAssemblyU: 79.205 [ms]
DILUPBiCGStab:  Solving for Ux, Initial residual = 0.017394, Final residual = 0.000478467, No Iterations 5
DILUPBiCGStab:  Solving for Uy, Initial residual = 0.0488528, Final residual = 0.00163362, No Iterations 5
DILUPBiCGStab:  Solving for Uz, Initial residual = 0.252153, Final residual = 0.00727253, No Iterations 5
[INFO] MomentumPredictor: 871.47 [ms]
[INFO] MatrixAssemblyPI: 101.704 [ms]
[INFO] AdjustPhi: 6.083 [ms]
[INFO] ConstrainPressure: 0.004 [ms]
[INFO] MatrixAssemblyPII: 29.314 [ms]
[OGL LOG][Proc: 0]: global_index_init: 0.079 [ms]
[OGL LOG][Proc: 0]p_local_coeffs: call_update: 0 [ms]
[OGL LOG][Proc: 0]p_non_local_coeffs: call_update: 0 [ms]
[OGL LOG][Proc: 0]p: update_local_matrix_data: 12.119 [ms]
[OGL LOG][Proc: 0]p: update_non_local_matrix_data: 0.103 [ms]
[OGL LOG][Proc: 0]p_matrix: call_update: 15.647 [ms]
[OGL LOG][Proc: 0]p_rhs: call_update: 1.595 [ms]
[OGL LOG][Proc: 0]p: init_precond: 0.052 [ms]
[OGL LOG][StoppingCriterion.H:373] Creating stopping criterion with minIter 444 frequency 9
[OGL LOG][Proc: 0]p: generate_solver: 0.005 [ms]
[OGL LOG][Proc: 0]p: solve: 1390.69 [ms]
[OGL LOG][Proc: 0]p: copy_x_back: 2.77 [ms]
[OGL LOG][lduLduBase.H:330] 
Statistics:
	Time per iteration: 913 [mu s]
	Time per residual norm calculation: 274.000000 [mu s]
	Time per iteration and DOF: 0.114125 [ns]
	Retrieve results bandwidth 2.888000 [GByte/s]
[OGL LOG][Proc: 0]p: solve_multi_gpu: 1411.9 [ms]
nonehipGKOCG:  Solving for p, Initial residual = 0.677115, Final residual = 8.32528e-05, No Iterations 1522
[INFO] SolveP: 1427.8 [ms]
time step continuity errors : sum local = 6.43674e-09, global = -8.03528e-23, cumulative = -7.52133e-21
[INFO] ContinuityError: 17.088 [ms]
[INFO] CorrectBoundary: 0.8 [ms]
[INFO] PISOStep: 1617.48 [ms]
[INFO] MatrixAssemblyPI: 103.008 [ms]
[INFO] AdjustPhi: 7.223 [ms]
[INFO] ConstrainPressure: 0.004 [ms]
[INFO] MatrixAssemblyPII: 29.331 [ms]
[OGL LOG][Proc: 0]: global_index_init: 0.193 [ms]
[OGL LOG][Proc: 0]p_local_coeffs: call_update: 0 [ms]
[OGL LOG][Proc: 0]p_non_local_coeffs: call_update: 0 [ms]
[OGL LOG][Proc: 0]p: update_local_matrix_data: 11.576 [ms]
[OGL LOG][Proc: 0]p: update_non_local_matrix_data: 0.114 [ms]
[OGL LOG][Proc: 0]p_matrix: call_update: 14.659 [ms]
[OGL LOG][Proc: 0]p_rhs: call_update: 1.655 [ms]
[OGL LOG][Proc: 0]p: init_precond: 0.05 [ms]
[OGL LOG][StoppingCriterion.H:373] Creating stopping criterion with minIter 913 frequency 14
[OGL LOG][Proc: 0]p: generate_solver: 0.005 [ms]
[OGL LOG][Proc: 0]p: solve: 1352.53 [ms]
[OGL LOG][Proc: 0]p: copy_x_back: 2.989 [ms]
[OGL LOG][lduLduBase.H:330] 
Statistics:
	Time per iteration: 893 [mu s]
	Time per residual norm calculation: 275.000000 [mu s]
	Time per iteration and DOF: 0.111625 [ns]
	Retrieve results bandwidth 2.676000 [GByte/s]
[OGL LOG][Proc: 0]p: solve_multi_gpu: 1373.01 [ms]
nonehipGKOCG:  Solving for p, Initial residual = 0.617264, Final residual = 9.85676e-05, No Iterations 1513
[INFO] SolveP: 1388.41 [ms]
time step continuity errors : sum local = 7.58135e-09, global = -1.83867e-22, cumulative = -7.7052e-21
[INFO] ContinuityError: 15.129 [ms]
[INFO] CorrectBoundary: 0.878 [ms]
[INFO] PISOStep: 1579.57 [ms]
[INFO] TimeStep: 4161.44 [ms]
ExecutionTime = 34.37 s  ClockTime = 28 s

Time = 0.002

Courant Number mean: 0.0421308 max: 0.47922
[INFO] MatrixAssemblyU: 78.248 [ms]
DILUPBiCGStab:  Solving for Ux, Initial residual = 0.0142545, Final residual = 0.000366421, No Iterations 5
DILUPBiCGStab:  Solving for Uy, Initial residual = 0.0416182, Final residual = 0.00126876, No Iterations 5
DILUPBiCGStab:  Solving for Uz, Initial residual = 0.196379, Final residual = 0.00547705, No Iterations 5
[INFO] MomentumPredictor: 866.144 [ms]
[INFO] MatrixAssemblyPI: 101.649 [ms]
[INFO] AdjustPhi: 6.523 [ms]
[INFO] ConstrainPressure: 0.004 [ms]
[INFO] MatrixAssemblyPII: 29.247 [ms]
[OGL LOG][Proc: 0]: global_index_init: 0.252 [ms]
[OGL LOG][Proc: 0]p_local_coeffs: call_update: 0 [ms]
[OGL LOG][Proc: 0]p_non_local_coeffs: call_update: 0 [ms]
[OGL LOG][Proc: 0]p: update_local_matrix_data: 11.572 [ms]
[OGL LOG][Proc: 0]p: update_non_local_matrix_data: 0.106 [ms]
[OGL LOG][Proc: 0]p_matrix: call_update: 8.581 [ms]
[OGL LOG][Proc: 0]p_rhs: call_update: 4.182 [ms]
[OGL LOG][Proc: 0]p: init_precond: 0.051 [ms]
[OGL LOG][StoppingCriterion.H:373] Creating stopping criterion with minIter 907 frequency 14
[OGL LOG][Proc: 0]p: generate_solver: 0.004 [ms]
[OGL LOG][Proc: 0]p: solve: 1375.85 [ms]
[OGL LOG][Proc: 0]p: copy_x_back: 2.979 [ms]
[OGL LOG][lduLduBase.H:330] 
Statistics:
	Time per iteration: 901 [mu s]
	Time per residual norm calculation: 275.000000 [mu s]
	Time per iteration and DOF: 0.112625 [ns]
	Retrieve results bandwidth 2.685000 [GByte/s]
[OGL LOG][Proc: 0]p: solve_multi_gpu: 1392.93 [ms]
nonehipGKOCG:  Solving for p, Initial residual = 0.585911, Final residual = 8.49438e-05, No Iterations 1527
[INFO] SolveP: 1408.94 [ms]
time step continuity errors : sum local = 6.2519e-09, global = -3.22864e-21, cumulative = -1.09338e-20
[INFO] ContinuityError: 14.301 [ms]
[INFO] CorrectBoundary: 0.407 [ms]
[INFO] PISOStep: 1596.73 [ms]
[INFO] MatrixAssemblyPI: 101.436 [ms]
[INFO] AdjustPhi: 5.815 [ms]
[INFO] ConstrainPressure: 0.005 [ms]
[INFO] MatrixAssemblyPII: 29.871 [ms]
[OGL LOG][Proc: 0]: global_index_init: 0.053 [ms]
[OGL LOG][Proc: 0]p_local_coeffs: call_update: 0 [ms]
[OGL LOG][Proc: 0]p_non_local_coeffs: call_update: 0 [ms]
[OGL LOG][Proc: 0]p: update_local_matrix_data: 11.488 [ms]
[OGL LOG][Proc: 0]p: update_non_local_matrix_data: 0.109 [ms]
[OGL LOG][Proc: 0]p_matrix: call_update: 9.008 [ms]
[OGL LOG][Proc: 0]p_rhs: call_update: 4.068 [ms]
[OGL LOG][Proc: 0]p: init_precond: 0.053 [ms]
[OGL LOG][StoppingCriterion.H:373] Creating stopping criterion with minIter 916 frequency 14
[OGL LOG][Proc: 0]p: generate_solver: 0.005 [ms]
[OGL LOG][Proc: 0]p: solve: 1352.5 [ms]
[OGL LOG][Proc: 0]p: copy_x_back: 2.762 [ms]
[OGL LOG][lduLduBase.H:330] 
Statistics:
	Time per iteration: 885 [mu s]
	Time per residual norm calculation: 273.000000 [mu s]
	Time per iteration and DOF: 0.110625 [ns]
	Retrieve results bandwidth 2.896000 [GByte/s]
[OGL LOG][Proc: 0]p: solve_multi_gpu: 1369.62 [ms]
nonehipGKOCG:  Solving for p, Initial residual = 0.528068, Final residual = 8.04185e-05, No Iterations 1527
[INFO] SolveP: 1384.94 [ms]
time step continuity errors : sum local = 5.90483e-09, global = 1.09237e-21, cumulative = -9.84147e-21
[INFO] ContinuityError: 14.204 [ms]
[INFO] CorrectBoundary: 0.653 [ms]
[INFO] PISOStep: 1571.81 [ms]
[INFO] TimeStep: 4127.39 [ms]
ExecutionTime = 39.59 s  ClockTime = 32 s

Time = 0.00225

Courant Number mean: 0.0444171 max: 0.48037
[INFO] MatrixAssemblyU: 79.14 [ms]
DILUPBiCGStab:  Solving for Ux, Initial residual = 0.0125406, Final residual = 0.00030139, No Iterations 5
DILUPBiCGStab:  Solving for Uy, Initial residual = 0.0334827, Final residual = 0.000894089, No Iterations 5
DILUPBiCGStab:  Solving for Uz, Initial residual = 0.158179, Final residual = 0.0051794, No Iterations 5
[INFO] MomentumPredictor: 868.129 [ms]
[INFO] MatrixAssemblyPI: 101.668 [ms]
[INFO] AdjustPhi: 9.241 [ms]
[INFO] ConstrainPressure: 0.004 [ms]
[INFO] MatrixAssemblyPII: 29.33 [ms]
[OGL LOG][Proc: 0]: global_index_init: 0.224 [ms]
[OGL LOG][Proc: 0]p_local_coeffs: call_update: 0 [ms]
[OGL LOG][Proc: 0]p_non_local_coeffs: call_update: 0 [ms]
[OGL LOG][Proc: 0]p: update_local_matrix_data: 12.113 [ms]
[OGL LOG][Proc: 0]p: update_non_local_matrix_data: 0.105 [ms]
[OGL LOG][Proc: 0]p_matrix: call_update: 8.638 [ms]
[OGL LOG][Proc: 0]p_rhs: call_update: 5.719 [ms]
[OGL LOG][Proc: 0]p: init_precond: 0.053 [ms]
[OGL LOG][StoppingCriterion.H:373] Creating stopping criterion with minIter 916 frequency 14
[OGL LOG][Proc: 0]p: generate_solver: 0.006 [ms]
[OGL LOG][Proc: 0]p: solve: 1328.03 [ms]
[OGL LOG][Proc: 0]p: copy_x_back: 3.002 [ms]
[OGL LOG][lduLduBase.H:330] 
Statistics:
	Time per iteration: 885 [mu s]
	Time per residual norm calculation: 273.000000 [mu s]
	Time per iteration and DOF: 0.110625 [ns]
	Retrieve results bandwidth 2.664000 [GByte/s]
[OGL LOG][Proc: 0]p: solve_multi_gpu: 1346.37 [ms]
nonehipGKOCG:  Solving for p, Initial residual = 0.572866, Final residual = 9.97143e-05, No Iterations 1499
[INFO] SolveP: 1362.32 [ms]
time step continuity errors : sum local = 6.36035e-09, global = -2.86934e-21, cumulative = -1.27108e-20
[INFO] ContinuityError: 15.282 [ms]
[INFO] CorrectBoundary: 0.766 [ms]
[INFO] PISOStep: 1557.1 [ms]
[INFO] MatrixAssemblyPI: 103.76 [ms]
[INFO] AdjustPhi: 5.513 [ms]
[INFO] ConstrainPressure: 0.004 [ms]
[INFO] MatrixAssemblyPII: 29.193 [ms]
[OGL LOG][Proc: 0]: global_index_init: 0.195 [ms]
[OGL LOG][Proc: 0]p_local_coeffs: call_update: 0 [ms]
[OGL LOG][Proc: 0]p_non_local_coeffs: call_update: 0 [ms]
[OGL LOG][Proc: 0]p: update_local_matrix_data: 11.551 [ms]
[OGL LOG][Proc: 0]p: update_non_local_matrix_data: 0.106 [ms]
[OGL LOG][Proc: 0]p_matrix: call_update: 11.356 [ms]
[OGL LOG][Proc: 0]p_rhs: call_update: 1.215 [ms]
[OGL LOG][Proc: 0]p: init_precond: 0.053 [ms]
[OGL LOG][StoppingCriterion.H:373] Creating stopping criterion with minIter 899 frequency 14
[OGL LOG][Proc: 0]p: generate_solver: 0.006 [ms]
[OGL LOG][Proc: 0]p: solve: 1324.4 [ms]
[OGL LOG][Proc: 0]p: copy_x_back: 2.815 [ms]
[OGL LOG][lduLduBase.H:330] 
Statistics:
	Time per iteration: 883 [mu s]
	Time per residual norm calculation: 281.000000 [mu s]
	Time per iteration and DOF: 0.110375 [ns]
	Retrieve results bandwidth 2.841000 [GByte/s]
[OGL LOG][Proc: 0]p: solve_multi_gpu: 1340.79 [ms]
nonehipGKOCG:  Solving for p, Initial residual = 0.511762, Final residual = 9.50672e-05, No Iterations 1499
[INFO] SolveP: 1356.4 [ms]
time step continuity errors : sum local = 6.06207e-09, global = -1.72068e-21, cumulative = -1.44315e-20
[INFO] ContinuityError: 15.038 [ms]
[INFO] CorrectBoundary: 0.958 [ms]
[INFO] PISOStep: 1546.02 [ms]
[INFO] TimeStep: 4063.96 [ms]
ExecutionTime = 44.74 s  ClockTime = 36 s

Time = 0.0025

Courant Number mean: 0.0464716 max: 0.481474
[INFO] MatrixAssemblyU: 80.775 [ms]
DILUPBiCGStab:  Solving for Ux, Initial residual = 0.0107878, Final residual = 0.000242427, No Iterations 5
DILUPBiCGStab:  Solving for Uy, Initial residual = 0.029347, Final residual = 0.000733667, No Iterations 5
DILUPBiCGStab:  Solving for Uz, Initial residual = 0.127459, Final residual = 0.00417889, No Iterations 5
[INFO] MomentumPredictor: 869.957 [ms]
[INFO] MatrixAssemblyPI: 101.561 [ms]
[INFO] AdjustPhi: 6.827 [ms]
[INFO] ConstrainPressure: 0.004 [ms]
[INFO] MatrixAssemblyPII: 29.284 [ms]
[OGL LOG][Proc: 0]: global_index_init: 0.033 [ms]
[OGL LOG][Proc: 0]p_local_coeffs: call_update: 0 [ms]
[OGL LOG][Proc: 0]p_non_local_coeffs: call_update: 0 [ms]
[OGL LOG][Proc: 0]p: update_local_matrix_data: 11.504 [ms]
[OGL LOG][Proc: 0]p: update_non_local_matrix_data: 0.104 [ms]
[OGL LOG][Proc: 0]p_matrix: call_update: 11.547 [ms]
[OGL LOG][Proc: 0]p_rhs: call_update: 1.8 [ms]
[OGL LOG][Proc: 0]p: init_precond: 0.052 [ms]
[OGL LOG][StoppingCriterion.H:373] Creating stopping criterion with minIter 899 frequency 14
[OGL LOG][Proc: 0]p: generate_solver: 0.006 [ms]
[OGL LOG][Proc: 0]p: solve: 1346.57 [ms]
[OGL LOG][Proc: 0]p: copy_x_back: 3.288 [ms]
[OGL LOG][lduLduBase.H:330] 
Statistics:
	Time per iteration: 898 [mu s]
	Time per residual norm calculation: 273.000000 [mu s]
	Time per iteration and DOF: 0.112250 [ns]
	Retrieve results bandwidth 2.433000 [GByte/s]
[OGL LOG][Proc: 0]p: solve_multi_gpu: 1364.8 [ms]
nonehipGKOCG:  Solving for p, Initial residual = 0.496114, Final residual = 9.33072e-05, No Iterations 1499
[INFO] SolveP: 1380.26 [ms]
time step continuity errors : sum local = 5.77809e-09, global = -3.69985e-21, cumulative = -1.81313e-20
[INFO] ContinuityError: 14.58 [ms]
[INFO] CorrectBoundary: 1.141 [ms]
[INFO] PISOStep: 1568.66 [ms]
[INFO] MatrixAssemblyPI: 99.964 [ms]
[INFO] AdjustPhi: 7.139 [ms]
[INFO] ConstrainPressure: 0.005 [ms]
[INFO] MatrixAssemblyPII: 29.589 [ms]
[OGL LOG][Proc: 0]: global_index_init: 0.041 [ms]
[OGL LOG][Proc: 0]p_local_coeffs: call_update: 0 [ms]
[OGL LOG][Proc: 0]p_non_local_coeffs: call_update: 0 [ms]
[OGL LOG][Proc: 0]p: update_local_matrix_data: 11.493 [ms]
[OGL LOG][Proc: 0]p: update_non_local_matrix_data: 0.11 [ms]
[OGL LOG][Proc: 0]p_matrix: call_update: 9.373 [ms]
[OGL LOG][Proc: 0]p_rhs: call_update: 3.358 [ms]
[OGL LOG][Proc: 0]p: init_precond: 0.052 [ms]
[OGL LOG][StoppingCriterion.H:373] Creating stopping criterion with minIter 899 frequency 14
[OGL LOG][Proc: 0]p: generate_solver: 0.006 [ms]
[OGL LOG][Proc: 0]p: solve: 1334.98 [ms]
[OGL LOG][Proc: 0]p: copy_x_back: 2.758 [ms]
[OGL LOG][lduLduBase.H:330] 
Statistics:
	Time per iteration: 890 [mu s]
	Time per residual norm calculation: 275.000000 [mu s]
	Time per iteration and DOF: 0.111250 [ns]
	Retrieve results bandwidth 2.900000 [GByte/s]
[OGL LOG][Proc: 0]p: solve_multi_gpu: 1351.54 [ms]
nonehipGKOCG:  Solving for p, Initial residual = 0.443166, Final residual = 9.65599e-05, No Iterations 1499
[INFO] SolveP: 1367.21 [ms]
time step continuity errors : sum local = 5.95366e-09, global = -3.0203e-21, cumulative = -2.11516e-20
[INFO] ContinuityError: 15.233 [ms]
[INFO] CorrectBoundary: 1.091 [ms]
[INFO] PISOStep: 1555.3 [ms]
[INFO] TimeStep: 4088.21 [ms]
ExecutionTime = 49.91 s  ClockTime = 40 s

Time = 0.00275

Courant Number mean: 0.0483595 max: 0.482248
[INFO] MatrixAssemblyU: 79.053 [ms]
DILUPBiCGStab:  Solving for Ux, Initial residual = 0.00966543, Final residual = 0.000204479, No Iterations 5
DILUPBiCGStab:  Solving for Uy, Initial residual = 0.0248266, Final residual = 0.000528844, No Iterations 5
DILUPBiCGStab:  Solving for Uz, Initial residual = 0.106716, Final residual = 0.00397909, No Iterations 5
[INFO] MomentumPredictor: 875.614 [ms]
[INFO] MatrixAssemblyPI: 102.038 [ms]
[INFO] AdjustPhi: 8.989 [ms]
[INFO] ConstrainPressure: 0.004 [ms]
[INFO] MatrixAssemblyPII: 29.402 [ms]
[OGL LOG][Proc: 0]: global_index_init: 0.115 [ms]
[OGL LOG][Proc: 0]p_local_coeffs: call_update: 0 [ms]
[OGL LOG][Proc: 0]p_non_local_coeffs: call_update: 0 [ms]
[OGL LOG][Proc: 0]p: update_local_matrix_data: 12.024 [ms]
[OGL LOG][Proc: 0]p: update_non_local_matrix_data: 0.115 [ms]
[OGL LOG][Proc: 0]p_matrix: call_update: 8.187 [ms]
[OGL LOG][Proc: 0]p_rhs: call_update: 6.403 [ms]
[OGL LOG][Proc: 0]p: init_precond: 0.052 [ms]
[OGL LOG][StoppingCriterion.H:373] Creating stopping criterion with minIter 899 frequency 14
[OGL LOG][Proc: 0]p: generate_solver: 0.005 [ms]
[OGL LOG][Proc: 0]p: solve: 1336.92 [ms]
[OGL LOG][Proc: 0]p: copy_x_back: 2.772 [ms]
[OGL LOG][lduLduBase.H:330] 
Statistics:
	Time per iteration: 891 [mu s]
	Time per residual norm calculation: 269.000000 [mu s]
	Time per iteration and DOF: 0.111375 [ns]
	Retrieve results bandwidth 2.886000 [GByte/s]
[OGL LOG][Proc: 0]p: solve_multi_gpu: 1355.27 [ms]
nonehipGKOCG:  Solving for p, Initial residual = 0.471683, Final residual = 6.85297e-05, No Iterations 1499
[INFO] SolveP: 1371.33 [ms]
time step continuity errors : sum local = 3.83574e-09, global = -4.81261e-21, cumulative = -2.59642e-20
[INFO] ContinuityError: 14.303 [ms]
[INFO] CorrectBoundary: 0.677 [ms]
[INFO] PISOStep: 1562.27 [ms]
[INFO] MatrixAssemblyPI: 99.724 [ms]
[INFO] AdjustPhi: 6.733 [ms]
[INFO] ConstrainPressure: 0.004 [ms]
[INFO] MatrixAssemblyPII: 29.148 [ms]
[OGL LOG][Proc: 0]: global_index_init: 0.123 [ms]
[OGL LOG][Proc: 0]p_local_coeffs: call_update: 0 [ms]
[OGL LOG][Proc: 0]p_non_local_coeffs: call_update: 0 [ms]
[OGL LOG][Proc: 0]p: update_local_matrix_data: 11.603 [ms]
[OGL LOG][Proc: 0]p: update_non_local_matrix_data: 0.107 [ms]
[OGL LOG][Proc: 0]p_matrix: call_update: 18.392 [ms]
[OGL LOG][Proc: 0]p_rhs: call_update: 5.631 [ms]
[OGL LOG][Proc: 0]p: init_precond: 0.055 [ms]
[OGL LOG][StoppingCriterion.H:373] Creating stopping criterion with minIter 899 frequency 14
[OGL LOG][Proc: 0]p: generate_solver: 0.005 [ms]
[OGL LOG][Proc: 0]p: solve: 1336.83 [ms]
[OGL LOG][Proc: 0]p: copy_x_back: 2.786 [ms]
[OGL LOG][lduLduBase.H:330] 
Statistics:
	Time per iteration: 900 [mu s]
	Time per residual norm calculation: 276.000000 [mu s]
	Time per iteration and DOF: 0.112500 [ns]
	Retrieve results bandwidth 2.871000 [GByte/s]
[OGL LOG][Proc: 0]p: solve_multi_gpu: 1365.33 [ms]
nonehipGKOCG:  Solving for p, Initial residual = 0.416944, Final residual = 9.46163e-05, No Iterations 1485
[INFO] SolveP: 1380.88 [ms]
time step continuity errors : sum local = 5.30157e-09, global = -2.24579e-21, cumulative = -2.821e-20
[INFO] ContinuityError: 13.896 [ms]
[INFO] CorrectBoundary: 0.544 [ms]
[INFO] PISOStep: 1567.6 [ms]
[INFO] TimeStep: 4098.29 [ms]
ExecutionTime = 55.09 s  ClockTime = 44 s

Time = 0.003

Courant Number mean: 0.0500919 max: 0.483038
[INFO] MatrixAssemblyU: 78.318 [ms]
DILUPBiCGStab:  Solving for Ux, Initial residual = 0.00857559, Final residual = 0.000170895, No Iterations 5
DILUPBiCGStab:  Solving for Uy, Initial residual = 0.0221852, Final residual = 0.000438774, No Iterations 5
DILUPBiCGStab:  Solving for Uz, Initial residual = 0.0889789, Final residual = 0.00332622, No Iterations 5
[INFO] MomentumPredictor: 871.452 [ms]
[INFO] MatrixAssemblyPI: 101.941 [ms]
[INFO] AdjustPhi: 7.122 [ms]
[INFO] ConstrainPressure: 0.005 [ms]
[INFO] MatrixAssemblyPII: 29.501 [ms]
[OGL LOG][Proc: 0]: global_index_init: 0.214 [ms]
[OGL LOG][Proc: 0]p_local_coeffs: call_update: 0 [ms]
[OGL LOG][Proc: 0]p_non_local_coeffs: call_update: 0 [ms]
[OGL LOG][Proc: 0]p: update_local_matrix_data: 11.567 [ms]
[OGL LOG][Proc: 0]p: update_non_local_matrix_data: 0.108 [ms]
[OGL LOG][Proc: 0]p_matrix: call_update: 12.437 [ms]
[OGL LOG][Proc: 0]p_rhs: call_update: 6.493 [ms]
[OGL LOG][Proc: 0]p: init_precond: 0.05 [ms]
[OGL LOG][StoppingCriterion.H:373] Creating stopping criterion with minIter 891 frequency 14
[OGL LOG][Proc: 0]p: generate_solver: 0.005 [ms]
[OGL LOG][Proc: 0]p: solve: 1328.89 [ms]
[OGL LOG][Proc: 0]p: copy_x_back: 2.778 [ms]
[OGL LOG][lduLduBase.H:330] 
Statistics:
	Time per iteration: 894 [mu s]
	Time per residual norm calculation: 279.000000 [mu s]
	Time per iteration and DOF: 0.111750 [ns]
	Retrieve results bandwidth 2.879000 [GByte/s]
[OGL LOG][Proc: 0]p: solve_multi_gpu: 1351.95 [ms]
nonehipGKOCG:  Solving for p, Initial residual = 0.414443, Final residual = 9.59117e-05, No Iterations 1485
[INFO] SolveP: 1367.43 [ms]
time step continuity errors : sum local = 5.21635e-09, global = -5.18285e-21, cumulative = -3.33929e-20
[INFO] ContinuityError: 14.917 [ms]
[INFO] CorrectBoundary: 0.767 [ms]
[INFO] PISOStep: 1556.81 [ms]
[INFO] MatrixAssemblyPI: 100.18 [ms]
[INFO] AdjustPhi: 6.206 [ms]
[INFO] ConstrainPressure: 0.005 [ms]
[INFO] MatrixAssemblyPII: 29.676 [ms]
[OGL LOG][Proc: 0]: global_index_init: 0.073 [ms]
[OGL LOG][Proc: 0]p_local_coeffs: call_update: 0 [ms]
[OGL LOG][Proc: 0]p_non_local_coeffs: call_update: 0 [ms]
[OGL LOG][Proc: 0]p: update_local_matrix_data: 11.422 [ms]
[OGL LOG][Proc: 0]p: update_non_local_matrix_data: 0.107 [ms]
[OGL LOG][Proc: 0]p_matrix: call_update: 9.037 [ms]
[OGL LOG][Proc: 0]p_rhs: call_update: 4.435 [ms]
[OGL LOG][Proc: 0]p: init_precond: 0.064 [ms]
[OGL LOG][StoppingCriterion.H:373] Creating stopping criterion with minIter 891 frequency 14
[OGL LOG][Proc: 0]p: generate_solver: 0.006 [ms]
[OGL LOG][Proc: 0]p: solve: 1337.66 [ms]
[OGL LOG][Proc: 0]p: copy_x_back: 2.776 [ms]
[OGL LOG][lduLduBase.H:330] 
Statistics:
	Time per iteration: 900 [mu s]
	Time per residual norm calculation: 272.000000 [mu s]
	Time per iteration and DOF: 0.112500 [ns]
	Retrieve results bandwidth 2.881000 [GByte/s]
[OGL LOG][Proc: 0]p: solve_multi_gpu: 1355.22 [ms]
nonehipGKOCG:  Solving for p, Initial residual = 0.367564, Final residual = 9.53354e-05, No Iterations 1485
[INFO] SolveP: 1370.43 [ms]
time step continuity errors : sum local = 5.16168e-09, global = -3.91841e-21, cumulative = -3.73113e-20
[INFO] ContinuityError: 15.125 [ms]
[INFO] CorrectBoundary: 0.976 [ms]
[INFO] PISOStep: 1557.73 [ms]
[INFO] TimeStep: 4077.98 [ms]
ExecutionTime = 60.25 s  ClockTime = 48 s

Time = 0.00325

Courant Number mean: 0.051701 max: 0.483603
[INFO] MatrixAssemblyU: 78.337 [ms]
DILUPBiCGStab:  Solving for Ux, Initial residual = 0.00778578, Final residual = 0.000146896, No Iterations 5
DILUPBiCGStab:  Solving for Uy, Initial residual = 0.0194166, Final residual = 0.000338948, No Iterations 5
DILUPBiCGStab:  Solving for Uz, Initial residual = 0.076077, Final residual = 0.0031176, No Iterations 5
[INFO] MomentumPredictor: 866.64 [ms]
[INFO] MatrixAssemblyPI: 101.557 [ms]
[INFO] AdjustPhi: 6.643 [ms]
[INFO] ConstrainPressure: 0.005 [ms]
[INFO] MatrixAssemblyPII: 29.303 [ms]
[OGL LOG][Proc: 0]: global_index_init: 0.07 [ms]
[OGL LOG][Proc: 0]p_local_coeffs: call_update: 0 [ms]
[OGL LOG][Proc: 0]p_non_local_coeffs: call_update: 0 [ms]
[OGL LOG][Proc: 0]p: update_local_matrix_data: 11.656 [ms]
[OGL LOG][Proc: 0]p: update_non_local_matrix_data: 0.109 [ms]
[OGL LOG][Proc: 0]p_matrix: call_update: 9.635 [ms]
[OGL LOG][Proc: 0]p_rhs: call_update: 3.177 [ms]
[OGL LOG][Proc: 0]p: init_precond: 0.05 [ms]
[OGL LOG][StoppingCriterion.H:373] Creating stopping criterion with minIter 891 frequency 14
[OGL LOG][Proc: 0]p: generate_solver: 0.005 [ms]
[OGL LOG][Proc: 0]p: solve: 1324.8 [ms]
[OGL LOG][Proc: 0]p: copy_x_back: 2.804 [ms]
[OGL LOG][lduLduBase.H:330] 
Statistics:
	Time per iteration: 892 [mu s]
	Time per residual norm calculation: 275.000000 [mu s]
	Time per iteration and DOF: 0.111500 [ns]
	Retrieve results bandwidth 2.853000 [GByte/s]
[OGL LOG][Proc: 0]p: solve_multi_gpu: 1341.81 [ms]
nonehipGKOCG:  Solving for p, Initial residual = 0.383759, Final residual = 9.278e-05, No Iterations 1485
[INFO] SolveP: 1357.56 [ms]
time step continuity errors : sum local = 4.71851e-09, global = -2.22322e-21, cumulative = -3.95345e-20
[INFO] ContinuityError: 14.566 [ms]
[INFO] CorrectBoundary: 0.504 [ms]
[INFO] PISOStep: 1545.44 [ms]
[INFO] MatrixAssemblyPI: 99.719 [ms]
[INFO] AdjustPhi: 5.61 [ms]
[INFO] ConstrainPressure: 0.004 [ms]
[INFO] MatrixAssemblyPII: 29.798 [ms]
[OGL LOG][Proc: 0]: global_index_init: 0.351 [ms]
[OGL LOG][Proc: 0]p_local_coeffs: call_update: 0 [ms]
[OGL LOG][Proc: 0]p_non_local_coeffs: call_update: 0 [ms]
[OGL LOG][Proc: 0]p: update_local_matrix_data: 11.599 [ms]
[OGL LOG][Proc: 0]p: update_non_local_matrix_data: 0.196 [ms]
[OGL LOG][Proc: 0]p_matrix: call_update: 11.763 [ms]
[OGL LOG][Proc: 0]p_rhs: call_update: 2.043 [ms]
[OGL LOG][Proc: 0]p: init_precond: 0.051 [ms]
[OGL LOG][StoppingCriterion.H:373] Creating stopping criterion with minIter 891 frequency 14
[OGL LOG][Proc: 0]p: generate_solver: 0.005 [ms]
[OGL LOG][Proc: 0]p: solve: 1322.94 [ms]
[OGL LOG][Proc: 0]p: copy_x_back: 2.755 [ms]
[OGL LOG][lduLduBase.H:330] 
Statistics:
	Time per iteration: 890 [mu s]
	Time per residual norm calculation: 319.000000 [mu s]
	Time per iteration and DOF: 0.111250 [ns]
	Retrieve results bandwidth 2.903000 [GByte/s]
[OGL LOG][Proc: 0]p: solve_multi_gpu: 1340.46 [ms]
nonehipGKOCG:  Solving for p, Initial residual = 0.337351, Final residual = 9.23477e-05, No Iterations 1485
[INFO] SolveP: 1356.29 [ms]
time step continuity errors : sum local = 4.70275e-09, global = -4.62124e-21, cumulative = -4.41557e-20
[INFO] ContinuityError: 14.174 [ms]
[INFO] CorrectBoundary: 0.488 [ms]
[INFO] PISOStep: 1541.38 [ms]
[INFO] TimeStep: 4045.29 [ms]
ExecutionTime = 65.36 s  ClockTime = 53 s

Time = 0.0035

Courant Number mean: 0.0531952 max: 0.484199
[INFO] MatrixAssemblyU: 78.871 [ms]
DILUPBiCGStab:  Solving for Ux, Initial residual = 0.00705308, Final residual = 0.000126277, No Iterations 5
DILUPBiCGStab:  Solving for Uy, Initial residual = 0.0176119, Final residual = 0.000281007, No Iterations 5
DILUPBiCGStab:  Solving for Uz, Initial residual = 0.0654458, Final residual = 0.00267988, No Iterations 5
[INFO] MomentumPredictor: 872.265 [ms]
[INFO] MatrixAssemblyPI: 101.556 [ms]
[INFO] AdjustPhi: 8.348 [ms]
[INFO] ConstrainPressure: 0.005 [ms]
[INFO] MatrixAssemblyPII: 29.178 [ms]
[OGL LOG][Proc: 0]: global_index_init: 0.072 [ms]
[OGL LOG][Proc: 0]p_local_coeffs: call_update: 0 [ms]
[OGL LOG][Proc: 0]p_non_local_coeffs: call_update: 0 [ms]
[OGL LOG][Proc: 0]p: update_local_matrix_data: 11.486 [ms]
[OGL LOG][Proc: 0]p: update_non_local_matrix_data: 0.109 [ms]
[OGL LOG][Proc: 0]p_matrix: call_update: 9.123 [ms]
[OGL LOG][Proc: 0]p_rhs: call_update: 4.41 [ms]
[OGL LOG][Proc: 0]p: init_precond: 0.053 [ms]
[OGL LOG][StoppingCriterion.H:373] Creating stopping criterion with minIter 891 frequency 17
[OGL LOG][Proc: 0]p: generate_solver: 0.006 [ms]
[OGL LOG][Proc: 0]p: solve: 1280.03 [ms]
[OGL LOG][Proc: 0]p: copy_x_back: 2.785 [ms]
[OGL LOG][lduLduBase.H:330] 
Statistics:
	Time per iteration: 895 [mu s]
	Time per residual norm calculation: 272.000000 [mu s]
	Time per iteration and DOF: 0.111875 [ns]
	Retrieve results bandwidth 2.872000 [GByte/s]
[OGL LOG][Proc: 0]p: solve_multi_gpu: 1297.49 [ms]
nonehipGKOCG:  Solving for p, Initial residual = 0.342057, Final residual = 8.12132e-05, No Iterations 1429
[INFO] SolveP: 1312.96 [ms]
time step continuity errors : sum local = 3.99689e-09, global = -3.68484e-21, cumulative = -4.78406e-20
[INFO] ContinuityError: 14.684 [ms]
[INFO] CorrectBoundary: 0.408 [ms]
[INFO] PISOStep: 1502.87 [ms]
[INFO] MatrixAssemblyPI: 99.336 [ms]
[INFO] AdjustPhi: 8.245 [ms]
[INFO] ConstrainPressure: 0.004 [ms]
[INFO] MatrixAssemblyPII: 29.327 [ms]
[OGL LOG][Proc: 0]: global_index_init: 0.199 [ms]
[OGL LOG][Proc: 0]p_local_coeffs: call_update: 0 [ms]
[OGL LOG][Proc: 0]p_non_local_coeffs: call_update: 0 [ms]
[OGL LOG][Proc: 0]p: update_local_matrix_data: 12.122 [ms]
[OGL LOG][Proc: 0]p: update_non_local_matrix_data: 0.107 [ms]
[OGL LOG][Proc: 0]p_matrix: call_update: 10.629 [ms]
[OGL LOG][Proc: 0]p_rhs: call_update: 2.802 [ms]
[OGL LOG][Proc: 0]p: init_precond: 0.051 [ms]
[OGL LOG][StoppingCriterion.H:373] Creating stopping criterion with minIter 857 frequency 13
[OGL LOG][Proc: 0]p: generate_solver: 0.005 [ms]
[OGL LOG][Proc: 0]p: solve: 1273.04 [ms]
[OGL LOG][Proc: 0]p: copy_x_back: 2.784 [ms]
[OGL LOG][lduLduBase.H:330] 
Statistics:
	Time per iteration: 889 [mu s]
	Time per residual norm calculation: 274.000000 [mu s]
	Time per iteration and DOF: 0.111125 [ns]
	Retrieve results bandwidth 2.873000 [GByte/s]
[OGL LOG][Proc: 0]p: solve_multi_gpu: 1290.24 [ms]
nonehipGKOCG:  Solving for p, Initial residual = 0.302261, Final residual = 8.17896e-05, No Iterations 1431
[INFO] SolveP: 1306.37 [ms]
time step continuity errors : sum local = 4.00901e-09, global = -5.45141e-21, cumulative = -5.3292e-20
[INFO] ContinuityError: 14.559 [ms]
[INFO] CorrectBoundary: 0.514 [ms]
[INFO] PISOStep: 1493.2 [ms]
[INFO] TimeStep: 3961.26 [ms]
ExecutionTime = 70.36 s  ClockTime = 56 s

Time = 0.00375

Courant Number mean: 0.0545956 max: 0.484637
[INFO] MatrixAssemblyU: 78.309 [ms]
DILUPBiCGStab:  Solving for Ux, Initial residual = 0.00646979, Final residual = 0.00011006, No Iterations 5
DILUPBiCGStab:  Solving for Uy, Initial residual = 0.0157801, Final residual = 0.000234445, No Iterations 5
DILUPBiCGStab:  Solving for Uz, Initial residual = 0.0571546, Final residual = 0.00249511, No Iterations 5
[INFO] MomentumPredictor: 870.9 [ms]
[INFO] MatrixAssemblyPI: 101.305 [ms]
[INFO] AdjustPhi: 6.38 [ms]
[INFO] ConstrainPressure: 0.004 [ms]
[INFO] MatrixAssemblyPII: 29.184 [ms]
[OGL LOG][Proc: 0]: global_index_init: 0.054 [ms]
[OGL LOG][Proc: 0]p_local_coeffs: call_update: 0 [ms]
[OGL LOG][Proc: 0]p_non_local_coeffs: call_update: 0 [ms]
[OGL LOG][Proc: 0]p: update_local_matrix_data: 11.464 [ms]
[OGL LOG][Proc: 0]p: update_non_local_matrix_data: 0.109 [ms]
[OGL LOG][Proc: 0]p_matrix: call_update: 8.704 [ms]
[OGL LOG][Proc: 0]p_rhs: call_update: 6.864 [ms]
[OGL LOG][Proc: 0]p: init_precond: 0.057 [ms]
[OGL LOG][StoppingCriterion.H:373] Creating stopping criterion with minIter 858 frequency 13
[OGL LOG][Proc: 0]p: generate_solver: 0.007 [ms]
[OGL LOG][Proc: 0]p: solve: 790.105 [ms]
[OGL LOG][Proc: 0]p: copy_x_back: 2.793 [ms]
[OGL LOG][lduLduBase.H:330] 
Statistics:
	Time per iteration: 919 [mu s]
	Time per residual norm calculation: 294.000000 [mu s]
	Time per iteration and DOF: 0.114875 [ns]
	Retrieve results bandwidth 2.864000 [GByte/s]
[OGL LOG][Proc: 0]p: solve_multi_gpu: 809.838 [ms]
nonehipGKOCG:  Solving for p, Initial residual = 0.309639, Final residual = 5.68087e-05, No Iterations 859
[INFO] SolveP: 825.312 [ms]
time step continuity errors : sum local = 2.89177e-09, global = -4.32952e-21, cumulative = -5.76215e-20
[INFO] ContinuityError: 13.794 [ms]
[INFO] CorrectBoundary: 0.75 [ms]
[INFO] PISOStep: 1012.87 [ms]
[INFO] MatrixAssemblyPI: 99.159 [ms]
[INFO] AdjustPhi: 6.489 [ms]
[INFO] ConstrainPressure: 0.004 [ms]
[INFO] MatrixAssemblyPII: 29.308 [ms]
[OGL LOG][Proc: 0]: global_index_init: 0.104 [ms]
[OGL LOG][Proc: 0]p_local_coeffs: call_update: 0 [ms]
[OGL LOG][Proc: 0]p_non_local_coeffs: call_update: 0 [ms]
[OGL LOG][Proc: 0]p: update_local_matrix_data: 11.61 [ms]
[OGL LOG][Proc: 0]p: update_non_local_matrix_data: 0.109 [ms]
[OGL LOG][Proc: 0]p_matrix: call_update: 10.415 [ms]
[OGL LOG][Proc: 0]p_rhs: call_update: 2.953 [ms]
[OGL LOG][Proc: 0]p: init_precond: 0.052 [ms]
[OGL LOG][StoppingCriterion.H:373] Creating stopping criterion with minIter 515 frequency 10
[OGL LOG][Proc: 0]p: generate_solver: 0.006 [ms]
[OGL LOG][Proc: 0]p: solve: 648.439 [ms]
[OGL LOG][Proc: 0]p: copy_x_back: 2.74 [ms]
[OGL LOG][lduLduBase.H:330] 
Statistics:
	Time per iteration: 952 [mu s]
	Time per residual norm calculation: 274.000000 [mu s]
	Time per iteration and DOF: 0.119000 [ns]
	Retrieve results bandwidth 2.919000 [GByte/s]
[OGL LOG][Proc: 0]p: solve_multi_gpu: 665.603 [ms]
nonehipGKOCG:  Solving for p, Initial residual = 0.271463, Final residual = 8.85837e-05, No Iterations 681
[INFO] SolveP: 681.332 [ms]
time step continuity errors : sum local = 4.26226e-09, global = -3.81934e-21, cumulative = -6.14409e-20
[INFO] ContinuityError: 14.503 [ms]
[INFO] CorrectBoundary: 0.658 [ms]
[INFO] PISOStep: 869.897 [ms]
[INFO] TimeStep: 2845.82 [ms]
ExecutionTime = 73.76 s  ClockTime = 59 s

Time = 0.004

Courant Number mean: 0.0559077 max: 0.485102
[INFO] MatrixAssemblyU: 78.485 [ms]
DILUPBiCGStab:  Solving for Ux, Initial residual = 0.00595117, Final residual = 9.66991e-05, No Iterations 5
DILUPBiCGStab:  Solving for Uy, Initial residual = 0.0144833, Final residual = 0.000196547, No Iterations 5
DILUPBiCGStab:  Solving for Uz, Initial residual = 0.0499459, Final residual = 0.00214169, No Iterations 5
[INFO] MomentumPredictor: 876.131 [ms]
[INFO] MatrixAssemblyPI: 101.547 [ms]
[INFO] AdjustPhi: 5.98 [ms]
[INFO] ConstrainPressure: 0.004 [ms]
[INFO] MatrixAssemblyPII: 29.257 [ms]
[OGL LOG][Proc: 0]: global_index_init: 0.184 [ms]
[OGL LOG][Proc: 0]p_local_coeffs: call_update: 0 [ms]
[OGL LOG][Proc: 0]p_non_local_coeffs: call_update: 0 [ms]
[OGL LOG][Proc: 0]p: update_local_matrix_data: 11.472 [ms]
[OGL LOG][Proc: 0]p: update_non_local_matrix_data: 0.108 [ms]
[OGL LOG][Proc: 0]p_matrix: call_update: 14.081 [ms]
[OGL LOG][Proc: 0]p_rhs: call_update: 1.825 [ms]
[OGL LOG][Proc: 0]p: init_precond: 0.055 [ms]
[OGL LOG][StoppingCriterion.H:373] Creating stopping criterion with minIter 408 frequency 9
[OGL LOG][Proc: 0]p: generate_solver: 0.005 [ms]
[OGL LOG][Proc: 0]p: solve: 690.115 [ms]
[OGL LOG][Proc: 0]p: copy_x_back: 2.945 [ms]
[OGL LOG][lduLduBase.H:330] 
Statistics:
	Time per iteration: 945 [mu s]
	Time per residual norm calculation: 274.000000 [mu s]
	Time per iteration and DOF: 0.118125 [ns]
	Retrieve results bandwidth 2.716000 [GByte/s]
[OGL LOG][Proc: 0]p: solve_multi_gpu: 710.01 [ms]
nonehipGKOCG:  Solving for p, Initial residual = 0.279194, Final residual = 9.79145e-05, No Iterations 730
[INFO] SolveP: 726.039 [ms]
time step continuity errors : sum local = 4.97927e-09, global = -3.42758e-21, cumulative = -6.48684e-20
[INFO] ContinuityError: 20.392 [ms]
[INFO] CorrectBoundary: 0.661 [ms]
[INFO] PISOStep: 918.919 [ms]
[INFO] MatrixAssemblyPI: 98.644 [ms]
[INFO] AdjustPhi: 6.546 [ms]
[INFO] ConstrainPressure: 0.004 [ms]
[INFO] MatrixAssemblyPII: 29.317 [ms]
[OGL LOG][Proc: 0]: global_index_init: 0.177 [ms]
[OGL LOG][Proc: 0]p_local_coeffs: call_update: 0 [ms]
[OGL LOG][Proc: 0]p_non_local_coeffs: call_update: 0 [ms]
[OGL LOG][Proc: 0]p: update_local_matrix_data: 11.528 [ms]
[OGL LOG][Proc: 0]p: update_non_local_matrix_data: 0.107 [ms]
[OGL LOG][Proc: 0]p_matrix: call_update: 8.325 [ms]
[OGL LOG][Proc: 0]p_rhs: call_update: 6.317 [ms]
[OGL LOG][Proc: 0]p: init_precond: 0.052 [ms]
[OGL LOG][StoppingCriterion.H:373] Creating stopping criterion with minIter 438 frequency 9
[OGL LOG][Proc: 0]p: generate_solver: 0.006 [ms]
[OGL LOG][Proc: 0]p: solve: 662.88 [ms]
[OGL LOG][Proc: 0]p: copy_x_back: 2.78 [ms]
[OGL LOG][lduLduBase.H:330] 
Statistics:
	Time per iteration: 931 [mu s]
	Time per residual norm calculation: 272.000000 [mu s]
	Time per iteration and DOF: 0.116375 [ns]
	Retrieve results bandwidth 2.877000 [GByte/s]
[OGL LOG][Proc: 0]p: solve_multi_gpu: 681.714 [ms]
nonehipGKOCG:  Solving for p, Initial residual = 0.245876, Final residual = 8.97738e-05, No Iterations 712
[INFO] SolveP: 696.982 [ms]
time step continuity errors : sum local = 4.22219e-09, global = -1.20372e-21, cumulative = -6.60721e-20
[INFO] ContinuityError: 14.242 [ms]
[INFO] CorrectBoundary: 0.422 [ms]
[INFO] PISOStep: 881.394 [ms]
[INFO] TimeStep: 2768.47 [ms]
ExecutionTime = 77.05 s  ClockTime = 62 s

Time = 0.00425

Courant Number mean: 0.0571444 max: 0.485458
[INFO] MatrixAssemblyU: 78.409 [ms]
DILUPBiCGStab:  Solving for Ux, Initial residual = 0.00549877, Final residual = 8.50718e-05, No Iterations 5
DILUPBiCGStab:  Solving for Uy, Initial residual = 0.0132288, Final residual = 0.00017472, No Iterations 5
DILUPBiCGStab:  Solving for Uz, Initial residual = 0.0448891, Final residual = 0.00197676, No Iterations 5
[INFO] MomentumPredictor: 873.013 [ms]
[INFO] MatrixAssemblyPI: 101.786 [ms]
[INFO] AdjustPhi: 5.898 [ms]
[INFO] ConstrainPressure: 0.004 [ms]
[INFO] MatrixAssemblyPII: 30.127 [ms]
[OGL LOG][Proc: 0]: global_index_init: 0.038 [ms]
[OGL LOG][Proc: 0]p_local_coeffs: call_update: 0 [ms]
[OGL LOG][Proc: 0]p_non_local_coeffs: call_update: 0 [ms]
[OGL LOG][Proc: 0]p: update_local_matrix_data: 11.52 [ms]
[OGL LOG][Proc: 0]p: update_non_local_matrix_data: 0.115 [ms]
[OGL LOG][Proc: 0]p_matrix: call_update: 10.508 [ms]
[OGL LOG][Proc: 0]p_rhs: call_update: 2.412 [ms]
[OGL LOG][Proc: 0]p: init_precond: 0.055 [ms]
[OGL LOG][StoppingCriterion.H:373] Creating stopping criterion with minIter 427 frequency 9
[OGL LOG][Proc: 0]p: generate_solver: 0.006 [ms]
[OGL LOG][Proc: 0]p: solve: 1343.65 [ms]
[OGL LOG][Proc: 0]p: copy_x_back: 2.83 [ms]
[OGL LOG][lduLduBase.H:330] 
Statistics:
	Time per iteration: 904 [mu s]
	Time per residual norm calculation: 272.000000 [mu s]
	Time per iteration and DOF: 0.113000 [ns]
	Retrieve results bandwidth 2.826000 [GByte/s]
[OGL LOG][Proc: 0]p: solve_multi_gpu: 1360.47 [ms]
nonehipGKOCG:  Solving for p, Initial residual = 0.249462, Final residual = 7.10439e-05, No Iterations 1486
[INFO] SolveP: 1375.92 [ms]
time step continuity errors : sum local = 3.16576e-09, global = -4.66934e-21, cumulative = -7.07415e-20
[INFO] ContinuityError: 14.515 [ms]
[INFO] CorrectBoundary: 0.688 [ms]
[INFO] PISOStep: 1563.58 [ms]
[INFO] MatrixAssemblyPI: 99.28 [ms]
[INFO] AdjustPhi: 6.356 [ms]
[INFO] ConstrainPressure: 0.005 [ms]
[INFO] MatrixAssemblyPII: 30.404 [ms]
[OGL LOG][Proc: 0]: global_index_init: 0.29 [ms]
[OGL LOG][Proc: 0]p_local_coeffs: call_update: 0 [ms]
[OGL LOG][Proc: 0]p_non_local_coeffs: call_update: 0 [ms]
[OGL LOG][Proc: 0]p: update_local_matrix_data: 11.694 [ms]
[OGL LOG][Proc: 0]p: update_non_local_matrix_data: 0.114 [ms]
[OGL LOG][Proc: 0]p_matrix: call_update: 8.51 [ms]
[OGL LOG][Proc: 0]p_rhs: call_update: 4.363 [ms]
[OGL LOG][Proc: 0]p: init_precond: 0.051 [ms]
[OGL LOG][StoppingCriterion.H:373] Creating stopping criterion with minIter 891 frequency 14
[OGL LOG][Proc: 0]p: generate_solver: 0.005 [ms]
[OGL LOG][Proc: 0]p: solve: 1325.43 [ms]
[OGL LOG][Proc: 0]p: copy_x_back: 2.754 [ms]
[OGL LOG][lduLduBase.H:330] 
Statistics:
	Time per iteration: 892 [mu s]
	Time per residual norm calculation: 282.000000 [mu s]
	Time per iteration and DOF: 0.111500 [ns]
	Retrieve results bandwidth 2.904000 [GByte/s]
[OGL LOG][Proc: 0]p: solve_multi_gpu: 1342.4 [ms]
nonehipGKOCG:  Solving for p, Initial residual = 0.218079, Final residual = 7.10894e-05, No Iterations 1485
[INFO] SolveP: 1358.25 [ms]
time step continuity errors : sum local = 3.17074e-09, global = -3.57318e-21, cumulative = -7.43147e-20
[INFO] ContinuityError: 13.827 [ms]
[INFO] CorrectBoundary: 0.411 [ms]
[INFO] PISOStep: 1544.74 [ms]
[INFO] TimeStep: 4073.17 [ms]
ExecutionTime = 82.18 s  ClockTime = 66 s

Time = 0.0045

Courant Number mean: 0.0583118 max: 0.48583
[INFO] MatrixAssemblyU: 80.438 [ms]
DILUPBiCGStab:  Solving for Ux, Initial residual = 0.00511683, Final residual = 7.59211e-05, No Iterations 5
DILUPBiCGStab:  Solving for Uy, Initial residual = 0.0122541, Final residual = 0.00014986, No Iterations 5
DILUPBiCGStab:  Solving for Uz, Initial residual = 0.0402354, Final residual = 0.00169545, No Iterations 5
[INFO] MomentumPredictor: 873.455 [ms]
[INFO] MatrixAssemblyPI: 102.227 [ms]
[INFO] AdjustPhi: 7.928 [ms]
[INFO] ConstrainPressure: 0.004 [ms]
[INFO] MatrixAssemblyPII: 29.522 [ms]
[OGL LOG][Proc: 0]: global_index_init: 0.039 [ms]
[OGL LOG][Proc: 0]p_local_coeffs: call_update: 0 [ms]
[OGL LOG][Proc: 0]p_non_local_coeffs: call_update: 0 [ms]
[OGL LOG][Proc: 0]p: update_local_matrix_data: 12.211 [ms]
[OGL LOG][Proc: 0]p: update_non_local_matrix_data: 0.113 [ms]
[OGL LOG][Proc: 0]p_matrix: call_update: 7.688 [ms]
[OGL LOG][Proc: 0]p_rhs: call_update: 4.628 [ms]
[OGL LOG][Proc: 0]p: init_precond: 0.057 [ms]
[OGL LOG][StoppingCriterion.H:373] Creating stopping criterion with minIter 891 frequency 14
[OGL LOG][Proc: 0]p: generate_solver: 0.005 [ms]
[OGL LOG][Proc: 0]p: solve: 1318.97 [ms]
[OGL LOG][Proc: 0]p: copy_x_back: 2.835 [ms]
[OGL LOG][lduLduBase.H:330] 
Statistics:
	Time per iteration: 888 [mu s]
	Time per residual norm calculation: 275.000000 [mu s]
	Time per iteration and DOF: 0.111000 [ns]
	Retrieve results bandwidth 2.821000 [GByte/s]
[OGL LOG][Proc: 0]p: solve_multi_gpu: 1335.06 [ms]
nonehipGKOCG:  Solving for p, Initial residual = 0.226477, Final residual = 6.81411e-05, No Iterations 1485
[INFO] SolveP: 1351.28 [ms]
time step continuity errors : sum local = 2.92612e-09, global = -4.68239e-21, cumulative = -7.89971e-20
[INFO] ContinuityError: 14.123 [ms]
[INFO] CorrectBoundary: 0.42 [ms]
[INFO] PISOStep: 1541.37 [ms]
[INFO] MatrixAssemblyPI: 98.826 [ms]
[INFO] AdjustPhi: 6.349 [ms]
[INFO] ConstrainPressure: 0.004 [ms]
[INFO] MatrixAssemblyPII: 29.69 [ms]
[OGL LOG][Proc: 0]: global_index_init: 0.033 [ms]
[OGL LOG][Proc: 0]p_local_coeffs: call_update: 0 [ms]
[OGL LOG][Proc: 0]p_non_local_coeffs: call_update: 0 [ms]
[OGL LOG][Proc: 0]p: update_local_matrix_data: 11.532 [ms]
[OGL LOG][Proc: 0]p: update_non_local_matrix_data: 0.114 [ms]
[OGL LOG][Proc: 0]p_matrix: call_update: 10.243 [ms]
[OGL LOG][Proc: 0]p_rhs: call_update: 2.754 [ms]
[OGL LOG][Proc: 0]p: init_precond: 0.053 [ms]
[OGL LOG][StoppingCriterion.H:373] Creating stopping criterion with minIter 891 frequency 14
[OGL LOG][Proc: 0]p: generate_solver: 0.005 [ms]
[OGL LOG][Proc: 0]p: solve: 1338.48 [ms]
[OGL LOG][Proc: 0]p: copy_x_back: 2.792 [ms]
[OGL LOG][lduLduBase.H:330] 
Statistics:
	Time per iteration: 901 [mu s]
	Time per residual norm calculation: 276.000000 [mu s]
	Time per iteration and DOF: 0.112625 [ns]
	Retrieve results bandwidth 2.865000 [GByte/s]
[OGL LOG][Proc: 0]p: solve_multi_gpu: 1355.83 [ms]
nonehipGKOCG:  Solving for p, Initial residual = 0.198792, Final residual = 6.5949e-05, No Iterations 1485
[INFO] SolveP: 1371.23 [ms]
time step continuity errors : sum local = 2.82528e-09, global = -1.18284e-21, cumulative = -8.01799e-20
[INFO] ContinuityError: 13.93 [ms]
[INFO] CorrectBoundary: 0.399 [ms]
[INFO] PISOStep: 1557.87 [ms]
[INFO] TimeStep: 4066.36 [ms]
ExecutionTime = 87.31 s  ClockTime = 70 s

Time = 0.00475

Courant Number mean: 0.0594174 max: 0.486127
[INFO] MatrixAssemblyU: 79.804 [ms]
DILUPBiCGStab:  Solving for Ux, Initial residual = 0.00476601, Final residual = 6.73092e-05, No Iterations 5
DILUPBiCGStab:  Solving for Uy, Initial residual = 0.0112938, Final residual = 0.000137693, No Iterations 5
DILUPBiCGStab:  Solving for Uz, Initial residual = 0.0352858, Final residual = 0.00148084, No Iterations 5
[INFO] MomentumPredictor: 872.283 [ms]
[INFO] MatrixAssemblyPI: 101.482 [ms]
[INFO] AdjustPhi: 6.436 [ms]
[INFO] ConstrainPressure: 0.004 [ms]
[INFO] MatrixAssemblyPII: 29.343 [ms]
[OGL LOG][Proc: 0]: global_index_init: 0.065 [ms]
[OGL LOG][Proc: 0]p_local_coeffs: call_update: 0 [ms]
[OGL LOG][Proc: 0]p_non_local_coeffs: call_update: 0 [ms]
[OGL LOG][Proc: 0]p: update_local_matrix_data: 11.554 [ms]
[OGL LOG][Proc: 0]p: update_non_local_matrix_data: 0.112 [ms]
[OGL LOG][Proc: 0]p_matrix: call_update: 8.264 [ms]
[OGL LOG][Proc: 0]p_rhs: call_update: 4.53 [ms]
[OGL LOG][Proc: 0]p: init_precond: 0.051 [ms]
[OGL LOG][StoppingCriterion.H:373] Creating stopping criterion with minIter 891 frequency 14
[OGL LOG][Proc: 0]p: generate_solver: 0.005 [ms]
[OGL LOG][Proc: 0]p: solve: 1319.41 [ms]
[OGL LOG][Proc: 0]p: copy_x_back: 2.784 [ms]
[OGL LOG][lduLduBase.H:330] 
Statistics:
	Time per iteration: 896 [mu s]
	Time per residual norm calculation: 281.000000 [mu s]
	Time per iteration and DOF: 0.112000 [ns]
	Retrieve results bandwidth 2.873000 [GByte/s]
[OGL LOG][Proc: 0]p: solve_multi_gpu: 1336.01 [ms]
nonehipGKOCG:  Solving for p, Initial residual = 0.200884, Final residual = 9.83542e-05, No Iterations 1471
[INFO] SolveP: 1351.63 [ms]
time step continuity errors : sum local = 4.18438e-09, global = -3.76171e-21, cumulative = -8.39416e-20
[INFO] ContinuityError: 14.029 [ms]
[INFO] CorrectBoundary: 0.407 [ms]
[INFO] PISOStep: 1540 [ms]
[INFO] MatrixAssemblyPI: 99.315 [ms]
[INFO] AdjustPhi: 6.047 [ms]
[INFO] ConstrainPressure: 0.004 [ms]
[INFO] MatrixAssemblyPII: 29.55 [ms]
[OGL LOG][Proc: 0]: global_index_init: 0.07 [ms]
[OGL LOG][Proc: 0]p_local_coeffs: call_update: 0 [ms]
[OGL LOG][Proc: 0]p_non_local_coeffs: call_update: 0 [ms]
[OGL LOG][Proc: 0]p: update_local_matrix_data: 11.539 [ms]
[OGL LOG][Proc: 0]p: update_non_local_matrix_data: 0.124 [ms]
[OGL LOG][Proc: 0]p_matrix: call_update: 8.664 [ms]
[OGL LOG][Proc: 0]p_rhs: call_update: 3.664 [ms]
[OGL LOG][Proc: 0]p: init_precond: 0.053 [ms]
[OGL LOG][StoppingCriterion.H:373] Creating stopping criterion with minIter 882 frequency 14
[OGL LOG][Proc: 0]p: generate_solver: 0.005 [ms]
[OGL LOG][Proc: 0]p: solve: 1315.33 [ms]
[OGL LOG][Proc: 0]p: copy_x_back: 2.765 [ms]
[OGL LOG][lduLduBase.H:330] 
Statistics:
	Time per iteration: 894 [mu s]
	Time per residual norm calculation: 273.000000 [mu s]
	Time per iteration and DOF: 0.111750 [ns]
	Retrieve results bandwidth 2.893000 [GByte/s]
[OGL LOG][Proc: 0]p: solve_multi_gpu: 1331.59 [ms]
nonehipGKOCG:  Solving for p, Initial residual = 0.175276, Final residual = 9.15332e-05, No Iterations 1471
[INFO] SolveP: 1347.13 [ms]
time step continuity errors : sum local = 3.89612e-09, global = -3.23011e-21, cumulative = -8.71717e-20
[INFO] ContinuityError: 14.175 [ms]
[INFO] CorrectBoundary: 0.425 [ms]
[INFO] PISOStep: 1532.52 [ms]
[INFO] TimeStep: 4038.04 [ms]
ExecutionTime = 92.4 s  ClockTime = 74 s

Time = 0.005

Courant Number mean: 0.0604662 max: 0.486433
[INFO] MatrixAssemblyU: 78.862 [ms]
DILUPBiCGStab:  Solving for Ux, Initial residual = 0.00446269, Final residual = 6.06353e-05, No Iterations 5
DILUPBiCGStab:  Solving for Uy, Initial residual = 0.0105571, Final residual = 0.00012089, No Iterations 5
DILUPBiCGStab:  Solving for Uz, Initial residual = 0.0320191, Final residual = 0.00128887, No Iterations 5
[INFO] MomentumPredictor: 877.083 [ms]
[INFO] MatrixAssemblyPI: 102.361 [ms]
[INFO] AdjustPhi: 6.008 [ms]
[INFO] ConstrainPressure: 0.004 [ms]
[INFO] MatrixAssemblyPII: 29.433 [ms]
[OGL LOG][Proc: 0]: global_index_init: 0.107 [ms]
[OGL LOG][Proc: 0]p_local_coeffs: call_update: 0 [ms]
[OGL LOG][Proc: 0]p_non_local_coeffs: call_update: 0 [ms]
[OGL LOG][Proc: 0]p: update_local_matrix_data: 11.618 [ms]
[OGL LOG][Proc: 0]p: update_non_local_matrix_data: 0.114 [ms]
[OGL LOG][Proc: 0]p_matrix: call_update: 10.438 [ms]
[OGL LOG][Proc: 0]p_rhs: call_update: 2.4 [ms]
[OGL LOG][Proc: 0]p: init_precond: 0.049 [ms]
[OGL LOG][StoppingCriterion.H:373] Creating stopping criterion with minIter 882 frequency 14
[OGL LOG][Proc: 0]p: generate_solver: 0.005 [ms]
[OGL LOG][Proc: 0]p: solve: 1307.64 [ms]
[OGL LOG][Proc: 0]p: copy_x_back: 2.748 [ms]
[OGL LOG][lduLduBase.H:330] 
Statistics:
	Time per iteration: 888 [mu s]
	Time per residual norm calculation: 275.000000 [mu s]
	Time per iteration and DOF: 0.111000 [ns]
	Retrieve results bandwidth 2.911000 [GByte/s]
[OGL LOG][Proc: 0]p: solve_multi_gpu: 1325.24 [ms]
nonehipGKOCG:  Solving for p, Initial residual = 0.182487, Final residual = 8.94363e-05, No Iterations 1471
[INFO] SolveP: 1340.87 [ms]
time step continuity errors : sum local = 3.67541e-09, global = -3.5914e-22, cumulative = -8.75309e-20
[INFO] ContinuityError: 14.545 [ms]
[INFO] CorrectBoundary: 0.586 [ms]
[INFO] PISOStep: 1531.16 [ms]
[INFO] MatrixAssemblyPI: 99.913 [ms]
[INFO] AdjustPhi: 6.057 [ms]
[INFO] ConstrainPressure: 0.005 [ms]
[INFO] MatrixAssemblyPII: 29.823 [ms]
[OGL LOG][Proc: 0]: global_index_init: 0.063 [ms]
[OGL LOG][Proc: 0]p_local_coeffs: call_update: 0 [ms]
[OGL LOG][Proc: 0]p_non_local_coeffs: call_update: 0 [ms]
[OGL LOG][Proc: 0]p: update_local_matrix_data: 11.519 [ms]
[OGL LOG][Proc: 0]p: update_non_local_matrix_data: 0.112 [ms]
[OGL LOG][Proc: 0]p_matrix: call_update: 8.684 [ms]
[OGL LOG][Proc: 0]p_rhs: call_update: 7.86 [ms]
[OGL LOG][Proc: 0]p: init_precond: 0.054 [ms]
[OGL LOG][StoppingCriterion.H:373] Creating stopping criterion with minIter 882 frequency 14
[OGL LOG][Proc: 0]p: generate_solver: 0.005 [ms]
[OGL LOG][Proc: 0]p: solve: 1325.64 [ms]
[OGL LOG][Proc: 0]p: copy_x_back: 2.761 [ms]
[OGL LOG][lduLduBase.H:330] 
Statistics:
	Time per iteration: 901 [mu s]
	Time per residual norm calculation: 273.000000 [mu s]
	Time per iteration and DOF: 0.112625 [ns]
	Retrieve results bandwidth 2.897000 [GByte/s]
[OGL LOG][Proc: 0]p: solve_multi_gpu: 1346.12 [ms]
nonehipGKOCG:  Solving for p, Initial residual = 0.159874, Final residual = 8.58033e-05, No Iterations 1471
[INFO] SolveP: 1361.66 [ms]
time step continuity errors : sum local = 3.52011e-09, global = 6.01507e-22, cumulative = -8.69293e-20
[INFO] ContinuityError: 14.282 [ms]
[INFO] CorrectBoundary: 0.401 [ms]
[INFO] PISOStep: 1547.82 [ms]
[INFO] TimeStep: 4048.19 [ms]
ExecutionTime = 97.5 s  ClockTime = 78 s

End

Finalising parallel run
