/*---------------------------------------------------------------------------*\
| =========                 |                                                 |
| \\      /  F ield         | OpenFOAM: The Open Source CFD Toolbox           |
|  \\    /   O peration     | Version:  2312                                  |
|   \\  /    A nd           | Website:  www.openfoam.com                      |
|    \\/     M anipulation  |                                                 |
\*---------------------------------------------------------------------------*/
Build  : a46b310f-20240104 OPENFOAM=2312 version=v2312
Arch   : "LSB;label=32;scalar=64"
Exec   : icoFoam -parallel -case /hppfs/scratch/0B/di35yan/lidDriven3D/workspace/1619dbe25d60264f430606d156d1ba84/case
Date   : Feb 19 2024
Time   : 06:19:48
Host   : i20r05c02s10
PID    : 138640
I/O    : uncollated
Case   : /hppfs/scratch/0B/di35yan/lidDriven3D/workspace/1619dbe25d60264f430606d156d1ba84/case
nProcs : 64
Hosts  :
(
    (i20r05c02s10 8)
    (i20r05c03s02 8)
    (i20r05c03s04 8)
    (i20r05c03s06 8)
    (i20r05c03s08 8)
    (i20r05c04s02 8)
    (i20r05c04s06 8)
    (i20r05c04s08 8)
)
Pstream initialized with:
    floatTransfer      : false
    nProcsSimpleSum    : 0
    nonBlockingExchange: 0 (tuning: 0)
    exchange algorithm : 0
    commsType          : nonBlocking
    polling iterations : 0
trapFpe: Floating point exception trapping enabled (FOAM_SIGFPE).
fileModificationChecking : Monitoring run-time modified files using timeStampMaster (fileModificationSkew 5, maxFileModificationPolls 20)
allowSystemOperations : Allowing user-supplied system call operations

// * * * * * * * * * * * * * * * * * * * * * * * * * * * * * * * * * * * * * //
Create time

--> FOAM Warning : 
    From void* Foam::dlLibraryTable::openLibrary(const Foam::fileName&, bool)
    in file db/dynamicLibrary/dlLibraryTable/dlLibraryTable.C at line 188
    Could not load "libpetscFoam.so"
libpetscFoam.so: cannot open shared object file: No such file or directory
Create mesh for time = 0


PISO: Operating solver in PISO mode

Reading transportProperties

Reading field p

Reading field U

Reading/calculating face flux field phi


Starting time loop

Time = 0.0001

Courant Number mean: 8.40841e-18 max: 5.20417e-14
[INFO] MatrixAssemblyU: 243.926 [ms]
DILUPBiCGStab:  Solving for Ux, Initial residual = 1, Final residual = 0.0262599, No Iterations 5
DILUPBiCGStab:  Solving for Uy:  solution singularity
DILUPBiCGStab:  Solving for Uz:  solution singularity
[INFO] MomentumPredictor: 1178.26 [ms]
[INFO] MatrixAssemblyPI: 215.137 [ms]
[INFO] AdjustPhi: 29.642 [ms]
[INFO] ConstrainPressure: 0.005 [ms]
[INFO] MatrixAssemblyPII: 71.776 [ms]
[OGL LOG][lduLduBase.H:119] Initialising OGL
	OGL commit:  34fc915+
	Branch: fix/cyclic_interfaces 
	Build type: Debug
	Ginkgo version: 1.8.0 ( develop)
	Ginkgo commit: fc86d48b78cebd2b2c5833a2dcf0fe40f615cf19
	MPI is GPU aware: 1
	Forces host buffer based communication: 0
	CPU ranks per GPU: 1
	Matrix format: Ell
	End OGL_INFO
[OGL LOG][Proc: 0]: global_index_init: 0.272 [ms]
[OGL LOG][Proc: 0]p_local_cols: call_init: 0.134 [ms]
[OGL LOG][Proc: 0]p_local_rows: call_init: 0.014 [ms]
[OGL LOG][Proc: 0]p_local_ldu_map: call_init: 0.029 [ms]
[OGL LOG][Proc: 0]p_local_coeffs: call_init: 0.746 [ms]
[OGL LOG][Proc: 0]p_non_local_cols: call_init: 0.032 [ms]
[OGL LOG][Proc: 0]p_non_local_rows: call_init: 0.029 [ms]
[OGL LOG][Proc: 0]p_non_local_ldu_map: call_init: 0.006 [ms]
[OGL LOG][Proc: 0]p_non_local_coeffs: call_init: 0.018 [ms]
[OGL LOG][Proc: 0]p: init_local_sparsity_pattern: 28259.9 [ms]
[OGL LOG][Proc: 0]p: init_non_local_sparsity_pattern: 67.208 [ms]
[OGL LOG][Proc: 0]p: update_local_matrix_data: 3397.77 [ms]
[OGL LOG][Proc: 0]p: update_non_local_matrix_data: 0.917 [ms]
[OGL LOG][Proc: 0]device_partition: call_init: 0.194 [ms]
[OGL LOG][Proc: 0]p_matrix: call_init: 247.974 [ms]
[OGL LOG][Proc: 0]p_rhs: call_init: 6.699 [ms]
[OGL LOG][Proc: 0]p_solution: call_init: 2.878 [ms]
[OGL LOG][Proc: 0]p: init_precond: 0.186 [ms]
[OGL LOG][StoppingCriterion.H:239] Creating stopping criterion with minIter 0 frequency 1
[OGL LOG][Proc: 0]p: generate_solver: 0.326 [ms]
[OGL LOG][Proc: 0]p: solve: 14175.9 [ms]
[OGL LOG][Proc: 0]p: copy_x_back: 4.176 [ms]
[OGL LOG][lduLduBase.H:330] 
Statistics:
	Time per iteration: 3485 [mu s]
	Time per residual norm calculation: 45859.000000 [mu s]
	Time per iteration and DOF: 0.027880 [ns]
	Retrieve results bandwidth 3.771000 [GByte/s]
[OGL LOG][Proc: 0]p: solve_multi_gpu: 14648 [ms]
nonedpcppGKOCG:  Solving for p, Initial residual = 1, Final residual = 9.86558e-05, No Iterations 4067
[INFO] SolveP: 46385.7 [ms]
time step continuity errors : sum local = 1.94952e-09, global = 1.55128e-21, cumulative = 1.55128e-21
[INFO] ContinuityError: 42.008 [ms]
[INFO] CorrectBoundary: 9.914 [ms]
[INFO] PISOStep: 46841 [ms]
[INFO] MatrixAssemblyPI: 214.414 [ms]
[INFO] AdjustPhi: 39.311 [ms]
[INFO] ConstrainPressure: 0.002 [ms]
[INFO] MatrixAssemblyPII: 66.556 [ms]
[OGL LOG][Proc: 0]: global_index_init: 0.271 [ms]
[OGL LOG][Proc: 0]p_local_coeffs: call_update: 0.001 [ms]
[OGL LOG][Proc: 0]p_non_local_coeffs: call_update: 0 [ms]
[OGL LOG][Proc: 0]p: update_local_matrix_data: 38.452 [ms]
[OGL LOG][Proc: 0]p: update_non_local_matrix_data: 0.874 [ms]
[OGL LOG][Proc: 0]p: regenerate_distributed_matrix: 140.209 [ms]
[OGL LOG][Proc: 0]p_matrix: call_update: 193.685 [ms]
[OGL LOG][Proc: 0]p_rhs: call_update: 4.842 [ms]
[OGL LOG][Proc: 0]p: init_precond: 0.061 [ms]
[OGL LOG][StoppingCriterion.H:239] Creating stopping criterion with minIter 0 frequency 1
[OGL LOG][Proc: 0]p: generate_solver: 0.021 [ms]
[OGL LOG][Proc: 0]p: solve: 13442.2 [ms]
[OGL LOG][Proc: 0]p: copy_x_back: 3.568 [ms]
[OGL LOG][lduLduBase.H:330] 
Statistics:
	Time per iteration: 3316 [mu s]
	Time per residual norm calculation: 236.000000 [mu s]
	Time per iteration and DOF: 0.026528 [ns]
	Retrieve results bandwidth 4.414000 [GByte/s]
[OGL LOG][Proc: 0]p: solve_multi_gpu: 13652.8 [ms]
nonedpcppGKOCG:  Solving for p, Initial residual = 0.838302, Final residual = 9.96968e-05, No Iterations 4053
[INFO] SolveP: 13700.7 [ms]
time step continuity errors : sum local = 2.32049e-09, global = 1.97524e-22, cumulative = 1.74881e-21
[INFO] ContinuityError: 44.514 [ms]
[INFO] CorrectBoundary: 1.45 [ms]
[INFO] PISOStep: 14158.6 [ms]
[INFO] TimeStep: 62459.8 [ms]
ExecutionTime = 61.99 s  ClockTime = 66 s

Time = 0.0002

Courant Number mean: 0.00933378 max: 0.44382
[INFO] MatrixAssemblyU: 198.673 [ms]
DILUPBiCGStab:  Solving for Ux, Initial residual = 0.101821, Final residual = 0.0169189, No Iterations 5
DILUPBiCGStab:  Solving for Uy, Initial residual = 0.50427, Final residual = 0.0764699, No Iterations 5
DILUPBiCGStab:  Solving for Uz, Initial residual = 0.989691, Final residual = 0.167898, No Iterations 5
[INFO] MomentumPredictor: 1935.22 [ms]
[INFO] MatrixAssemblyPI: 214.129 [ms]
[INFO] AdjustPhi: 32.749 [ms]
[INFO] ConstrainPressure: 0.002 [ms]
[INFO] MatrixAssemblyPII: 66.591 [ms]
[OGL LOG][Proc: 0]: global_index_init: 0.399 [ms]
[OGL LOG][Proc: 0]p_local_coeffs: call_update: 0 [ms]
[OGL LOG][Proc: 0]p_non_local_coeffs: call_update: 0 [ms]
[OGL LOG][Proc: 0]p: update_local_matrix_data: 43.332 [ms]
[OGL LOG][Proc: 0]p: update_non_local_matrix_data: 0.773 [ms]
[OGL LOG][Proc: 0]p: regenerate_distributed_matrix: 142.377 [ms]
[OGL LOG][Proc: 0]p_matrix: call_update: 143.421 [ms]
[OGL LOG][Proc: 0]p_rhs: call_update: 3.147 [ms]
[OGL LOG][Proc: 0]p: init_precond: 0.047 [ms]
[OGL LOG][StoppingCriterion.H:239] Creating stopping criterion with minIter 2431 frequency 10
[OGL LOG][Proc: 0]p: generate_solver: 0.023 [ms]
[OGL LOG][Proc: 0]p: solve: 12868.1 [ms]
[OGL LOG][Proc: 0]p: copy_x_back: 3.69 [ms]
[OGL LOG][lduLduBase.H:330] 
Statistics:
	Time per iteration: 3216 [mu s]
	Time per residual norm calculation: 317.000000 [mu s]
	Time per iteration and DOF: 0.025728 [ns]
	Retrieve results bandwidth 4.268000 [GByte/s]
[OGL LOG][Proc: 0]p: solve_multi_gpu: 13026 [ms]
nonedpcppGKOCG:  Solving for p, Initial residual = 0.929721, Final residual = 9.32066e-05, No Iterations 4001
[INFO] SolveP: 13076.4 [ms]
time step continuity errors : sum local = 5.64162e-09, global = -4.4861e-22, cumulative = 1.3002e-21
[INFO] ContinuityError: 39.19 [ms]
[INFO] CorrectBoundary: 0.52 [ms]
[INFO] PISOStep: 13523.2 [ms]
[INFO] MatrixAssemblyPI: 219.194 [ms]
[INFO] AdjustPhi: 44.058 [ms]
[INFO] ConstrainPressure: 0.002 [ms]
[INFO] MatrixAssemblyPII: 66.631 [ms]
[OGL LOG][Proc: 0]: global_index_init: 0.138 [ms]
[OGL LOG][Proc: 0]p_local_coeffs: call_update: 0 [ms]
[OGL LOG][Proc: 0]p_non_local_coeffs: call_update: 0 [ms]
[OGL LOG][Proc: 0]p: update_local_matrix_data: 43.048 [ms]
[OGL LOG][Proc: 0]p: update_non_local_matrix_data: 0.745 [ms]
[OGL LOG][Proc: 0]p: regenerate_distributed_matrix: 146.971 [ms]
[OGL LOG][Proc: 0]p_matrix: call_update: 148.21 [ms]
[OGL LOG][Proc: 0]p_rhs: call_update: 3.386 [ms]
[OGL LOG][Proc: 0]p: init_precond: 0.049 [ms]
[OGL LOG][StoppingCriterion.H:239] Creating stopping criterion with minIter 2400 frequency 12
[OGL LOG][Proc: 0]p: generate_solver: 0.019 [ms]
[OGL LOG][Proc: 0]p: solve: 12581.8 [ms]
[OGL LOG][Proc: 0]p: copy_x_back: 3.746 [ms]
[OGL LOG][lduLduBase.H:330] 
Statistics:
	Time per iteration: 3147 [mu s]
	Time per residual norm calculation: 242.000000 [mu s]
	Time per iteration and DOF: 0.025176 [ns]
	Retrieve results bandwidth 4.204000 [GByte/s]
[OGL LOG][Proc: 0]p: solve_multi_gpu: 12746 [ms]
nonedpcppGKOCG:  Solving for p, Initial residual = 0.880228, Final residual = 8.98188e-05, No Iterations 3997
[INFO] SolveP: 12797.6 [ms]
time step continuity errors : sum local = 5.54084e-09, global = -2.10727e-22, cumulative = 1.08947e-21
[INFO] ContinuityError: 35.423 [ms]
[INFO] CorrectBoundary: 13.775 [ms]
[INFO] PISOStep: 13268.7 [ms]
[INFO] TimeStep: 28959.5 [ms]
ExecutionTime = 90.96 s  ClockTime = 95 s

Time = 0.0003

Courant Number mean: 0.0147409 max: 0.525761
[INFO] MatrixAssemblyU: 193.891 [ms]
DILUPBiCGStab:  Solving for Ux, Initial residual = 0.0526656, Final residual = 0.00731109, No Iterations 5
DILUPBiCGStab:  Solving for Uy, Initial residual = 0.2889, Final residual = 0.0380095, No Iterations 5
DILUPBiCGStab:  Solving for Uz, Initial residual = 0.881245, Final residual = 0.119748, No Iterations 5
[INFO] MomentumPredictor: 1970.85 [ms]
[INFO] MatrixAssemblyPI: 225.344 [ms]
[INFO] AdjustPhi: 40.073 [ms]
[INFO] ConstrainPressure: 0.002 [ms]
[INFO] MatrixAssemblyPII: 72.504 [ms]
[OGL LOG][Proc: 0]: global_index_init: 0.171 [ms]
[OGL LOG][Proc: 0]p_local_coeffs: call_update: 0 [ms]
[OGL LOG][Proc: 0]p_non_local_coeffs: call_update: 0 [ms]
[OGL LOG][Proc: 0]p: update_local_matrix_data: 47.973 [ms]
[OGL LOG][Proc: 0]p: update_non_local_matrix_data: 0.767 [ms]
[OGL LOG][Proc: 0]p: regenerate_distributed_matrix: 142.266 [ms]
[OGL LOG][Proc: 0]p_matrix: call_update: 143.105 [ms]
[OGL LOG][Proc: 0]p_rhs: call_update: 3.874 [ms]
[OGL LOG][Proc: 0]p: init_precond: 0.049 [ms]
[OGL LOG][StoppingCriterion.H:239] Creating stopping criterion with minIter 2398 frequency 11
[OGL LOG][Proc: 0]p: generate_solver: 0.02 [ms]
[OGL LOG][Proc: 0]p: solve: 7658.41 [ms]
[OGL LOG][Proc: 0]p: copy_x_back: 4.31 [ms]
[OGL LOG][lduLduBase.H:330] 
Statistics:
	Time per iteration: 3192 [mu s]
	Time per residual norm calculation: 268.000000 [mu s]
	Time per iteration and DOF: 0.025536 [ns]
	Retrieve results bandwidth 3.654000 [GByte/s]
[OGL LOG][Proc: 0]p: solve_multi_gpu: 7815.32 [ms]
nonedpcppGKOCG:  Solving for p, Initial residual = 0.957462, Final residual = 2.52689e-05, No Iterations 2399
[INFO] SolveP: 7873.46 [ms]
time step continuity errors : sum local = 2.17466e-09, global = -1.54538e-22, cumulative = 9.34932e-22
[INFO] ContinuityError: 34.81 [ms]
[INFO] CorrectBoundary: 0.806 [ms]
[INFO] PISOStep: 8352.33 [ms]
[INFO] MatrixAssemblyPI: 225.161 [ms]
[INFO] AdjustPhi: 26.537 [ms]
[INFO] ConstrainPressure: 0.002 [ms]
[INFO] MatrixAssemblyPII: 73.679 [ms]
[OGL LOG][Proc: 0]: global_index_init: 0.121 [ms]
[OGL LOG][Proc: 0]p_local_coeffs: call_update: 0 [ms]
[OGL LOG][Proc: 0]p_non_local_coeffs: call_update: 0 [ms]
[OGL LOG][Proc: 0]p: update_local_matrix_data: 40.779 [ms]
[OGL LOG][Proc: 0]p: update_non_local_matrix_data: 0.713 [ms]
[OGL LOG][Proc: 0]p: regenerate_distributed_matrix: 144.54 [ms]
[OGL LOG][Proc: 0]p_matrix: call_update: 145.627 [ms]
[OGL LOG][Proc: 0]p_rhs: call_update: 3.216 [ms]
[OGL LOG][Proc: 0]p: init_precond: 0.048 [ms]
[OGL LOG][StoppingCriterion.H:239] Creating stopping criterion with minIter 1439 frequency 9
[OGL LOG][Proc: 0]p: generate_solver: 0.021 [ms]
[OGL LOG][Proc: 0]p: solve: 6014.19 [ms]
[OGL LOG][Proc: 0]p: copy_x_back: 3.82 [ms]
[OGL LOG][lduLduBase.H:330] 
Statistics:
	Time per iteration: 3135 [mu s]
	Time per residual norm calculation: 247.000000 [mu s]
	Time per iteration and DOF: 0.025080 [ns]
	Retrieve results bandwidth 4.123000 [GByte/s]
[OGL LOG][Proc: 0]p: solve_multi_gpu: 6174.63 [ms]
nonedpcppGKOCG:  Solving for p, Initial residual = 0.921196, Final residual = 9.41036e-05, No Iterations 1918
[INFO] SolveP: 6222.63 [ms]
time step continuity errors : sum local = 7.65125e-09, global = -5.29111e-23, cumulative = 8.82021e-22
[INFO] ContinuityError: 37.901 [ms]
[INFO] CorrectBoundary: 4.51 [ms]
[INFO] PISOStep: 6676.48 [ms]
[INFO] TimeStep: 17225.8 [ms]
ExecutionTime = 108.19 s  ClockTime = 112 s

Time = 0.0004

Courant Number mean: 0.0179735 max: 0.480029
[INFO] MatrixAssemblyU: 196.67 [ms]
DILUPBiCGStab:  Solving for Ux, Initial residual = 0.04385, Final residual = 0.00716627, No Iterations 5
DILUPBiCGStab:  Solving for Uy, Initial residual = 0.24736, Final residual = 0.0365253, No Iterations 5
DILUPBiCGStab:  Solving for Uz, Initial residual = 0.805727, Final residual = 0.0889759, No Iterations 5
[INFO] MomentumPredictor: 1954.63 [ms]
[INFO] MatrixAssemblyPI: 222.981 [ms]
[INFO] AdjustPhi: 34.995 [ms]
[INFO] ConstrainPressure: 0.002 [ms]
[INFO] MatrixAssemblyPII: 72.472 [ms]
[OGL LOG][Proc: 0]: global_index_init: 0.091 [ms]
[OGL LOG][Proc: 0]p_local_coeffs: call_update: 0 [ms]
[OGL LOG][Proc: 0]p_non_local_coeffs: call_update: 0 [ms]
[OGL LOG][Proc: 0]p: update_local_matrix_data: 47.338 [ms]
[OGL LOG][Proc: 0]p: update_non_local_matrix_data: 0.747 [ms]
[OGL LOG][Proc: 0]p: regenerate_distributed_matrix: 142.791 [ms]
[OGL LOG][Proc: 0]p_matrix: call_update: 143.614 [ms]
[OGL LOG][Proc: 0]p_rhs: call_update: 4.879 [ms]
[OGL LOG][Proc: 0]p: init_precond: 0.047 [ms]
[OGL LOG][StoppingCriterion.H:239] Creating stopping criterion with minIter 1150 frequency 7
[OGL LOG][Proc: 0]p: generate_solver: 0.02 [ms]
[OGL LOG][Proc: 0]p: solve: 5975.29 [ms]
[OGL LOG][Proc: 0]p: copy_x_back: 3.689 [ms]
[OGL LOG][lduLduBase.H:330] 
Statistics:
	Time per iteration: 3171 [mu s]
	Time per residual norm calculation: 229.000000 [mu s]
	Time per iteration and DOF: 0.025368 [ns]
	Retrieve results bandwidth 4.269000 [GByte/s]
[OGL LOG][Proc: 0]p: solve_multi_gpu: 6131.65 [ms]
nonedpcppGKOCG:  Solving for p, Initial residual = 0.960209, Final residual = 9.66896e-05, No Iterations 1884
[INFO] SolveP: 6185.84 [ms]
time step continuity errors : sum local = 1.07552e-08, global = -2.01284e-22, cumulative = 6.80737e-22
[INFO] ContinuityError: 40.667 [ms]
[INFO] CorrectBoundary: 0.525 [ms]
[INFO] PISOStep: 6644.93 [ms]
[INFO] MatrixAssemblyPI: 226.606 [ms]
[INFO] AdjustPhi: 41.261 [ms]
[INFO] ConstrainPressure: 0.002 [ms]
[INFO] MatrixAssemblyPII: 74.732 [ms]
[OGL LOG][Proc: 0]: global_index_init: 0.06 [ms]
[OGL LOG][Proc: 0]p_local_coeffs: call_update: 0 [ms]
[OGL LOG][Proc: 0]p_non_local_coeffs: call_update: 0 [ms]
[OGL LOG][Proc: 0]p: update_local_matrix_data: 43.882 [ms]
[OGL LOG][Proc: 0]p: update_non_local_matrix_data: 0.748 [ms]
[OGL LOG][Proc: 0]p: regenerate_distributed_matrix: 143.631 [ms]
[OGL LOG][Proc: 0]p_matrix: call_update: 144.452 [ms]
[OGL LOG][Proc: 0]p_rhs: call_update: 4.096 [ms]
[OGL LOG][Proc: 0]p: init_precond: 0.048 [ms]
[OGL LOG][StoppingCriterion.H:239] Creating stopping criterion with minIter 1130 frequency 7
[OGL LOG][Proc: 0]p: generate_solver: 0.02 [ms]
[OGL LOG][Proc: 0]p: solve: 6016.19 [ms]
[OGL LOG][Proc: 0]p: copy_x_back: 3.804 [ms]
[OGL LOG][lduLduBase.H:330] 
Statistics:
	Time per iteration: 3193 [mu s]
	Time per residual norm calculation: 263.000000 [mu s]
	Time per iteration and DOF: 0.025544 [ns]
	Retrieve results bandwidth 4.140000 [GByte/s]
[OGL LOG][Proc: 0]p: solve_multi_gpu: 6177.88 [ms]
nonedpcppGKOCG:  Solving for p, Initial residual = 0.903506, Final residual = 9.01576e-05, No Iterations 1884
[INFO] SolveP: 6229.4 [ms]
time step continuity errors : sum local = 1.00218e-08, global = -7.06025e-23, cumulative = 6.10135e-22
[INFO] ContinuityError: 33.871 [ms]
[INFO] CorrectBoundary: 8.629 [ms]
[INFO] PISOStep: 6705.15 [ms]
[INFO] TimeStep: 15539.8 [ms]
ExecutionTime = 123.73 s  ClockTime = 127 s

Time = 0.0005

Courant Number mean: 0.0206864 max: 0.611977
[INFO] MatrixAssemblyU: 185.949 [ms]
DILUPBiCGStab:  Solving for Ux, Initial residual = 0.0421694, Final residual = 0.00667656, No Iterations 5
DILUPBiCGStab:  Solving for Uy, Initial residual = 0.234751, Final residual = 0.0304568, No Iterations 5
DILUPBiCGStab:  Solving for Uz, Initial residual = 0.783905, Final residual = 0.0755306, No Iterations 5
[INFO] MomentumPredictor: 1807.31 [ms]
[INFO] MatrixAssemblyPI: 207.59 [ms]
[INFO] AdjustPhi: 36.211 [ms]
[INFO] ConstrainPressure: 0.002 [ms]
[INFO] MatrixAssemblyPII: 67.17 [ms]
[OGL LOG][Proc: 0]: global_index_init: 0.115 [ms]
[OGL LOG][Proc: 0]p_local_coeffs: call_update: 0 [ms]
[OGL LOG][Proc: 0]p_non_local_coeffs: call_update: 0 [ms]
[OGL LOG][Proc: 0]p: update_local_matrix_data: 43.22 [ms]
[OGL LOG][Proc: 0]p: update_non_local_matrix_data: 0.787 [ms]
[OGL LOG][Proc: 0]p: regenerate_distributed_matrix: 134.274 [ms]
[OGL LOG][Proc: 0]p_matrix: call_update: 135.063 [ms]
[OGL LOG][Proc: 0]p_rhs: call_update: 4.056 [ms]
[OGL LOG][Proc: 0]p: init_precond: 0.048 [ms]
[OGL LOG][StoppingCriterion.H:239] Creating stopping criterion with minIter 1130 frequency 7
[OGL LOG][Proc: 0]p: generate_solver: 0.021 [ms]
[OGL LOG][Proc: 0]p: solve: 12439.4 [ms]
[OGL LOG][Proc: 0]p: copy_x_back: 3.633 [ms]
[OGL LOG][lduLduBase.H:330] 
Statistics:
	Time per iteration: 3218 [mu s]
	Time per residual norm calculation: 249.000000 [mu s]
	Time per iteration and DOF: 0.025744 [ns]
	Retrieve results bandwidth 4.335000 [GByte/s]
[OGL LOG][Proc: 0]p: solve_multi_gpu: 12591.9 [ms]
nonedpcppGKOCG:  Solving for p, Initial residual = 0.971304, Final residual = 9.50804e-05, No Iterations 3865
[INFO] SolveP: 12642 [ms]
time step continuity errors : sum local = 1.30819e-08, global = -2.82482e-23, cumulative = 5.81886e-22
[INFO] ContinuityError: 39.552 [ms]
[INFO] CorrectBoundary: 4.58 [ms]
[INFO] PISOStep: 13086.8 [ms]
[INFO] MatrixAssemblyPI: 215.202 [ms]
[INFO] AdjustPhi: 46.828 [ms]
[INFO] ConstrainPressure: 0.002 [ms]
[INFO] MatrixAssemblyPII: 67.053 [ms]
[OGL LOG][Proc: 0]: global_index_init: 0.077 [ms]
[OGL LOG][Proc: 0]p_local_coeffs: call_update: 0 [ms]
[OGL LOG][Proc: 0]p_non_local_coeffs: call_update: 0 [ms]
[OGL LOG][Proc: 0]p: update_local_matrix_data: 41.664 [ms]
[OGL LOG][Proc: 0]p: update_non_local_matrix_data: 0.778 [ms]
[OGL LOG][Proc: 0]p: regenerate_distributed_matrix: 143.698 [ms]
[OGL LOG][Proc: 0]p_matrix: call_update: 144.505 [ms]
[OGL LOG][Proc: 0]p_rhs: call_update: 4.89 [ms]
[OGL LOG][Proc: 0]p: init_precond: 0.048 [ms]
[OGL LOG][StoppingCriterion.H:239] Creating stopping criterion with minIter 2319 frequency 11
[OGL LOG][Proc: 0]p: generate_solver: 0.022 [ms]
[OGL LOG][Proc: 0]p: solve: 12450.9 [ms]
[OGL LOG][Proc: 0]p: copy_x_back: 4.771 [ms]
[OGL LOG][lduLduBase.H:330] 
Statistics:
	Time per iteration: 3223 [mu s]
	Time per residual norm calculation: 261.000000 [mu s]
	Time per iteration and DOF: 0.025784 [ns]
	Retrieve results bandwidth 3.301000 [GByte/s]
[OGL LOG][Proc: 0]p: solve_multi_gpu: 12612.4 [ms]
nonedpcppGKOCG:  Solving for p, Initial residual = 0.928753, Final residual = 9.54229e-05, No Iterations 3862
[INFO] SolveP: 12664.2 [ms]
time step continuity errors : sum local = 1.31252e-08, global = 6.19351e-24, cumulative = 5.8808e-22
[INFO] ContinuityError: 37.066 [ms]
[INFO] CorrectBoundary: 2.472 [ms]
[INFO] PISOStep: 13139.1 [ms]
[INFO] TimeStep: 28252 [ms]
ExecutionTime = 152 s  ClockTime = 156 s

Time = 0.0006

Courant Number mean: 0.0227259 max: 0.487343
[INFO] MatrixAssemblyU: 194.045 [ms]
DILUPBiCGStab:  Solving for Ux, Initial residual = 0.0436508, Final residual = 0.00643208, No Iterations 5
DILUPBiCGStab:  Solving for Uy, Initial residual = 0.233184, Final residual = 0.0268994, No Iterations 5
DILUPBiCGStab:  Solving for Uz, Initial residual = 0.744136, Final residual = 0.0649052, No Iterations 5
[INFO] MomentumPredictor: 1982.58 [ms]
[INFO] MatrixAssemblyPI: 219.116 [ms]
[INFO] AdjustPhi: 36.774 [ms]
[INFO] ConstrainPressure: 0.002 [ms]
[INFO] MatrixAssemblyPII: 66.528 [ms]
[OGL LOG][Proc: 0]: global_index_init: 0.226 [ms]
[OGL LOG][Proc: 0]p_local_coeffs: call_update: 0 [ms]
[OGL LOG][Proc: 0]p_non_local_coeffs: call_update: 0 [ms]
[OGL LOG][Proc: 0]p: update_local_matrix_data: 43.393 [ms]
[OGL LOG][Proc: 0]p: update_non_local_matrix_data: 0.789 [ms]
[OGL LOG][Proc: 0]p: regenerate_distributed_matrix: 143.968 [ms]
[OGL LOG][Proc: 0]p_matrix: call_update: 144.995 [ms]
[OGL LOG][Proc: 0]p_rhs: call_update: 3.534 [ms]
[OGL LOG][Proc: 0]p: init_precond: 0.049 [ms]
[OGL LOG][StoppingCriterion.H:239] Creating stopping criterion with minIter 2317 frequency 11
[OGL LOG][Proc: 0]p: generate_solver: 0.02 [ms]
[OGL LOG][Proc: 0]p: solve: 12395.6 [ms]
[OGL LOG][Proc: 0]p: copy_x_back: 3.768 [ms]
[OGL LOG][lduLduBase.H:330] 
Statistics:
	Time per iteration: 3209 [mu s]
	Time per residual norm calculation: 254.000000 [mu s]
	Time per iteration and DOF: 0.025672 [ns]
	Retrieve results bandwidth 4.179000 [GByte/s]
[OGL LOG][Proc: 0]p: solve_multi_gpu: 12555.2 [ms]
nonedpcppGKOCG:  Solving for p, Initial residual = 0.973567, Final residual = 9.26691e-05, No Iterations 3862
[INFO] SolveP: 12605.9 [ms]
time step continuity errors : sum local = 1.62111e-08, global = -1.73956e-22, cumulative = 4.14124e-22
[INFO] ContinuityError: 47.622 [ms]
[INFO] CorrectBoundary: 2.182 [ms]
[INFO] PISOStep: 13066.1 [ms]
[INFO] MatrixAssemblyPI: 223.51 [ms]
[INFO] AdjustPhi: 39.219 [ms]
[INFO] ConstrainPressure: 0.002 [ms]
[INFO] MatrixAssemblyPII: 71.158 [ms]
[OGL LOG][Proc: 0]: global_index_init: 0.171 [ms]
[OGL LOG][Proc: 0]p_local_coeffs: call_update: 0 [ms]
[OGL LOG][Proc: 0]p_non_local_coeffs: call_update: 0 [ms]
[OGL LOG][Proc: 0]p: update_local_matrix_data: 43.848 [ms]
[OGL LOG][Proc: 0]p: update_non_local_matrix_data: 0.724 [ms]
[OGL LOG][Proc: 0]p: regenerate_distributed_matrix: 142.399 [ms]
[OGL LOG][Proc: 0]p_matrix: call_update: 143.241 [ms]
[OGL LOG][Proc: 0]p_rhs: call_update: 4.031 [ms]
[OGL LOG][Proc: 0]p: init_precond: 0.048 [ms]
[OGL LOG][StoppingCriterion.H:239] Creating stopping criterion with minIter 2317 frequency 11
[OGL LOG][Proc: 0]p: generate_solver: 0.02 [ms]
[OGL LOG][Proc: 0]p: solve: 12313.6 [ms]
[OGL LOG][Proc: 0]p: copy_x_back: 3.658 [ms]
[OGL LOG][lduLduBase.H:330] 
Statistics:
	Time per iteration: 3197 [mu s]
	Time per residual norm calculation: 247.000000 [mu s]
	Time per iteration and DOF: 0.025576 [ns]
	Retrieve results bandwidth 4.305000 [GByte/s]
[OGL LOG][Proc: 0]p: solve_multi_gpu: 12472.1 [ms]
nonedpcppGKOCG:  Solving for p, Initial residual = 0.915974, Final residual = 9.71162e-05, No Iterations 3851
[INFO] SolveP: 12523.6 [ms]
time step continuity errors : sum local = 1.72389e-08, global = -3.00856e-22, cumulative = 1.13268e-22
[INFO] ContinuityError: 44.718 [ms]
[INFO] CorrectBoundary: 1.94 [ms]
[INFO] PISOStep: 12992.6 [ms]
[INFO] TimeStep: 28266.1 [ms]
ExecutionTime = 180.28 s  ClockTime = 184 s

Time = 0.0007

Courant Number mean: 0.0247466 max: 0.761828
[INFO] MatrixAssemblyU: 201.807 [ms]
DILUPBiCGStab:  Solving for Ux, Initial residual = 0.0471095, Final residual = 0.0062216, No Iterations 5
DILUPBiCGStab:  Solving for Uy, Initial residual = 0.260121, Final residual = 0.0266615, No Iterations 5
DILUPBiCGStab:  Solving for Uz, Initial residual = 0.74855, Final residual = 0.0591781, No Iterations 5
[INFO] MomentumPredictor: 1967.75 [ms]
[INFO] MatrixAssemblyPI: 226.373 [ms]
[INFO] AdjustPhi: 28.87 [ms]
[INFO] ConstrainPressure: 0.002 [ms]
[INFO] MatrixAssemblyPII: 73.395 [ms]
[OGL LOG][Proc: 0]: global_index_init: 0.11 [ms]
[OGL LOG][Proc: 0]p_local_coeffs: call_update: 0 [ms]
[OGL LOG][Proc: 0]p_non_local_coeffs: call_update: 0 [ms]
[OGL LOG][Proc: 0]p: update_local_matrix_data: 47.526 [ms]
[OGL LOG][Proc: 0]p: update_non_local_matrix_data: 0.731 [ms]
[OGL LOG][Proc: 0]p: regenerate_distributed_matrix: 136.749 [ms]
[OGL LOG][Proc: 0]p_matrix: call_update: 137.597 [ms]
[OGL LOG][Proc: 0]p_rhs: call_update: 4.453 [ms]
[OGL LOG][Proc: 0]p: init_precond: 0.048 [ms]
[OGL LOG][StoppingCriterion.H:239] Creating stopping criterion with minIter 2310 frequency 11
[OGL LOG][Proc: 0]p: generate_solver: 0.02 [ms]
[OGL LOG][Proc: 0]p: solve: 12392.1 [ms]
[OGL LOG][Proc: 0]p: copy_x_back: 4.8 [ms]
[OGL LOG][lduLduBase.H:330] 
Statistics:
	Time per iteration: 3217 [mu s]
	Time per residual norm calculation: 272.000000 [mu s]
	Time per iteration and DOF: 0.025736 [ns]
	Retrieve results bandwidth 3.281000 [GByte/s]
[OGL LOG][Proc: 0]p: solve_multi_gpu: 12543.6 [ms]
nonedpcppGKOCG:  Solving for p, Initial residual = 0.978823, Final residual = 8.89443e-05, No Iterations 3851
[INFO] SolveP: 12598.7 [ms]
time step continuity errors : sum local = 1.95888e-08, global = -2.08884e-22, cumulative = -9.56159e-23
[INFO] ContinuityError: 35.501 [ms]
[INFO] CorrectBoundary: 3.985 [ms]
[INFO] PISOStep: 13062.1 [ms]
[INFO] MatrixAssemblyPI: 210.95 [ms]
[INFO] AdjustPhi: 54.515 [ms]
[INFO] ConstrainPressure: 0.002 [ms]
[INFO] MatrixAssemblyPII: 67.276 [ms]
[OGL LOG][Proc: 0]: global_index_init: 0.072 [ms]
[OGL LOG][Proc: 0]p_local_coeffs: call_update: 0 [ms]
[OGL LOG][Proc: 0]p_non_local_coeffs: call_update: 0 [ms]
[OGL LOG][Proc: 0]p: update_local_matrix_data: 34.897 [ms]
[OGL LOG][Proc: 0]p: update_non_local_matrix_data: 0.796 [ms]
[OGL LOG][Proc: 0]p: regenerate_distributed_matrix: 143.446 [ms]
[OGL LOG][Proc: 0]p_matrix: call_update: 144.236 [ms]
[OGL LOG][Proc: 0]p_rhs: call_update: 4.435 [ms]
[OGL LOG][Proc: 0]p: init_precond: 0.05 [ms]
[OGL LOG][StoppingCriterion.H:239] Creating stopping criterion with minIter 2310 frequency 11
[OGL LOG][Proc: 0]p: generate_solver: 0.021 [ms]
[OGL LOG][Proc: 0]p: solve: 12347.8 [ms]
[OGL LOG][Proc: 0]p: copy_x_back: 3.944 [ms]
[OGL LOG][lduLduBase.H:330] 
Statistics:
	Time per iteration: 3215 [mu s]
	Time per residual norm calculation: 262.000000 [mu s]
	Time per iteration and DOF: 0.025720 [ns]
	Retrieve results bandwidth 3.993000 [GByte/s]
[OGL LOG][Proc: 0]p: solve_multi_gpu: 12517.7 [ms]
nonedpcppGKOCG:  Solving for p, Initial residual = 0.93117, Final residual = 9.67551e-05, No Iterations 3840
[INFO] SolveP: 12562.1 [ms]
time step continuity errors : sum local = 2.13635e-08, global = -3.62305e-23, cumulative = -1.31846e-22
[INFO] ContinuityError: 42.403 [ms]
[INFO] CorrectBoundary: 3.768 [ms]
[INFO] PISOStep: 13035 [ms]
[INFO] TimeStep: 28295.7 [ms]
ExecutionTime = 208.58 s  ClockTime = 212 s

Time = 0.0008

Courant Number mean: 0.0262716 max: 0.542325
[INFO] MatrixAssemblyU: 195.783 [ms]
DILUPBiCGStab:  Solving for Ux, Initial residual = 0.0545782, Final residual = 0.00642192, No Iterations 5
DILUPBiCGStab:  Solving for Uy, Initial residual = 0.271217, Final residual = 0.0241578, No Iterations 5
DILUPBiCGStab:  Solving for Uz, Initial residual = 0.742716, Final residual = 0.0555599, No Iterations 5
[INFO] MomentumPredictor: 1947.3 [ms]
[INFO] MatrixAssemblyPI: 223.232 [ms]
[INFO] AdjustPhi: 36.398 [ms]
[INFO] ConstrainPressure: 0.002 [ms]
[INFO] MatrixAssemblyPII: 72.6 [ms]
[OGL LOG][Proc: 0]: global_index_init: 0.151 [ms]
[OGL LOG][Proc: 0]p_local_coeffs: call_update: 0 [ms]
[OGL LOG][Proc: 0]p_non_local_coeffs: call_update: 0 [ms]
[OGL LOG][Proc: 0]p: update_local_matrix_data: 48.181 [ms]
[OGL LOG][Proc: 0]p: update_non_local_matrix_data: 0.705 [ms]
[OGL LOG][Proc: 0]p: regenerate_distributed_matrix: 141.925 [ms]
[OGL LOG][Proc: 0]p_matrix: call_update: 143.026 [ms]
[OGL LOG][Proc: 0]p_rhs: call_update: 3.278 [ms]
[OGL LOG][Proc: 0]p: init_precond: 0.049 [ms]
[OGL LOG][StoppingCriterion.H:239] Creating stopping criterion with minIter 2304 frequency 11
[OGL LOG][Proc: 0]p: generate_solver: 0.021 [ms]
[OGL LOG][Proc: 0]p: solve: 12376 [ms]
[OGL LOG][Proc: 0]p: copy_x_back: 3.967 [ms]
[OGL LOG][lduLduBase.H:330] 
Statistics:
	Time per iteration: 3222 [mu s]
	Time per residual norm calculation: 244.000000 [mu s]
	Time per iteration and DOF: 0.025776 [ns]
	Retrieve results bandwidth 3.970000 [GByte/s]
[OGL LOG][Proc: 0]p: solve_multi_gpu: 12529.3 [ms]
nonedpcppGKOCG:  Solving for p, Initial residual = 0.980926, Final residual = 9.98918e-05, No Iterations 3840
[INFO] SolveP: 12584.6 [ms]
time step continuity errors : sum local = 2.79222e-08, global = 1.78588e-22, cumulative = 4.67418e-23
[INFO] ContinuityError: 32.654 [ms]
[INFO] CorrectBoundary: 0.475 [ms]
[INFO] PISOStep: 13054.8 [ms]
[INFO] MatrixAssemblyPI: 224.259 [ms]
[INFO] AdjustPhi: 36.462 [ms]
[INFO] ConstrainPressure: 0.002 [ms]
[INFO] MatrixAssemblyPII: 67.747 [ms]
[OGL LOG][Proc: 0]: global_index_init: 0.279 [ms]
[OGL LOG][Proc: 0]p_local_coeffs: call_update: 0 [ms]
[OGL LOG][Proc: 0]p_non_local_coeffs: call_update: 0 [ms]
[OGL LOG][Proc: 0]p: update_local_matrix_data: 36.126 [ms]
[OGL LOG][Proc: 0]p: update_non_local_matrix_data: 0.777 [ms]
[OGL LOG][Proc: 0]p: regenerate_distributed_matrix: 141.462 [ms]
[OGL LOG][Proc: 0]p_matrix: call_update: 142.294 [ms]
[OGL LOG][Proc: 0]p_rhs: call_update: 4.895 [ms]
[OGL LOG][Proc: 0]p: init_precond: 0.049 [ms]
[OGL LOG][StoppingCriterion.H:239] Creating stopping criterion with minIter 2304 frequency 10
[OGL LOG][Proc: 0]p: generate_solver: 0.02 [ms]
[OGL LOG][Proc: 0]p: solve: 12200.5 [ms]
[OGL LOG][Proc: 0]p: copy_x_back: 3.853 [ms]
[OGL LOG][lduLduBase.H:330] 
Statistics:
	Time per iteration: 3176 [mu s]
	Time per residual norm calculation: 233.000000 [mu s]
	Time per iteration and DOF: 0.025408 [ns]
	Retrieve results bandwidth 4.087000 [GByte/s]
[OGL LOG][Proc: 0]p: solve_multi_gpu: 12364 [ms]
nonedpcppGKOCG:  Solving for p, Initial residual = 0.922382, Final residual = 9.36712e-05, No Iterations 3841
[INFO] SolveP: 12408.4 [ms]
time step continuity errors : sum local = 2.65394e-08, global = -5.31898e-22, cumulative = -4.85156e-22
[INFO] ContinuityError: 40.895 [ms]
[INFO] CorrectBoundary: 0.488 [ms]
[INFO] PISOStep: 12868.3 [ms]
[INFO] TimeStep: 28102.1 [ms]
ExecutionTime = 236.7 s  ClockTime = 240 s

Time = 0.0009

Courant Number mean: 0.0280663 max: 1.17887
[INFO] MatrixAssemblyU: 199.027 [ms]
DILUPBiCGStab:  Solving for Ux, Initial residual = 0.0625344, Final residual = 0.00640568, No Iterations 5
DILUPBiCGStab:  Solving for Uy, Initial residual = 0.314844, Final residual = 0.0261842, No Iterations 5
DILUPBiCGStab:  Solving for Uz, Initial residual = 0.752866, Final residual = 0.0531597, No Iterations 5
[INFO] MomentumPredictor: 1930.62 [ms]
[INFO] MatrixAssemblyPI: 227.419 [ms]
[INFO] AdjustPhi: 32.325 [ms]
[INFO] ConstrainPressure: 0.002 [ms]
[INFO] MatrixAssemblyPII: 73.189 [ms]
[OGL LOG][Proc: 0]: global_index_init: 0.057 [ms]
[OGL LOG][Proc: 0]p_local_coeffs: call_update: 0 [ms]
[OGL LOG][Proc: 0]p_non_local_coeffs: call_update: 0 [ms]
[OGL LOG][Proc: 0]p: update_local_matrix_data: 47.708 [ms]
[OGL LOG][Proc: 0]p: update_non_local_matrix_data: 0.76 [ms]
[OGL LOG][Proc: 0]p: regenerate_distributed_matrix: 144.235 [ms]
[OGL LOG][Proc: 0]p_matrix: call_update: 145.108 [ms]
[OGL LOG][Proc: 0]p_rhs: call_update: 3.692 [ms]
[OGL LOG][Proc: 0]p: init_precond: 0.049 [ms]
[OGL LOG][StoppingCriterion.H:239] Creating stopping criterion with minIter 2304 frequency 10
[OGL LOG][Proc: 0]p: generate_solver: 0.022 [ms]
[OGL LOG][Proc: 0]p: solve: 12342.1 [ms]
[OGL LOG][Proc: 0]p: copy_x_back: 4.379 [ms]
[OGL LOG][lduLduBase.H:330] 
Statistics:
	Time per iteration: 3213 [mu s]
	Time per residual norm calculation: 296.000000 [mu s]
	Time per iteration and DOF: 0.025704 [ns]
	Retrieve results bandwidth 3.596000 [GByte/s]
[OGL LOG][Proc: 0]p: solve_multi_gpu: 12500.1 [ms]
nonedpcppGKOCG:  Solving for p, Initial residual = 0.982984, Final residual = 9.12794e-05, No Iterations 3841
[INFO] SolveP: 12558.6 [ms]
time step continuity errors : sum local = 3.25667e-08, global = -8.97077e-23, cumulative = -5.74864e-22
[INFO] ContinuityError: 33.753 [ms]
[INFO] CorrectBoundary: 3.486 [ms]
[INFO] PISOStep: 13018.8 [ms]
[INFO] MatrixAssemblyPI: 220.199 [ms]
[INFO] AdjustPhi: 40.887 [ms]
[INFO] ConstrainPressure: 0.002 [ms]
[INFO] MatrixAssemblyPII: 67.561 [ms]
[OGL LOG][Proc: 0]: global_index_init: 0.078 [ms]
[OGL LOG][Proc: 0]p_local_coeffs: call_update: 0 [ms]
[OGL LOG][Proc: 0]p_non_local_coeffs: call_update: 0 [ms]
[OGL LOG][Proc: 0]p: update_local_matrix_data: 36.505 [ms]
[OGL LOG][Proc: 0]p: update_non_local_matrix_data: 0.835 [ms]
[OGL LOG][Proc: 0]p: regenerate_distributed_matrix: 143.673 [ms]
[OGL LOG][Proc: 0]p_matrix: call_update: 144.491 [ms]
[OGL LOG][Proc: 0]p_rhs: call_update: 3.68 [ms]
[OGL LOG][Proc: 0]p: init_precond: 0.05 [ms]
[OGL LOG][StoppingCriterion.H:239] Creating stopping criterion with minIter 2304 frequency 12
[OGL LOG][Proc: 0]p: generate_solver: 0.021 [ms]
[OGL LOG][Proc: 0]p: solve: 12337.6 [ms]
[OGL LOG][Proc: 0]p: copy_x_back: 3.847 [ms]
[OGL LOG][lduLduBase.H:330] 
Statistics:
	Time per iteration: 3222 [mu s]
	Time per residual norm calculation: 256.000000 [mu s]
	Time per iteration and DOF: 0.025776 [ns]
	Retrieve results bandwidth 4.094000 [GByte/s]
[OGL LOG][Proc: 0]p: solve_multi_gpu: 12502.5 [ms]
nonedpcppGKOCG:  Solving for p, Initial residual = 0.93143, Final residual = 9.9542e-05, No Iterations 3829
[INFO] SolveP: 12548.2 [ms]
time step continuity errors : sum local = 3.56986e-08, global = -5.47263e-22, cumulative = -1.12213e-21
[INFO] ContinuityError: 39.459 [ms]
[INFO] CorrectBoundary: 4.106 [ms]
[INFO] PISOStep: 13011.1 [ms]
[INFO] TimeStep: 28199.1 [ms]
ExecutionTime = 264.9 s  ClockTime = 269 s

Time = 0.001

Courant Number mean: 0.0293141 max: 1.20222
[INFO] MatrixAssemblyU: 199.117 [ms]
DILUPBiCGStab:  Solving for Ux, Initial residual = 0.0769554, Final residual = 0.00713448, No Iterations 5
DILUPBiCGStab:  Solving for Uy, Initial residual = 0.338681, Final residual = 0.0250431, No Iterations 5
DILUPBiCGStab:  Solving for Uz, Initial residual = 0.754144, Final residual = 0.0514555, No Iterations 5
[INFO] MomentumPredictor: 1930.09 [ms]
[INFO] MatrixAssemblyPI: 225.65 [ms]
[INFO] AdjustPhi: 32.989 [ms]
[INFO] ConstrainPressure: 0.002 [ms]
[INFO] MatrixAssemblyPII: 73.246 [ms]
[OGL LOG][Proc: 0]: global_index_init: 0.085 [ms]
[OGL LOG][Proc: 0]p_local_coeffs: call_update: 0 [ms]
[OGL LOG][Proc: 0]p_non_local_coeffs: call_update: 0 [ms]
[OGL LOG][Proc: 0]p: update_local_matrix_data: 47.999 [ms]
[OGL LOG][Proc: 0]p: update_non_local_matrix_data: 0.712 [ms]
[OGL LOG][Proc: 0]p: regenerate_distributed_matrix: 143.245 [ms]
[OGL LOG][Proc: 0]p_matrix: call_update: 144.175 [ms]
[OGL LOG][Proc: 0]p_rhs: call_update: 3.402 [ms]
[OGL LOG][Proc: 0]p: init_precond: 0.048 [ms]
[OGL LOG][StoppingCriterion.H:239] Creating stopping criterion with minIter 2297 frequency 11
[OGL LOG][Proc: 0]p: generate_solver: 0.02 [ms]
[OGL LOG][Proc: 0]p: solve: 12356.1 [ms]
[OGL LOG][Proc: 0]p: copy_x_back: 3.644 [ms]
[OGL LOG][lduLduBase.H:330] 
Statistics:
	Time per iteration: 3217 [mu s]
	Time per residual norm calculation: 233.000000 [mu s]
	Time per iteration and DOF: 0.025736 [ns]
	Retrieve results bandwidth 4.322000 [GByte/s]
[OGL LOG][Proc: 0]p: solve_multi_gpu: 12512.7 [ms]
nonedpcppGKOCG:  Solving for p, Initial residual = 0.985164, Final residual = 9.73782e-05, No Iterations 3840
[INFO] SolveP: 12567.9 [ms]
time step continuity errors : sum local = 4.4713e-08, global = 4.98252e-22, cumulative = -6.23874e-22
[INFO] ContinuityError: 38.104 [ms]
[INFO] CorrectBoundary: 1.55 [ms]
[INFO] PISOStep: 13041.2 [ms]
[INFO] MatrixAssemblyPI: 213.053 [ms]
[INFO] AdjustPhi: 52.851 [ms]
[INFO] ConstrainPressure: 0.002 [ms]
[INFO] MatrixAssemblyPII: 70.39 [ms]
[OGL LOG][Proc: 0]: global_index_init: 0.097 [ms]
[OGL LOG][Proc: 0]p_local_coeffs: call_update: 0 [ms]
[OGL LOG][Proc: 0]p_non_local_coeffs: call_update: 0 [ms]
[OGL LOG][Proc: 0]p: update_local_matrix_data: 34.485 [ms]
[OGL LOG][Proc: 0]p: update_non_local_matrix_data: 0.759 [ms]
[OGL LOG][Proc: 0]p: regenerate_distributed_matrix: 146.254 [ms]
[OGL LOG][Proc: 0]p_matrix: call_update: 147.095 [ms]
[OGL LOG][Proc: 0]p_rhs: call_update: 3.866 [ms]
[OGL LOG][Proc: 0]p: init_precond: 0.048 [ms]
[OGL LOG][StoppingCriterion.H:239] Creating stopping criterion with minIter 2304 frequency 10
[OGL LOG][Proc: 0]p: generate_solver: 0.021 [ms]
[OGL LOG][Proc: 0]p: solve: 12271.5 [ms]
[OGL LOG][Proc: 0]p: copy_x_back: 4.464 [ms]
[OGL LOG][lduLduBase.H:330] 
Statistics:
	Time per iteration: 3194 [mu s]
	Time per residual norm calculation: 239.000000 [mu s]
	Time per iteration and DOF: 0.025552 [ns]
	Retrieve results bandwidth 3.528000 [GByte/s]
[OGL LOG][Proc: 0]p: solve_multi_gpu: 12443.6 [ms]
nonedpcppGKOCG:  Solving for p, Initial residual = 0.926116, Final residual = 9.05168e-05, No Iterations 3841
[INFO] SolveP: 12487.7 [ms]
time step continuity errors : sum local = 4.20812e-08, global = -4.72093e-22, cumulative = -1.09597e-21
[INFO] ContinuityError: 42.843 [ms]
[INFO] CorrectBoundary: 2.357 [ms]
[INFO] PISOStep: 12969.2 [ms]
[INFO] TimeStep: 28176.5 [ms]
ExecutionTime = 293.09 s  ClockTime = 297 s

Time = 0.0011

Courant Number mean: 0.031108 max: 2.13322
[INFO] MatrixAssemblyU: 200.35 [ms]
DILUPBiCGStab:  Solving for Ux, Initial residual = 0.0908352, Final residual = 0.00748587, No Iterations 5
DILUPBiCGStab:  Solving for Uy, Initial residual = 0.390323, Final residual = 0.0277025, No Iterations 5
DILUPBiCGStab:  Solving for Uz, Initial residual = 0.762499, Final residual = 0.0503744, No Iterations 5
[INFO] MomentumPredictor: 1946.82 [ms]
[INFO] MatrixAssemblyPI: 226.727 [ms]
[INFO] AdjustPhi: 32.997 [ms]
[INFO] ConstrainPressure: 0.002 [ms]
[INFO] MatrixAssemblyPII: 73.049 [ms]
[OGL LOG][Proc: 0]: global_index_init: 0.056 [ms]
[OGL LOG][Proc: 0]p_local_coeffs: call_update: 0 [ms]
[OGL LOG][Proc: 0]p_non_local_coeffs: call_update: 0 [ms]
[OGL LOG][Proc: 0]p: update_local_matrix_data: 47.807 [ms]
[OGL LOG][Proc: 0]p: update_non_local_matrix_data: 0.814 [ms]
[OGL LOG][Proc: 0]p: regenerate_distributed_matrix: 142.206 [ms]
[OGL LOG][Proc: 0]p_matrix: call_update: 143.038 [ms]
[OGL LOG][Proc: 0]p_rhs: call_update: 4.531 [ms]
[OGL LOG][Proc: 0]p: init_precond: 0.049 [ms]
[OGL LOG][StoppingCriterion.H:239] Creating stopping criterion with minIter 2304 frequency 10
[OGL LOG][Proc: 0]p: generate_solver: 0.022 [ms]
[OGL LOG][Proc: 0]p: solve: 12314.1 [ms]
[OGL LOG][Proc: 0]p: copy_x_back: 3.753 [ms]
[OGL LOG][lduLduBase.H:330] 
Statistics:
	Time per iteration: 3205 [mu s]
	Time per residual norm calculation: 249.000000 [mu s]
	Time per iteration and DOF: 0.025640 [ns]
	Retrieve results bandwidth 4.196000 [GByte/s]
[OGL LOG][Proc: 0]p: solve_multi_gpu: 12471.3 [ms]
nonedpcppGKOCG:  Solving for p, Initial residual = 0.985845, Final residual = 9.48091e-05, No Iterations 3841
[INFO] SolveP: 12529.5 [ms]
time step continuity errors : sum local = 5.64026e-08, global = 6.93963e-22, cumulative = -4.02004e-22
[INFO] ContinuityError: 30.647 [ms]
[INFO] CorrectBoundary: 1.84 [ms]
[INFO] PISOStep: 12998.5 [ms]
[INFO] MatrixAssemblyPI: 214.655 [ms]
[INFO] AdjustPhi: 52.701 [ms]
[INFO] ConstrainPressure: 0.002 [ms]
[INFO] MatrixAssemblyPII: 66.458 [ms]
[OGL LOG][Proc: 0]: global_index_init: 0.209 [ms]
[OGL LOG][Proc: 0]p_local_coeffs: call_update: 0 [ms]
[OGL LOG][Proc: 0]p_non_local_coeffs: call_update: 0 [ms]
[OGL LOG][Proc: 0]p: update_local_matrix_data: 36.118 [ms]
[OGL LOG][Proc: 0]p: update_non_local_matrix_data: 0.698 [ms]
[OGL LOG][Proc: 0]p: regenerate_distributed_matrix: 142.583 [ms]
[OGL LOG][Proc: 0]p_matrix: call_update: 143.387 [ms]
[OGL LOG][Proc: 0]p_rhs: call_update: 4.357 [ms]
[OGL LOG][Proc: 0]p: init_precond: 0.049 [ms]
[OGL LOG][StoppingCriterion.H:239] Creating stopping criterion with minIter 2304 frequency 11
[OGL LOG][Proc: 0]p: generate_solver: 0.019 [ms]
[OGL LOG][Proc: 0]p: solve: 12319.3 [ms]
[OGL LOG][Proc: 0]p: copy_x_back: 3.746 [ms]
[OGL LOG][lduLduBase.H:330] 
Statistics:
	Time per iteration: 3208 [mu s]
	Time per residual norm calculation: 232.000000 [mu s]
	Time per iteration and DOF: 0.025664 [ns]
	Retrieve results bandwidth 4.204000 [GByte/s]
[OGL LOG][Proc: 0]p: solve_multi_gpu: 12486.1 [ms]
nonedpcppGKOCG:  Solving for p, Initial residual = 0.931301, Final residual = 9.10103e-05, No Iterations 3840
[INFO] SolveP: 12529.6 [ms]
time step continuity errors : sum local = 5.4516e-08, global = -5.33697e-22, cumulative = -9.35701e-22
[INFO] ContinuityError: 44.742 [ms]
[INFO] CorrectBoundary: 0.459 [ms]
[INFO] PISOStep: 13010.6 [ms]
[INFO] TimeStep: 28187.7 [ms]
ExecutionTime = 321.29 s  ClockTime = 325 s

Time = 0.0012

Courant Number mean: 0.0322561 max: 2.58815
[INFO] MatrixAssemblyU: 195.82 [ms]
DILUPBiCGStab:  Solving for Ux, Initial residual = 0.115336, Final residual = 0.00873965, No Iterations 5
DILUPBiCGStab:  Solving for Uy, Initial residual = 0.424851, Final residual = 0.0278038, No Iterations 5
DILUPBiCGStab:  Solving for Uz, Initial residual = 0.763959, Final residual = 0.0494165, No Iterations 5
[INFO] MomentumPredictor: 1830.15 [ms]
[INFO] MatrixAssemblyPI: 226.267 [ms]
[INFO] AdjustPhi: 16.371 [ms]
[INFO] ConstrainPressure: 0.002 [ms]
[INFO] MatrixAssemblyPII: 72.665 [ms]
[OGL LOG][Proc: 0]: global_index_init: 0.05 [ms]
[OGL LOG][Proc: 0]p_local_coeffs: call_update: 0 [ms]
[OGL LOG][Proc: 0]p_non_local_coeffs: call_update: 0 [ms]
[OGL LOG][Proc: 0]p: update_local_matrix_data: 47.738 [ms]
[OGL LOG][Proc: 0]p: update_non_local_matrix_data: 0.788 [ms]
[OGL LOG][Proc: 0]p: regenerate_distributed_matrix: 138.409 [ms]
[OGL LOG][Proc: 0]p_matrix: call_update: 139.259 [ms]
[OGL LOG][Proc: 0]p_rhs: call_update: 4.438 [ms]
[OGL LOG][Proc: 0]p: init_precond: 0.048 [ms]
[OGL LOG][StoppingCriterion.H:239] Creating stopping criterion with minIter 2304 frequency 10
[OGL LOG][Proc: 0]p: generate_solver: 0.023 [ms]
[OGL LOG][Proc: 0]p: solve: 13098.3 [ms]
[OGL LOG][Proc: 0]p: copy_x_back: 3.664 [ms]
[OGL LOG][lduLduBase.H:330] 
Statistics:
	Time per iteration: 3410 [mu s]
	Time per residual norm calculation: 278.000000 [mu s]
	Time per iteration and DOF: 0.027280 [ns]
	Retrieve results bandwidth 4.298000 [GByte/s]
[OGL LOG][Proc: 0]p: solve_multi_gpu: 13252.1 [ms]
nonedpcppGKOCG:  Solving for p, Initial residual = 0.987764, Final residual = 9.68948e-05, No Iterations 3841
[INFO] SolveP: 13306.7 [ms]
time step continuity errors : sum local = 7.49649e-08, global = -6.01319e-22, cumulative = -1.53702e-21
[INFO] ContinuityError: 41.213 [ms]
[INFO] CorrectBoundary: 3.4 [ms]
[INFO] PISOStep: 13754.8 [ms]
[INFO] MatrixAssemblyPI: 215.004 [ms]
[INFO] AdjustPhi: 38.804 [ms]
[INFO] ConstrainPressure: 0.002 [ms]
[INFO] MatrixAssemblyPII: 69.599 [ms]
[OGL LOG][Proc: 0]: global_index_init: 0.1 [ms]
[OGL LOG][Proc: 0]p_local_coeffs: call_update: 0 [ms]
[OGL LOG][Proc: 0]p_non_local_coeffs: call_update: 0 [ms]
[OGL LOG][Proc: 0]p: update_local_matrix_data: 34 [ms]
[OGL LOG][Proc: 0]p: update_non_local_matrix_data: 0.749 [ms]
[OGL LOG][Proc: 0]p: regenerate_distributed_matrix: 142.739 [ms]
[OGL LOG][Proc: 0]p_matrix: call_update: 143.548 [ms]
[OGL LOG][Proc: 0]p_rhs: call_update: 4.142 [ms]
[OGL LOG][Proc: 0]p: init_precond: 0.048 [ms]
[OGL LOG][StoppingCriterion.H:239] Creating stopping criterion with minIter 2304 frequency 11
[OGL LOG][Proc: 0]p: generate_solver: 0.02 [ms]
[OGL LOG][Proc: 0]p: solve: 12297.6 [ms]
[OGL LOG][Proc: 0]p: copy_x_back: 4.41 [ms]
[OGL LOG][lduLduBase.H:330] 
Statistics:
	Time per iteration: 3202 [mu s]
	Time per residual norm calculation: 325.000000 [mu s]
	Time per iteration and DOF: 0.025616 [ns]
	Retrieve results bandwidth 3.571000 [GByte/s]
[OGL LOG][Proc: 0]p: solve_multi_gpu: 12465 [ms]
nonedpcppGKOCG:  Solving for p, Initial residual = 0.928371, Final residual = 9.24451e-05, No Iterations 3840
[INFO] SolveP: 12508.7 [ms]
time step continuity errors : sum local = 7.23609e-08, global = -3.26447e-22, cumulative = -1.86347e-21
[INFO] ContinuityError: 41.719 [ms]
[INFO] CorrectBoundary: 2.129 [ms]
[INFO] PISOStep: 12968.8 [ms]
[INFO] TimeStep: 28781.5 [ms]
ExecutionTime = 350.08 s  ClockTime = 354 s

End

Finalising parallel run
