/*---------------------------------------------------------------------------*\
| =========                 |                                                 |
| \\      /  F ield         | OpenFOAM: The Open Source CFD Toolbox           |
|  \\    /   O peration     | Version:  2306                                  |
|   \\  /    A nd           | Website:  www.openfoam.com                      |
|    \\/     M anipulation  |                                                 |
\*---------------------------------------------------------------------------*/
Build  : c423ebec-20231012 OPENFOAM=2306 version=v2306
Arch   : "LSB;label=32;scalar=64"
Exec   : decomposePar -force
Date   : Feb 16 2024
Time   : 09:04:16
Host   : hkn0042.localdomain
PID    : 2912448
--> FOAM Warning : 
    From Foam::fileName Foam::cwd_L()
    in file POSIX.C at line 552
    PWD is not the cwd() - reverting to physical description
I/O    : uncollated
--> FOAM Warning : 
    From Foam::fileName Foam::cwd_L()
    in file POSIX.C at line 552
    PWD is not the cwd() - reverting to physical description
Case   : /hkfs/work/workspace/scratch/eq4036-windsorbody_setup/workspace/5a27a6ed9b89782f640ab8903ca558e1/case
nProcs : 1
trapFpe: Floating point exception trapping enabled (FOAM_SIGFPE).
fileModificationChecking : Monitoring run-time modified files using timeStampMaster (fileModificationSkew 5, maxFileModificationPolls 20)
allowSystemOperations : Allowing user-supplied system call operations

// * * * * * * * * * * * * * * * * * * * * * * * * * * * * * * * * * * * * * //
Create time

--> FOAM Warning : 
    From void* Foam::dlLibraryTable::openLibrary(const Foam::fileName&, bool)
    in file db/dynamicLibrary/dlLibraryTable/dlLibraryTable.C at line 188
    Could not load "libpetscFoam.so"
libpetscFoam.so: cannot open shared object file: No such file or directory


Decomposing mesh

Create mesh

Calculating distribution of cells
Decomposition method simple [304] (region region0)

Finished decomposition in 35.75 s

Calculating original mesh data

Distributing cells to processors

Distributing faces to processors

Distributing points to processors

Constructing processor meshes

Processor 0
    Number of cells = 204402
    Number of points = 221507
    Number of faces shared with processor 1 = 1171
    Number of faces shared with processor 4 = 7458
    Number of faces shared with processor 152 = 6406
    Number of processor patches = 3
    Number of processor faces = 15035
    Number of boundary faces = 13823

Processor 1
    Number of cells = 131728
    Number of points = 141958
    Number of faces shared with processor 0 = 1171
    Number of faces shared with processor 2 = 1235
    Number of faces shared with processor 5 = 4256
    Number of faces shared with processor 153 = 4233
    Number of faces shared with processor 157 = 1
    Number of processor patches = 5
    Number of processor faces = 10896
    Number of boundary faces = 6858

Processor 2
    Number of cells = 129006
    Number of points = 139216
    Number of faces shared with processor 1 = 1235
    Number of faces shared with processor 3 = 1204
    Number of faces shared with processor 6 = 4118
    Number of faces shared with processor 153 = 1
    Number of faces shared with processor 154 = 4204
    Number of processor patches = 5
    Number of processor faces = 10762
    Number of boundary faces = 6333

Processor 3
    Number of cells = 220772
    Number of points = 236466
    Number of faces shared with processor 2 = 1204
    Number of faces shared with processor 7 = 6301
    Number of faces shared with processor 155 = 6260
    Number of processor patches = 3
    Number of processor faces = 13765
    Number of boundary faces = 14063

Processor 4
    Number of cells = 193074
    Number of points = 208432
    Number of faces shared with processor 0 = 7458
    Number of faces shared with processor 5 = 667
    Number of faces shared with processor 8 = 6280
    Number of faces shared with processor 152 = 23
    Number of faces shared with processor 156 = 1769
    Number of faces shared with processor 160 = 1
    Number of processor patches = 6
    Number of processor faces = 16198
    Number of boundary faces = 17194

Processor 5
    Number of cells = 121752
    Number of points = 131343
    Number of faces shared with processor 1 = 4256
    Number of faces shared with processor 4 = 667
    Number of faces shared with processor 6 = 841
    Number of faces shared with processor 9 = 4238
    Number of faces shared with processor 157 = 3913
    Number of faces shared with processor 161 = 1
    Number of processor patches = 6
    Number of processor faces = 13916
    Number of boundary faces = 5101

Processor 6
    Number of cells = 119422
    Number of points = 128700
    Number of faces shared with processor 2 = 4118
    Number of faces shared with processor 5 = 841
    Number of faces shared with processor 7 = 841
    Number of faces shared with processor 10 = 4118
    Number of faces shared with processor 158 = 4118
    Number of processor patches = 5
    Number of processor faces = 14036
    Number of boundary faces = 4118

Processor 7
    Number of cells = 158642
    Number of points = 174091
    Number of faces shared with processor 3 = 6301
    Number of faces shared with processor 6 = 841
    Number of faces shared with processor 11 = 6674
    Number of faces shared with processor 155 = 2
    Number of faces shared with processor 159 = 3296
    Number of faces shared with processor 163 = 2
    Number of processor patches = 6
    Number of processor faces = 17116
    Number of boundary faces = 8292

Processor 8
    Number of cells = 171406
    Number of points = 186006
    Number of faces shared with processor 4 = 6280
    Number of faces shared with processor 9 = 713
    Number of faces shared with processor 12 = 6403
    Number of faces shared with processor 160 = 954
    Number of processor patches = 4
    Number of processor faces = 14350
    Number of boundary faces = 14340

Processor 9
    Number of cells = 127721
    Number of points = 137560
    Number of faces shared with processor 5 = 4238
    Number of faces shared with processor 8 = 713
    Number of faces shared with processor 10 = 870
    Number of faces shared with processor 13 = 4189
    Number of faces shared with processor 161 = 4081
    Number of processor patches = 5
    Number of processor faces = 14091
    Number of boundary faces = 5406

Processor 10
    Number of cells = 123530
    Number of points = 132980
    Number of faces shared with processor 6 = 4118
    Number of faces shared with processor 9 = 870
    Number of faces shared with processor 11 = 878
    Number of faces shared with processor 14 = 4113
    Number of faces shared with processor 15 = 1
    Number of faces shared with processor 162 = 4255
    Number of faces shared with processor 163 = 1
    Number of processor patches = 7
    Number of processor faces = 14236
    Number of boundary faces = 4260

Processor 11
    Number of cells = 169586
    Number of points = 186113
    Number of faces shared with processor 7 = 6674
    Number of faces shared with processor 10 = 878
    Number of faces shared with processor 15 = 6426
    Number of faces shared with processor 163 = 3590
    Number of processor patches = 4
    Number of processor faces = 17568
    Number of boundary faces = 8832

Processor 12
    Number of cells = 196315
    Number of points = 212612
    Number of faces shared with processor 8 = 6403
    Number of faces shared with processor 13 = 751
    Number of faces shared with processor 16 = 6808
    Number of faces shared with processor 160 = 5
    Number of faces shared with processor 164 = 2951
    Number of processor patches = 5
    Number of processor faces = 16918
    Number of boundary faces = 17038

Processor 13
    Number of cells = 114906
    Number of points = 124293
    Number of faces shared with processor 9 = 4189
    Number of faces shared with processor 12 = 751
    Number of faces shared with processor 14 = 783
    Number of faces shared with processor 17 = 4036
    Number of faces shared with processor 165 = 3813
    Number of processor patches = 5
    Number of processor faces = 13572
    Number of boundary faces = 4852

Processor 14
    Number of cells = 114422
    Number of points = 123510
    Number of faces shared with processor 10 = 4113
    Number of faces shared with processor 13 = 783
    Number of faces shared with processor 15 = 854
    Number of faces shared with processor 18 = 4140
    Number of faces shared with processor 166 = 3922
    Number of faces shared with processor 170 = 1
    Number of processor patches = 6
    Number of processor faces = 13813
    Number of boundary faces = 3963

Processor 15
    Number of cells = 150199
    Number of points = 165459
    Number of faces shared with processor 10 = 1
    Number of faces shared with processor 11 = 6426
    Number of faces shared with processor 14 = 854
    Number of faces shared with processor 19 = 6674
    Number of faces shared with processor 163 = 2
    Number of faces shared with processor 167 = 3148
    Number of faces shared with processor 171 = 1
    Number of processor patches = 7
    Number of processor faces = 17106
    Number of boundary faces = 7786

Processor 16
    Number of cells = 231611
    Number of points = 253178
    Number of faces shared with processor 12 = 6808
    Number of faces shared with processor 17 = 1446
    Number of faces shared with processor 20 = 5567
    Number of faces shared with processor 21 = 1
    Number of faces shared with processor 164 = 51
    Number of faces shared with processor 168 = 8353
    Number of faces shared with processor 169 = 3
    Number of faces shared with processor 172 = 1
    Number of processor patches = 8
    Number of processor faces = 22230
    Number of boundary faces = 14966

Processor 17
    Number of cells = 139148
    Number of points = 152376
    Number of faces shared with processor 13 = 4036
    Number of faces shared with processor 16 = 1446
    Number of faces shared with processor 18 = 1588
    Number of faces shared with processor 21 = 2856
    Number of faces shared with processor 169 = 4816
    Number of faces shared with processor 170 = 1
    Number of processor patches = 6
    Number of processor faces = 14743
    Number of boundary faces = 7684

Processor 18
    Number of cells = 134210
    Number of points = 146847
    Number of faces shared with processor 14 = 4140
    Number of faces shared with processor 17 = 1588
    Number of faces shared with processor 19 = 1578
    Number of faces shared with processor 22 = 2714
    Number of faces shared with processor 23 = 1
    Number of faces shared with processor 169 = 1
    Number of faces shared with processor 170 = 4650
    Number of processor patches = 7
    Number of processor faces = 14672
    Number of boundary faces = 7430

Processor 19
    Number of cells = 259027
    Number of points = 281425
    Number of faces shared with processor 15 = 6674
    Number of faces shared with processor 18 = 1578
    Number of faces shared with processor 23 = 6171
    Number of faces shared with processor 170 = 1
    Number of faces shared with processor 171 = 9013
    Number of processor patches = 5
    Number of processor faces = 23437
    Number of boundary faces = 16570

Processor 20
    Number of cells = 205591
    Number of points = 223774
    Number of faces shared with processor 16 = 5567
    Number of faces shared with processor 21 = 916
    Number of faces shared with processor 24 = 7794
    Number of faces shared with processor 168 = 2
    Number of faces shared with processor 172 = 4167
    Number of faces shared with processor 176 = 3
    Number of processor patches = 6
    Number of processor faces = 18449
    Number of boundary faces = 14583

Processor 21
    Number of cells = 129247
    Number of points = 139516
    Number of faces shared with processor 16 = 1
    Number of faces shared with processor 17 = 2856
    Number of faces shared with processor 20 = 916
    Number of faces shared with processor 22 = 888
    Number of faces shared with processor 25 = 4316
    Number of faces shared with processor 173 = 3730
    Number of processor patches = 6
    Number of processor faces = 12707
    Number of boundary faces = 5837

Processor 22
    Number of cells = 121827
    Number of points = 131626
    Number of faces shared with processor 18 = 2714
    Number of faces shared with processor 21 = 888
    Number of faces shared with processor 23 = 913
    Number of faces shared with processor 26 = 4089
    Number of faces shared with processor 174 = 3669
    Number of faces shared with processor 175 = 1
    Number of processor patches = 6
    Number of processor faces = 12274
    Number of boundary faces = 4967

Processor 23
    Number of cells = 185934
    Number of points = 201003
    Number of faces shared with processor 18 = 1
    Number of faces shared with processor 19 = 6171
    Number of faces shared with processor 22 = 913
    Number of faces shared with processor 27 = 6537
    Number of faces shared with processor 171 = 3
    Number of faces shared with processor 175 = 3592
    Number of processor patches = 6
    Number of processor faces = 17217
    Number of boundary faces = 10204

Processor 24
    Number of cells = 174765
    Number of points = 189573
    Number of faces shared with processor 20 = 7794
    Number of faces shared with processor 25 = 690
    Number of faces shared with processor 28 = 6258
    Number of faces shared with processor 176 = 926
    Number of processor patches = 4
    Number of processor faces = 15668
    Number of boundary faces = 14954

Processor 25
    Number of cells = 130377
    Number of points = 140308
    Number of faces shared with processor 21 = 4316
    Number of faces shared with processor 24 = 690
    Number of faces shared with processor 26 = 883
    Number of faces shared with processor 29 = 4352
    Number of faces shared with processor 173 = 2
    Number of faces shared with processor 177 = 4090
    Number of processor patches = 6
    Number of processor faces = 14333
    Number of boundary faces = 5377

Processor 26
    Number of cells = 123742
    Number of points = 133241
    Number of faces shared with processor 22 = 4089
    Number of faces shared with processor 25 = 883
    Number of faces shared with processor 27 = 899
    Number of faces shared with processor 30 = 4165
    Number of faces shared with processor 178 = 4285
    Number of faces shared with processor 182 = 1
    Number of processor patches = 6
    Number of processor faces = 14322
    Number of boundary faces = 4270

Processor 27
    Number of cells = 172745
    Number of points = 189213
    Number of faces shared with processor 23 = 6537
    Number of faces shared with processor 26 = 899
    Number of faces shared with processor 31 = 6778
    Number of faces shared with processor 175 = 1
    Number of faces shared with processor 179 = 3557
    Number of faces shared with processor 183 = 1
    Number of processor patches = 6
    Number of processor faces = 17773
    Number of boundary faces = 8898

Processor 28
    Number of cells = 167042
    Number of points = 181486
    Number of faces shared with processor 24 = 6258
    Number of faces shared with processor 29 = 713
    Number of faces shared with processor 32 = 6386
    Number of faces shared with processor 176 = 1
    Number of faces shared with processor 180 = 926
    Number of processor patches = 5
    Number of processor faces = 14284
    Number of boundary faces = 13947

Processor 29
    Number of cells = 134681
    Number of points = 144809
    Number of faces shared with processor 25 = 4352
    Number of faces shared with processor 28 = 713
    Number of faces shared with processor 30 = 930
    Number of faces shared with processor 33 = 4378
    Number of faces shared with processor 181 = 4129
    Number of processor patches = 5
    Number of processor faces = 14502
    Number of boundary faces = 5582

Processor 30
    Number of cells = 127623
    Number of points = 137285
    Number of faces shared with processor 26 = 4165
    Number of faces shared with processor 29 = 930
    Number of faces shared with processor 31 = 870
    Number of faces shared with processor 34 = 4176
    Number of faces shared with processor 178 = 2
    Number of faces shared with processor 182 = 4444
    Number of processor patches = 6
    Number of processor faces = 14587
    Number of boundary faces = 4331

Processor 31
    Number of cells = 168211
    Number of points = 184786
    Number of faces shared with processor 27 = 6778
    Number of faces shared with processor 30 = 870
    Number of faces shared with processor 35 = 6811
    Number of faces shared with processor 179 = 1
    Number of faces shared with processor 183 = 3558
    Number of faces shared with processor 187 = 1
    Number of processor patches = 6
    Number of processor faces = 18019
    Number of boundary faces = 8628

Processor 32
    Number of cells = 195066
    Number of points = 211462
    Number of faces shared with processor 28 = 6386
    Number of faces shared with processor 33 = 753
    Number of faces shared with processor 36 = 5481
    Number of faces shared with processor 180 = 3
    Number of faces shared with processor 184 = 3299
    Number of faces shared with processor 188 = 1
    Number of processor patches = 6
    Number of processor faces = 15923
    Number of boundary faces = 15804

Processor 33
    Number of cells = 118091
    Number of points = 127715
    Number of faces shared with processor 29 = 4378
    Number of faces shared with processor 32 = 753
    Number of faces shared with processor 34 = 810
    Number of faces shared with processor 37 = 4189
    Number of faces shared with processor 185 = 3813
    Number of processor patches = 5
    Number of processor faces = 13943
    Number of boundary faces = 4681

Processor 34
    Number of cells = 116828
    Number of points = 126025
    Number of faces shared with processor 30 = 4176
    Number of faces shared with processor 33 = 810
    Number of faces shared with processor 35 = 813
    Number of faces shared with processor 38 = 4283
    Number of faces shared with processor 182 = 2
    Number of faces shared with processor 186 = 3981
    Number of faces shared with processor 187 = 1
    Number of faces shared with processor 190 = 1
    Number of processor patches = 8
    Number of processor faces = 14067
    Number of boundary faces = 3927

Processor 35
    Number of cells = 156127
    Number of points = 171891
    Number of faces shared with processor 31 = 6811
    Number of faces shared with processor 34 = 813
    Number of faces shared with processor 39 = 6805
    Number of faces shared with processor 183 = 2
    Number of faces shared with processor 187 = 3206
    Number of processor patches = 5
    Number of processor faces = 17637
    Number of boundary faces = 8006

Processor 36
    Number of cells = 256765
    Number of points = 278145
    Number of faces shared with processor 32 = 5481
    Number of faces shared with processor 37 = 1608
    Number of faces shared with processor 40 = 5713
    Number of faces shared with processor 188 = 8483
    Number of faces shared with processor 189 = 1
    Number of processor patches = 5
    Number of processor faces = 21286
    Number of boundary faces = 16527

Processor 37
    Number of cells = 148855
    Number of points = 164104
    Number of faces shared with processor 33 = 4189
    Number of faces shared with processor 36 = 1608
    Number of faces shared with processor 38 = 1734
    Number of faces shared with processor 40 = 1
    Number of faces shared with processor 41 = 4277
    Number of faces shared with processor 189 = 4224
    Number of faces shared with processor 190 = 1
    Number of faces shared with processor 193 = 1
    Number of processor patches = 8
    Number of processor faces = 16035
    Number of boundary faces = 8708

Processor 38
    Number of cells = 144347
    Number of points = 159390
    Number of faces shared with processor 34 = 4283
    Number of faces shared with processor 37 = 1734
    Number of faces shared with processor 39 = 1721
    Number of faces shared with processor 42 = 4260
    Number of faces shared with processor 189 = 1
    Number of faces shared with processor 190 = 4174
    Number of faces shared with processor 191 = 1
    Number of processor patches = 7
    Number of processor faces = 16174
    Number of boundary faces = 8489

Processor 39
    Number of cells = 292750
    Number of points = 315892
    Number of faces shared with processor 35 = 6805
    Number of faces shared with processor 38 = 1721
    Number of faces shared with processor 43 = 6550
    Number of faces shared with processor 187 = 4
    Number of faces shared with processor 191 = 9488
    Number of processor patches = 5
    Number of processor faces = 24568
    Number of boundary faces = 18704

Processor 40
    Number of cells = 193152
    Number of points = 209203
    Number of faces shared with processor 36 = 5713
    Number of faces shared with processor 37 = 1
    Number of faces shared with processor 41 = 777
    Number of faces shared with processor 44 = 6404
    Number of faces shared with processor 188 = 1
    Number of faces shared with processor 192 = 3413
    Number of processor patches = 6
    Number of processor faces = 16309
    Number of boundary faces = 15444

Processor 41
    Number of cells = 120018
    Number of points = 129691
    Number of faces shared with processor 37 = 4277
    Number of faces shared with processor 40 = 777
    Number of faces shared with processor 42 = 810
    Number of faces shared with processor 45 = 4329
    Number of faces shared with processor 193 = 3862
    Number of processor patches = 5
    Number of processor faces = 14055
    Number of boundary faces = 4880

Processor 42
    Number of cells = 116711
    Number of points = 125912
    Number of faces shared with processor 38 = 4260
    Number of faces shared with processor 41 = 810
    Number of faces shared with processor 43 = 840
    Number of faces shared with processor 46 = 4313
    Number of faces shared with processor 194 = 3876
    Number of faces shared with processor 198 = 1
    Number of processor patches = 6
    Number of processor faces = 14100
    Number of boundary faces = 3900

Processor 43
    Number of cells = 157358
    Number of points = 172281
    Number of faces shared with processor 39 = 6550
    Number of faces shared with processor 42 = 840
    Number of faces shared with processor 47 = 6598
    Number of faces shared with processor 191 = 2
    Number of faces shared with processor 195 = 3215
    Number of faces shared with processor 199 = 2
    Number of processor patches = 6
    Number of processor faces = 17207
    Number of boundary faces = 8072

Processor 44
    Number of cells = 167858
    Number of points = 182467
    Number of faces shared with processor 40 = 6404
    Number of faces shared with processor 45 = 713
    Number of faces shared with processor 48 = 6414
    Number of faces shared with processor 192 = 2
    Number of faces shared with processor 196 = 915
    Number of processor patches = 5
    Number of processor faces = 14448
    Number of boundary faces = 14088

Processor 45
    Number of cells = 134023
    Number of points = 144100
    Number of faces shared with processor 41 = 4329
    Number of faces shared with processor 44 = 713
    Number of faces shared with processor 46 = 930
    Number of faces shared with processor 49 = 4340
    Number of faces shared with processor 197 = 4131
    Number of processor patches = 5
    Number of processor faces = 14443
    Number of boundary faces = 5524

Processor 46
    Number of cells = 130369
    Number of points = 140122
    Number of faces shared with processor 42 = 4313
    Number of faces shared with processor 45 = 930
    Number of faces shared with processor 47 = 900
    Number of faces shared with processor 50 = 4260
    Number of faces shared with processor 198 = 4359
    Number of processor patches = 5
    Number of processor faces = 14762
    Number of boundary faces = 4336

Processor 47
    Number of cells = 169262
    Number of points = 185555
    Number of faces shared with processor 43 = 6598
    Number of faces shared with processor 46 = 900
    Number of faces shared with processor 51 = 6582
    Number of faces shared with processor 199 = 3488
    Number of faces shared with processor 203 = 1
    Number of processor patches = 5
    Number of processor faces = 17569
    Number of boundary faces = 8626

Processor 48
    Number of cells = 177244
    Number of points = 192982
    Number of faces shared with processor 44 = 6414
    Number of faces shared with processor 49 = 690
    Number of faces shared with processor 52 = 7561
    Number of faces shared with processor 196 = 1
    Number of faces shared with processor 200 = 945
    Number of faces shared with processor 204 = 2
    Number of processor patches = 6
    Number of processor faces = 15613
    Number of boundary faces = 14980

Processor 49
    Number of cells = 129940
    Number of points = 139897
    Number of faces shared with processor 45 = 4340
    Number of faces shared with processor 48 = 690
    Number of faces shared with processor 50 = 900
    Number of faces shared with processor 53 = 4369
    Number of faces shared with processor 201 = 4020
    Number of faces shared with processor 205 = 1
    Number of processor patches = 6
    Number of processor faces = 14320
    Number of boundary faces = 5454

Processor 50
    Number of cells = 129680
    Number of points = 139406
    Number of faces shared with processor 46 = 4260
    Number of faces shared with processor 49 = 900
    Number of faces shared with processor 51 = 930
    Number of faces shared with processor 54 = 4313
    Number of faces shared with processor 202 = 4308
    Number of faces shared with processor 206 = 1
    Number of processor patches = 6
    Number of processor faces = 14712
    Number of boundary faces = 4332

Processor 51
    Number of cells = 174383
    Number of points = 190963
    Number of faces shared with processor 47 = 6582
    Number of faces shared with processor 50 = 930
    Number of faces shared with processor 55 = 6854
    Number of faces shared with processor 203 = 3528
    Number of processor patches = 4
    Number of processor faces = 17894
    Number of boundary faces = 8896

Processor 52
    Number of cells = 210373
    Number of points = 228109
    Number of faces shared with processor 48 = 7561
    Number of faces shared with processor 53 = 895
    Number of faces shared with processor 56 = 5626
    Number of faces shared with processor 57 = 1
    Number of faces shared with processor 204 = 4293
    Number of faces shared with processor 205 = 1
    Number of processor patches = 6
    Number of processor faces = 18377
    Number of boundary faces = 15345

Processor 53
    Number of cells = 129619
    Number of points = 139973
    Number of faces shared with processor 49 = 4369
    Number of faces shared with processor 52 = 895
    Number of faces shared with processor 54 = 936
    Number of faces shared with processor 57 = 2819
    Number of faces shared with processor 201 = 2
    Number of faces shared with processor 205 = 3735
    Number of processor patches = 6
    Number of processor faces = 12756
    Number of boundary faces = 5579

Processor 54
    Number of cells = 124408
    Number of points = 133972
    Number of faces shared with processor 50 = 4313
    Number of faces shared with processor 53 = 936
    Number of faces shared with processor 55 = 906
    Number of faces shared with processor 57 = 1
    Number of faces shared with processor 58 = 2774
    Number of faces shared with processor 59 = 1
    Number of faces shared with processor 206 = 3495
    Number of processor patches = 7
    Number of processor faces = 12426
    Number of boundary faces = 4962

Processor 55
    Number of cells = 185505
    Number of points = 201782
    Number of faces shared with processor 51 = 6854
    Number of faces shared with processor 54 = 906
    Number of faces shared with processor 59 = 6095
    Number of faces shared with processor 203 = 2
    Number of faces shared with processor 207 = 3596
    Number of faces shared with processor 211 = 1
    Number of processor patches = 6
    Number of processor faces = 17454
    Number of boundary faces = 9915

Processor 56
    Number of cells = 231330
    Number of points = 253052
    Number of faces shared with processor 52 = 5626
    Number of faces shared with processor 57 = 1531
    Number of faces shared with processor 60 = 6926
    Number of faces shared with processor 208 = 7894
    Number of faces shared with processor 212 = 63
    Number of processor patches = 5
    Number of processor faces = 22040
    Number of boundary faces = 14722

Processor 57
    Number of cells = 144839
    Number of points = 158816
    Number of faces shared with processor 52 = 1
    Number of faces shared with processor 53 = 2819
    Number of faces shared with processor 54 = 1
    Number of faces shared with processor 56 = 1531
    Number of faces shared with processor 58 = 1736
    Number of faces shared with processor 61 = 4661
    Number of faces shared with processor 208 = 1
    Number of faces shared with processor 209 = 4772
    Number of faces shared with processor 210 = 2
    Number of faces shared with processor 213 = 1
    Number of processor patches = 10
    Number of processor faces = 15525
    Number of boundary faces = 7667

Processor 58
    Number of cells = 142061
    Number of points = 155559
    Number of faces shared with processor 54 = 2774
    Number of faces shared with processor 57 = 1736
    Number of faces shared with processor 59 = 1660
    Number of faces shared with processor 62 = 4371
    Number of faces shared with processor 209 = 3
    Number of faces shared with processor 210 = 4760
    Number of faces shared with processor 211 = 2
    Number of processor patches = 7
    Number of processor faces = 15306
    Number of boundary faces = 7537

Processor 59
    Number of cells = 267985
    Number of points = 290018
    Number of faces shared with processor 54 = 1
    Number of faces shared with processor 55 = 6095
    Number of faces shared with processor 58 = 1660
    Number of faces shared with processor 63 = 6619
    Number of faces shared with processor 207 = 2
    Number of faces shared with processor 211 = 8969
    Number of faces shared with processor 215 = 1
    Number of processor patches = 7
    Number of processor faces = 23347
    Number of boundary faces = 16865

Processor 60
    Number of cells = 201938
    Number of points = 218249
    Number of faces shared with processor 56 = 6926
    Number of faces shared with processor 61 = 793
    Number of faces shared with processor 64 = 6396
    Number of faces shared with processor 212 = 3055
    Number of processor patches = 4
    Number of processor faces = 17170
    Number of boundary faces = 17196

Processor 61
    Number of cells = 124015
    Number of points = 133927
    Number of faces shared with processor 57 = 4661
    Number of faces shared with processor 60 = 793
    Number of faces shared with processor 62 = 837
    Number of faces shared with processor 65 = 4461
    Number of faces shared with processor 213 = 3806
    Number of processor patches = 5
    Number of processor faces = 14558
    Number of boundary faces = 5194

Processor 62
    Number of cells = 118017
    Number of points = 127232
    Number of faces shared with processor 58 = 4371
    Number of faces shared with processor 61 = 837
    Number of faces shared with processor 63 = 837
    Number of faces shared with processor 66 = 4371
    Number of faces shared with processor 214 = 3807
    Number of processor patches = 5
    Number of processor faces = 14223
    Number of boundary faces = 3807

Processor 63
    Number of cells = 154885
    Number of points = 170149
    Number of faces shared with processor 59 = 6619
    Number of faces shared with processor 62 = 837
    Number of faces shared with processor 67 = 6948
    Number of faces shared with processor 215 = 3229
    Number of faces shared with processor 219 = 2
    Number of processor patches = 5
    Number of processor faces = 17635
    Number of boundary faces = 7840

Processor 64
    Number of cells = 168135
    Number of points = 182699
    Number of faces shared with processor 60 = 6396
    Number of faces shared with processor 65 = 702
    Number of faces shared with processor 68 = 6410
    Number of faces shared with processor 69 = 1
    Number of faces shared with processor 216 = 949
    Number of processor patches = 5
    Number of processor faces = 14458
    Number of boundary faces = 14018

Processor 65
    Number of cells = 133784
    Number of points = 143857
    Number of faces shared with processor 61 = 4461
    Number of faces shared with processor 64 = 702
    Number of faces shared with processor 66 = 944
    Number of faces shared with processor 69 = 4470
    Number of faces shared with processor 217 = 3993
    Number of processor patches = 5
    Number of processor faces = 14570
    Number of boundary faces = 5411

Processor 66
    Number of cells = 135365
    Number of points = 145272
    Number of faces shared with processor 62 = 4371
    Number of faces shared with processor 65 = 944
    Number of faces shared with processor 67 = 961
    Number of faces shared with processor 69 = 1
    Number of faces shared with processor 70 = 4403
    Number of faces shared with processor 218 = 4354
    Number of faces shared with processor 222 = 1
    Number of processor patches = 7
    Number of processor faces = 15035
    Number of boundary faces = 4371

Processor 67
    Number of cells = 176959
    Number of points = 193742
    Number of faces shared with processor 63 = 6948
    Number of faces shared with processor 66 = 961
    Number of faces shared with processor 71 = 6676
    Number of faces shared with processor 215 = 1
    Number of faces shared with processor 219 = 3600
    Number of faces shared with processor 223 = 1
    Number of processor patches = 6
    Number of processor faces = 18187
    Number of boundary faces = 8931

Processor 68
    Number of cells = 190029
    Number of points = 206507
    Number of faces shared with processor 64 = 6410
    Number of faces shared with processor 69 = 857
    Number of faces shared with processor 72 = 7672
    Number of faces shared with processor 220 = 1287
    Number of faces shared with processor 224 = 1
    Number of processor patches = 5
    Number of processor faces = 16227
    Number of boundary faces = 17003

Processor 69
    Number of cells = 133865
    Number of points = 144117
    Number of faces shared with processor 64 = 1
    Number of faces shared with processor 65 = 4470
    Number of faces shared with processor 66 = 1
    Number of faces shared with processor 68 = 857
    Number of faces shared with processor 70 = 915
    Number of faces shared with processor 73 = 4551
    Number of faces shared with processor 221 = 4047
    Number of faces shared with processor 225 = 1
    Number of processor patches = 8
    Number of processor faces = 14843
    Number of boundary faces = 5637

Processor 70
    Number of cells = 126895
    Number of points = 136489
    Number of faces shared with processor 66 = 4403
    Number of faces shared with processor 69 = 915
    Number of faces shared with processor 71 = 899
    Number of faces shared with processor 74 = 4371
    Number of faces shared with processor 222 = 4105
    Number of processor patches = 5
    Number of processor faces = 14693
    Number of boundary faces = 4089

Processor 71
    Number of cells = 165633
    Number of points = 181775
    Number of faces shared with processor 67 = 6676
    Number of faces shared with processor 70 = 899
    Number of faces shared with processor 75 = 6939
    Number of faces shared with processor 223 = 3371
    Number of processor patches = 4
    Number of processor faces = 17885
    Number of boundary faces = 8357

Processor 72
    Number of cells = 224164
    Number of points = 241513
    Number of faces shared with processor 68 = 7672
    Number of faces shared with processor 73 = 1103
    Number of faces shared with processor 76 = 710
    Number of faces shared with processor 224 = 6638
    Number of processor patches = 4
    Number of processor faces = 16123
    Number of boundary faces = 14428

Processor 73
    Number of cells = 135830
    Number of points = 146429
    Number of faces shared with processor 69 = 4551
    Number of faces shared with processor 72 = 1103
    Number of faces shared with processor 74 = 1312
    Number of faces shared with processor 77 = 90
    Number of faces shared with processor 221 = 4
    Number of faces shared with processor 225 = 4050
    Number of processor patches = 6
    Number of processor faces = 11110
    Number of boundary faces = 6362

Processor 74
    Number of cells = 133182
    Number of points = 142904
    Number of faces shared with processor 70 = 4371
    Number of faces shared with processor 73 = 1312
    Number of faces shared with processor 75 = 1274
    Number of faces shared with processor 78 = 80
    Number of faces shared with processor 225 = 1
    Number of faces shared with processor 226 = 4010
    Number of processor patches = 6
    Number of processor faces = 11048
    Number of boundary faces = 6176

Processor 75
    Number of cells = 227411
    Number of points = 243651
    Number of faces shared with processor 71 = 6939
    Number of faces shared with processor 74 = 1274
    Number of faces shared with processor 79 = 563
    Number of faces shared with processor 223 = 3
    Number of faces shared with processor 226 = 10
    Number of faces shared with processor 227 = 6258
    Number of processor patches = 6
    Number of processor faces = 15047
    Number of boundary faces = 13264

Processor 76
    Number of cells = 213177
    Number of points = 230807
    Number of faces shared with processor 72 = 710
    Number of faces shared with processor 77 = 1230
    Number of faces shared with processor 80 = 7848
    Number of faces shared with processor 228 = 6034
    Number of processor patches = 4
    Number of processor faces = 15822
    Number of boundary faces = 13237

Processor 77
    Number of cells = 142002
    Number of points = 152744
    Number of faces shared with processor 73 = 90
    Number of faces shared with processor 76 = 1230
    Number of faces shared with processor 78 = 1349
    Number of faces shared with processor 81 = 4684
    Number of faces shared with processor 229 = 4041
    Number of faces shared with processor 233 = 1
    Number of processor patches = 6
    Number of processor faces = 11395
    Number of boundary faces = 6911

Processor 78
    Number of cells = 138105
    Number of points = 148802
    Number of faces shared with processor 74 = 80
    Number of faces shared with processor 77 = 1349
    Number of faces shared with processor 79 = 1308
    Number of faces shared with processor 82 = 4512
    Number of faces shared with processor 230 = 4002
    Number of faces shared with processor 231 = 8
    Number of processor patches = 6
    Number of processor faces = 11259
    Number of boundary faces = 6226

Processor 79
    Number of cells = 233887
    Number of points = 250095
    Number of faces shared with processor 75 = 563
    Number of faces shared with processor 78 = 1308
    Number of faces shared with processor 83 = 6799
    Number of faces shared with processor 230 = 2
    Number of faces shared with processor 231 = 6121
    Number of processor patches = 5
    Number of processor faces = 14793
    Number of boundary faces = 13581

Processor 80
    Number of cells = 195666
    Number of points = 211371
    Number of faces shared with processor 76 = 7848
    Number of faces shared with processor 81 = 667
    Number of faces shared with processor 84 = 6301
    Number of faces shared with processor 232 = 1711
    Number of processor patches = 4
    Number of processor faces = 16527
    Number of boundary faces = 17504

Processor 81
    Number of cells = 133900
    Number of points = 144033
    Number of faces shared with processor 77 = 4684
    Number of faces shared with processor 80 = 667
    Number of faces shared with processor 82 = 928
    Number of faces shared with processor 85 = 4660
    Number of faces shared with processor 233 = 3884
    Number of faces shared with processor 237 = 1
    Number of processor patches = 6
    Number of processor faces = 14824
    Number of boundary faces = 5275

Processor 82
    Number of cells = 130848
    Number of points = 140580
    Number of faces shared with processor 78 = 4512
    Number of faces shared with processor 81 = 928
    Number of faces shared with processor 83 = 928
    Number of faces shared with processor 86 = 4512
    Number of faces shared with processor 234 = 4089
    Number of processor patches = 5
    Number of processor faces = 14969
    Number of boundary faces = 4089

Processor 83
    Number of cells = 168477
    Number of points = 184529
    Number of faces shared with processor 79 = 6799
    Number of faces shared with processor 82 = 928
    Number of faces shared with processor 87 = 7140
    Number of faces shared with processor 235 = 3284
    Number of processor patches = 4
    Number of processor faces = 18151
    Number of boundary faces = 8350

Processor 84
    Number of cells = 171456
    Number of points = 186072
    Number of faces shared with processor 80 = 6301
    Number of faces shared with processor 85 = 713
    Number of faces shared with processor 88 = 6432
    Number of faces shared with processor 236 = 903
    Number of processor patches = 4
    Number of processor faces = 14349
    Number of boundary faces = 14309

Processor 85
    Number of cells = 140436
    Number of points = 150820
    Number of faces shared with processor 81 = 4660
    Number of faces shared with processor 84 = 713
    Number of faces shared with processor 86 = 960
    Number of faces shared with processor 89 = 4602
    Number of faces shared with processor 237 = 4054
    Number of processor patches = 5
    Number of processor faces = 14989
    Number of boundary faces = 5593

Processor 86
    Number of cells = 135360
    Number of points = 145266
    Number of faces shared with processor 82 = 4512
    Number of faces shared with processor 85 = 960
    Number of faces shared with processor 87 = 960
    Number of faces shared with processor 90 = 4512
    Number of faces shared with processor 238 = 4230
    Number of processor patches = 5
    Number of processor faces = 15174
    Number of boundary faces = 4230

Processor 87
    Number of cells = 179791
    Number of points = 196926
    Number of faces shared with processor 83 = 7140
    Number of faces shared with processor 86 = 960
    Number of faces shared with processor 91 = 6888
    Number of faces shared with processor 239 = 3610
    Number of processor patches = 4
    Number of processor faces = 18598
    Number of boundary faces = 8892

Processor 88
    Number of cells = 201885
    Number of points = 218717
    Number of faces shared with processor 84 = 6432
    Number of faces shared with processor 89 = 779
    Number of faces shared with processor 92 = 7244
    Number of faces shared with processor 236 = 16
    Number of faces shared with processor 240 = 2770
    Number of faces shared with processor 244 = 1
    Number of processor patches = 6
    Number of processor faces = 17242
    Number of boundary faces = 17584

Processor 89
    Number of cells = 126935
    Number of points = 136925
    Number of faces shared with processor 85 = 4602
    Number of faces shared with processor 88 = 779
    Number of faces shared with processor 90 = 874
    Number of faces shared with processor 93 = 4442
    Number of faces shared with processor 94 = 1
    Number of faces shared with processor 241 = 3782
    Number of faces shared with processor 242 = 1
    Number of processor patches = 7
    Number of processor faces = 14481
    Number of boundary faces = 5071

Processor 90
    Number of cells = 125894
    Number of points = 135459
    Number of faces shared with processor 86 = 4512
    Number of faces shared with processor 89 = 874
    Number of faces shared with processor 91 = 896
    Number of faces shared with processor 94 = 4574
    Number of faces shared with processor 242 = 3923
    Number of faces shared with processor 246 = 1
    Number of processor patches = 6
    Number of processor faces = 14780
    Number of boundary faces = 3944

Processor 91
    Number of cells = 158721
    Number of points = 174523
    Number of faces shared with processor 87 = 6888
    Number of faces shared with processor 90 = 896
    Number of faces shared with processor 95 = 7112
    Number of faces shared with processor 243 = 3143
    Number of processor patches = 4
    Number of processor faces = 18039
    Number of boundary faces = 7832

Processor 92
    Number of cells = 236627
    Number of points = 258385
    Number of faces shared with processor 88 = 7244
    Number of faces shared with processor 93 = 1438
    Number of faces shared with processor 96 = 5681
    Number of faces shared with processor 240 = 16
    Number of faces shared with processor 244 = 7739
    Number of processor patches = 5
    Number of processor faces = 22118
    Number of boundary faces = 14876

Processor 93
    Number of cells = 146728
    Number of points = 160341
    Number of faces shared with processor 89 = 4442
    Number of faces shared with processor 92 = 1438
    Number of faces shared with processor 94 = 1692
    Number of faces shared with processor 96 = 1
    Number of faces shared with processor 97 = 2912
    Number of faces shared with processor 245 = 4434
    Number of faces shared with processor 249 = 1
    Number of processor patches = 7
    Number of processor faces = 14920
    Number of boundary faces = 7693

Processor 94
    Number of cells = 142474
    Number of points = 155646
    Number of faces shared with processor 89 = 1
    Number of faces shared with processor 90 = 4574
    Number of faces shared with processor 93 = 1692
    Number of faces shared with processor 95 = 1675
    Number of faces shared with processor 98 = 2802
    Number of faces shared with processor 246 = 4352
    Number of faces shared with processor 247 = 20
    Number of processor patches = 7
    Number of processor faces = 15116
    Number of boundary faces = 7438

Processor 95
    Number of cells = 271975
    Number of points = 294991
    Number of faces shared with processor 91 = 7112
    Number of faces shared with processor 94 = 1675
    Number of faces shared with processor 99 = 6372
    Number of faces shared with processor 243 = 18
    Number of faces shared with processor 247 = 8658
    Number of processor patches = 5
    Number of processor faces = 23835
    Number of boundary faces = 16643

Processor 96
    Number of cells = 213056
    Number of points = 231847
    Number of faces shared with processor 92 = 5681
    Number of faces shared with processor 93 = 1
    Number of faces shared with processor 97 = 903
    Number of faces shared with processor 100 = 7870
    Number of faces shared with processor 244 = 126
    Number of faces shared with processor 248 = 4221
    Number of faces shared with processor 252 = 19
    Number of processor patches = 7
    Number of processor faces = 18821
    Number of boundary faces = 15110

Processor 97
    Number of cells = 139343
    Number of points = 150022
    Number of faces shared with processor 93 = 2912
    Number of faces shared with processor 96 = 903
    Number of faces shared with processor 98 = 982
    Number of faces shared with processor 101 = 4713
    Number of faces shared with processor 249 = 3712
    Number of processor patches = 5
    Number of processor faces = 13222
    Number of boundary faces = 5927

Processor 98
    Number of cells = 135523
    Number of points = 145885
    Number of faces shared with processor 94 = 2802
    Number of faces shared with processor 97 = 982
    Number of faces shared with processor 99 = 973
    Number of faces shared with processor 102 = 4686
    Number of faces shared with processor 250 = 3700
    Number of faces shared with processor 251 = 1
    Number of processor patches = 6
    Number of processor faces = 13144
    Number of boundary faces = 5002

Processor 99
    Number of cells = 192690
    Number of points = 208141
    Number of faces shared with processor 95 = 6372
    Number of faces shared with processor 98 = 973
    Number of faces shared with processor 103 = 6875
    Number of faces shared with processor 251 = 3546
    Number of processor patches = 4
    Number of processor faces = 17766
    Number of boundary faces = 10239

Processor 100
    Number of cells = 175682
    Number of points = 190642
    Number of faces shared with processor 96 = 7870
    Number of faces shared with processor 101 = 690
    Number of faces shared with processor 104 = 6310
    Number of faces shared with processor 252 = 951
    Number of processor patches = 4
    Number of processor faces = 15821
    Number of boundary faces = 14999

Processor 101
    Number of cells = 141496
    Number of points = 151848
    Number of faces shared with processor 97 = 4713
    Number of faces shared with processor 100 = 690
    Number of faces shared with processor 102 = 990
    Number of faces shared with processor 105 = 4711
    Number of faces shared with processor 253 = 3980
    Number of processor patches = 5
    Number of processor faces = 15084
    Number of boundary faces = 5467

Processor 102
    Number of cells = 141512
    Number of points = 151727
    Number of faces shared with processor 258 = 1
    Number of faces shared with processor 98 = 4686
    Number of faces shared with processor 101 = 990
    Number of faces shared with processor 103 = 1023
    Number of faces shared with processor 106 = 4745
    Number of faces shared with processor 254 = 4272
    Number of processor patches = 6
    Number of processor faces = 15717
    Number of boundary faces = 4299

Processor 103
    Number of cells = 181605
    Number of points = 198554
    Number of faces shared with processor 259 = 1
    Number of faces shared with processor 99 = 6875
    Number of faces shared with processor 102 = 1023
    Number of faces shared with processor 107 = 7142
    Number of faces shared with processor 251 = 20
    Number of faces shared with processor 255 = 3571
    Number of processor patches = 6
    Number of processor faces = 18632
    Number of boundary faces = 8929

Processor 104
    Number of cells = 167870
    Number of points = 182447
    Number of faces shared with processor 256 = 945
    Number of faces shared with processor 100 = 6310
    Number of faces shared with processor 105 = 713
    Number of faces shared with processor 108 = 6433
    Number of processor patches = 4
    Number of processor faces = 14401
    Number of boundary faces = 13975

Processor 105
    Number of cells = 145735
    Number of points = 156283
    Number of faces shared with processor 257 = 4067
    Number of faces shared with processor 101 = 4711
    Number of faces shared with processor 104 = 713
    Number of faces shared with processor 106 = 1023
    Number of faces shared with processor 109 = 4737
    Number of processor patches = 5
    Number of processor faces = 15251
    Number of boundary faces = 5672

Processor 106
    Number of cells = 144229
    Number of points = 154534
    Number of faces shared with processor 258 = 4374
    Number of faces shared with processor 259 = 1
    Number of faces shared with processor 102 = 4745
    Number of faces shared with processor 105 = 1023
    Number of faces shared with processor 107 = 1018
    Number of faces shared with processor 110 = 4671
    Number of faces shared with processor 111 = 1
    Number of processor patches = 7
    Number of processor faces = 15833
    Number of boundary faces = 4363

Processor 107
    Number of cells = 177137
    Number of points = 194222
    Number of faces shared with processor 259 = 3579
    Number of faces shared with processor 263 = 2
    Number of faces shared with processor 103 = 7142
    Number of faces shared with processor 106 = 1018
    Number of faces shared with processor 111 = 7191
    Number of processor patches = 5
    Number of processor faces = 18932
    Number of boundary faces = 8658

Processor 108
    Number of cells = 202633
    Number of points = 219858
    Number of faces shared with processor 256 = 17
    Number of faces shared with processor 260 = 3512
    Number of faces shared with processor 104 = 6433
    Number of faces shared with processor 109 = 766
    Number of faces shared with processor 112 = 5688
    Number of processor patches = 5
    Number of processor faces = 16416
    Number of boundary faces = 16398

Processor 109
    Number of cells = 128426
    Number of points = 138541
    Number of faces shared with processor 261 = 3808
    Number of faces shared with processor 105 = 4737
    Number of faces shared with processor 108 = 766
    Number of faces shared with processor 110 = 891
    Number of faces shared with processor 113 = 4544
    Number of processor patches = 5
    Number of processor faces = 14746
    Number of boundary faces = 4783

Processor 110
    Number of cells = 129315
    Number of points = 139051
    Number of faces shared with processor 262 = 3898
    Number of faces shared with processor 266 = 1
    Number of faces shared with processor 106 = 4671
    Number of faces shared with processor 109 = 891
    Number of faces shared with processor 111 = 954
    Number of faces shared with processor 114 = 4712
    Number of processor patches = 6
    Number of processor faces = 15127
    Number of boundary faces = 3937

Processor 111
    Number of cells = 165038
    Number of points = 181334
    Number of faces shared with processor 263 = 3240
    Number of faces shared with processor 267 = 1
    Number of faces shared with processor 106 = 1
    Number of faces shared with processor 107 = 7191
    Number of faces shared with processor 110 = 954
    Number of faces shared with processor 115 = 7201
    Number of processor patches = 6
    Number of processor faces = 18588
    Number of boundary faces = 8050

Processor 112
    Number of cells = 261533
    Number of points = 283094
    Number of faces shared with processor 260 = 19
    Number of faces shared with processor 264 = 8338
    Number of faces shared with processor 268 = 19
    Number of faces shared with processor 108 = 5688
    Number of faces shared with processor 113 = 1614
    Number of faces shared with processor 116 = 5915
    Number of faces shared with processor 117 = 1
    Number of processor patches = 7
    Number of processor faces = 21594
    Number of boundary faces = 16444

Processor 113
    Number of cells = 153447
    Number of points = 169433
    Number of faces shared with processor 264 = 8
    Number of faces shared with processor 265 = 4325
    Number of faces shared with processor 269 = 1
    Number of faces shared with processor 109 = 4544
    Number of faces shared with processor 112 = 1614
    Number of faces shared with processor 114 = 1712
    Number of faces shared with processor 117 = 4747
    Number of processor patches = 7
    Number of processor faces = 16951
    Number of boundary faces = 8704

Processor 114
    Number of cells = 148941
    Number of points = 164917
    Number of faces shared with processor 266 = 4296
    Number of faces shared with processor 267 = 22
    Number of faces shared with processor 110 = 4712
    Number of faces shared with processor 113 = 1712
    Number of faces shared with processor 115 = 1855
    Number of faces shared with processor 118 = 4653
    Number of processor patches = 6
    Number of processor faces = 17250
    Number of boundary faces = 8461

Processor 115
    Number of cells = 303711
    Number of points = 327643
    Number of faces shared with processor 263 = 18
    Number of faces shared with processor 266 = 1
    Number of faces shared with processor 267 = 9164
    Number of faces shared with processor 271 = 15
    Number of faces shared with processor 111 = 7201
    Number of faces shared with processor 114 = 1855
    Number of faces shared with processor 119 = 7001
    Number of processor patches = 7
    Number of processor faces = 25255
    Number of boundary faces = 18819

Processor 116
    Number of cells = 201001
    Number of points = 217731
    Number of faces shared with processor 268 = 3246
    Number of faces shared with processor 272 = 17
    Number of faces shared with processor 112 = 5915
    Number of faces shared with processor 117 = 826
    Number of faces shared with processor 120 = 6425
    Number of processor patches = 5
    Number of processor faces = 16429
    Number of boundary faces = 16042

Processor 117
    Number of cells = 134885
    Number of points = 145324
    Number of faces shared with processor 265 = 3
    Number of faces shared with processor 269 = 3938
    Number of faces shared with processor 112 = 1
    Number of faces shared with processor 113 = 4747
    Number of faces shared with processor 116 = 826
    Number of faces shared with processor 118 = 891
    Number of faces shared with processor 121 = 4859
    Number of processor patches = 7
    Number of processor faces = 15265
    Number of boundary faces = 5137

Processor 118
    Number of cells = 127377
    Number of points = 137028
    Number of faces shared with processor 270 = 3844
    Number of faces shared with processor 274 = 1
    Number of faces shared with processor 114 = 4653
    Number of faces shared with processor 117 = 891
    Number of faces shared with processor 119 = 924
    Number of faces shared with processor 122 = 4712
    Number of processor patches = 6
    Number of processor faces = 15025
    Number of boundary faces = 3871

Processor 119
    Number of cells = 166540
    Number of points = 182078
    Number of faces shared with processor 267 = 4
    Number of faces shared with processor 271 = 3272
    Number of faces shared with processor 275 = 19
    Number of faces shared with processor 115 = 7001
    Number of faces shared with processor 118 = 924
    Number of faces shared with processor 123 = 7049
    Number of processor patches = 6
    Number of processor faces = 18269
    Number of boundary faces = 8128

Processor 120
    Number of cells = 167858
    Number of points = 182500
    Number of faces shared with processor 272 = 886
    Number of faces shared with processor 116 = 6425
    Number of faces shared with processor 121 = 713
    Number of faces shared with processor 124 = 6437
    Number of processor patches = 4
    Number of processor faces = 14461
    Number of boundary faces = 14054

Processor 121
    Number of cells = 150847
    Number of points = 161628
    Number of faces shared with processor 269 = 2
    Number of faces shared with processor 273 = 4124
    Number of faces shared with processor 274 = 1
    Number of faces shared with processor 117 = 4859
    Number of faces shared with processor 120 = 713
    Number of faces shared with processor 122 = 1045
    Number of faces shared with processor 125 = 4888
    Number of processor patches = 7
    Number of processor faces = 15632
    Number of boundary faces = 5737

Processor 122
    Number of cells = 143003
    Number of points = 153285
    Number of faces shared with processor 274 = 4399
    Number of faces shared with processor 118 = 4712
    Number of faces shared with processor 121 = 1045
    Number of faces shared with processor 123 = 990
    Number of faces shared with processor 126 = 4697
    Number of processor patches = 5
    Number of processor faces = 15843
    Number of boundary faces = 4307

Processor 123
    Number of cells = 179114
    Number of points = 196035
    Number of faces shared with processor 275 = 3571
    Number of faces shared with processor 119 = 7049
    Number of faces shared with processor 122 = 990
    Number of faces shared with processor 127 = 7031
    Number of processor patches = 4
    Number of processor faces = 18641
    Number of boundary faces = 8686

Processor 124
    Number of cells = 177381
    Number of points = 193171
    Number of faces shared with processor 128 = 7593
    Number of faces shared with processor 276 = 929
    Number of faces shared with processor 280 = 1
    Number of faces shared with processor 120 = 6437
    Number of faces shared with processor 125 = 690
    Number of processor patches = 5
    Number of processor faces = 15650
    Number of boundary faces = 14953

Processor 125
    Number of cells = 145871
    Number of points = 156477
    Number of faces shared with processor 129 = 4877
    Number of faces shared with processor 277 = 3940
    Number of faces shared with processor 121 = 4888
    Number of faces shared with processor 124 = 690
    Number of faces shared with processor 126 = 1020
    Number of processor patches = 5
    Number of processor faces = 15415
    Number of boundary faces = 5656

Processor 126
    Number of cells = 143803
    Number of points = 154123
    Number of faces shared with processor 130 = 4820
    Number of faces shared with processor 274 = 2
    Number of faces shared with processor 278 = 4363
    Number of faces shared with processor 282 = 1
    Number of faces shared with processor 122 = 4697
    Number of faces shared with processor 125 = 1020
    Number of faces shared with processor 127 = 1023
    Number of processor patches = 7
    Number of processor faces = 15926
    Number of boundary faces = 4300

Processor 127
    Number of cells = 184448
    Number of points = 201662
    Number of faces shared with processor 131 = 7308
    Number of faces shared with processor 279 = 3614
    Number of faces shared with processor 123 = 7031
    Number of faces shared with processor 126 = 1023
    Number of processor patches = 4
    Number of processor faces = 18976
    Number of boundary faces = 8958

Processor 128
    Number of cells = 218338
    Number of points = 236724
    Number of faces shared with processor 129 = 955
    Number of faces shared with processor 132 = 5759
    Number of faces shared with processor 276 = 20
    Number of faces shared with processor 280 = 3968
    Number of faces shared with processor 284 = 12
    Number of faces shared with processor 124 = 7593
    Number of processor patches = 6
    Number of processor faces = 18307
    Number of boundary faces = 15853

Processor 129
    Number of cells = 142045
    Number of points = 152991
    Number of faces shared with processor 128 = 955
    Number of faces shared with processor 130 = 1010
    Number of faces shared with processor 132 = 1
    Number of faces shared with processor 133 = 2966
    Number of faces shared with processor 277 = 1
    Number of faces shared with processor 280 = 4
    Number of faces shared with processor 281 = 3558
    Number of faces shared with processor 125 = 4877
    Number of processor patches = 8
    Number of processor faces = 13372
    Number of boundary faces = 5735

Processor 130
    Number of cells = 136435
    Number of points = 146638
    Number of faces shared with processor 129 = 1010
    Number of faces shared with processor 131 = 989
    Number of faces shared with processor 134 = 2908
    Number of faces shared with processor 278 = 2
    Number of faces shared with processor 282 = 3535
    Number of faces shared with processor 126 = 4820
    Number of processor patches = 6
    Number of processor faces = 13264
    Number of boundary faces = 4929

Processor 131
    Number of cells = 194851
    Number of points = 211754
    Number of faces shared with processor 130 = 989
    Number of faces shared with processor 134 = 1
    Number of faces shared with processor 135 = 6410
    Number of faces shared with processor 279 = 20
    Number of faces shared with processor 283 = 3656
    Number of faces shared with processor 287 = 20
    Number of faces shared with processor 127 = 7308
    Number of processor patches = 7
    Number of processor faces = 18404
    Number of boundary faces = 9983

Processor 132
    Number of cells = 234381
    Number of points = 256524
    Number of faces shared with processor 128 = 5759
    Number of faces shared with processor 129 = 1
    Number of faces shared with processor 133 = 1603
    Number of faces shared with processor 136 = 7219
    Number of faces shared with processor 280 = 15
    Number of faces shared with processor 284 = 6116
    Number of faces shared with processor 285 = 3
    Number of processor patches = 7
    Number of processor faces = 20716
    Number of boundary faces = 14644

Processor 133
    Number of cells = 150592
    Number of points = 164968
    Number of faces shared with processor 129 = 2966
    Number of faces shared with processor 132 = 1603
    Number of faces shared with processor 134 = 1733
    Number of faces shared with processor 136 = 1
    Number of faces shared with processor 137 = 5120
    Number of faces shared with processor 284 = 2
    Number of faces shared with processor 285 = 4093
    Number of faces shared with processor 289 = 1
    Number of processor patches = 8
    Number of processor faces = 15519
    Number of boundary faces = 7659

Processor 134
    Number of cells = 149976
    Number of points = 164053
    Number of faces shared with processor 130 = 2908
    Number of faces shared with processor 131 = 1
    Number of faces shared with processor 133 = 1733
    Number of faces shared with processor 135 = 1811
    Number of faces shared with processor 138 = 4828
    Number of faces shared with processor 286 = 4115
    Number of faces shared with processor 287 = 12
    Number of processor patches = 7
    Number of processor faces = 15408
    Number of boundary faces = 7550

Processor 135
    Number of cells = 277931
    Number of points = 300564
    Number of faces shared with processor 131 = 6410
    Number of faces shared with processor 134 = 1811
    Number of faces shared with processor 139 = 7030
    Number of faces shared with processor 287 = 8804
    Number of faces shared with processor 291 = 5
    Number of processor patches = 5
    Number of processor faces = 24060
    Number of boundary faces = 16938

Processor 136
    Number of cells = 208921
    Number of points = 225822
    Number of faces shared with processor 132 = 7219
    Number of faces shared with processor 133 = 1
    Number of faces shared with processor 137 = 792
    Number of faces shared with processor 140 = 6419
    Number of faces shared with processor 284 = 1
    Number of faces shared with processor 288 = 2907
    Number of faces shared with processor 292 = 1
    Number of processor patches = 7
    Number of processor faces = 17340
    Number of boundary faces = 17837

Processor 137
    Number of cells = 135059
    Number of points = 145514
    Number of faces shared with processor 133 = 5120
    Number of faces shared with processor 136 = 792
    Number of faces shared with processor 138 = 918
    Number of faces shared with processor 141 = 4841
    Number of faces shared with processor 289 = 3765
    Number of processor patches = 5
    Number of processor faces = 15436
    Number of boundary faces = 5409

Processor 138
    Number of cells = 130356
    Number of points = 140140
    Number of faces shared with processor 134 = 4828
    Number of faces shared with processor 137 = 918
    Number of faces shared with processor 139 = 918
    Number of faces shared with processor 142 = 4828
    Number of faces shared with processor 290 = 3834
    Number of processor patches = 5
    Number of processor faces = 15326
    Number of boundary faces = 3834

Processor 139
    Number of cells = 162986
    Number of points = 178761
    Number of faces shared with processor 135 = 7030
    Number of faces shared with processor 138 = 918
    Number of faces shared with processor 143 = 7367
    Number of faces shared with processor 287 = 14
    Number of faces shared with processor 291 = 3197
    Number of faces shared with processor 295 = 20
    Number of processor patches = 6
    Number of processor faces = 18546
    Number of boundary faces = 7867

Processor 140
    Number of cells = 168339
    Number of points = 182964
    Number of faces shared with processor 136 = 6419
    Number of faces shared with processor 141 = 690
    Number of faces shared with processor 144 = 6437
    Number of faces shared with processor 288 = 1
    Number of faces shared with processor 292 = 769
    Number of faces shared with processor 296 = 1
    Number of processor patches = 6
    Number of processor faces = 14317
    Number of boundary faces = 14020

Processor 141
    Number of cells = 145056
    Number of points = 155579
    Number of faces shared with processor 137 = 4841
    Number of faces shared with processor 140 = 690
    Number of faces shared with processor 142 = 1032
    Number of faces shared with processor 145 = 4831
    Number of faces shared with processor 293 = 3933
    Number of processor patches = 5
    Number of processor faces = 15327
    Number of boundary faces = 5556

Processor 142
    Number of cells = 149437
    Number of points = 159929
    Number of faces shared with processor 138 = 4828
    Number of faces shared with processor 141 = 1032
    Number of faces shared with processor 143 = 1054
    Number of faces shared with processor 145 = 1
    Number of faces shared with processor 146 = 4870
    Number of faces shared with processor 294 = 4380
    Number of faces shared with processor 298 = 1
    Number of processor patches = 7
    Number of processor faces = 16166
    Number of boundary faces = 4402

Processor 143
    Number of cells = 186084
    Number of points = 203395
    Number of faces shared with processor 139 = 7367
    Number of faces shared with processor 142 = 1054
    Number of faces shared with processor 147 = 7086
    Number of faces shared with processor 295 = 3602
    Number of faces shared with processor 299 = 1
    Number of processor patches = 5
    Number of processor faces = 19110
    Number of boundary faces = 8962

Processor 144
    Number of cells = 192046
    Number of points = 208916
    Number of faces shared with processor 140 = 6437
    Number of faces shared with processor 145 = 846
    Number of faces shared with processor 148 = 8041
    Number of faces shared with processor 292 = 1
    Number of faces shared with processor 296 = 1153
    Number of faces shared with processor 300 = 2
    Number of processor patches = 6
    Number of processor faces = 16480
    Number of boundary faces = 17294

Processor 145
    Number of cells = 145816
    Number of points = 156643
    Number of faces shared with processor 141 = 4831
    Number of faces shared with processor 142 = 1
    Number of faces shared with processor 144 = 846
    Number of faces shared with processor 146 = 1007
    Number of faces shared with processor 149 = 5015
    Number of faces shared with processor 297 = 4068
    Number of faces shared with processor 301 = 5
    Number of processor patches = 7
    Number of processor faces = 15773
    Number of boundary faces = 5869

Processor 146
    Number of cells = 140243
    Number of points = 150424
    Number of faces shared with processor 142 = 4870
    Number of faces shared with processor 145 = 1007
    Number of faces shared with processor 147 = 986
    Number of faces shared with processor 150 = 4828
    Number of faces shared with processor 298 = 4139
    Number of processor patches = 5
    Number of processor faces = 15830
    Number of boundary faces = 4118

Processor 147
    Number of cells = 174101
    Number of points = 190742
    Number of faces shared with processor 143 = 7086
    Number of faces shared with processor 146 = 986
    Number of faces shared with processor 151 = 7344
    Number of faces shared with processor 299 = 3348
    Number of processor patches = 4
    Number of processor faces = 18764
    Number of boundary faces = 8386

Processor 148
    Number of cells = 231681
    Number of points = 249812
    Number of faces shared with processor 144 = 8041
    Number of faces shared with processor 149 = 1218
    Number of faces shared with processor 300 = 5438
    Number of faces shared with processor 301 = 8
    Number of processor patches = 4
    Number of processor faces = 14705
    Number of boundary faces = 15515

Processor 149
    Number of cells = 143365
    Number of points = 154542
    Number of faces shared with processor 145 = 5015
    Number of faces shared with processor 148 = 1218
    Number of faces shared with processor 150 = 1371
    Number of faces shared with processor 297 = 2
    Number of faces shared with processor 301 = 3597
    Number of processor patches = 5
    Number of processor faces = 11203
    Number of boundary faces = 6426

Processor 150
    Number of cells = 141062
    Number of points = 151207
    Number of faces shared with processor 146 = 4828
    Number of faces shared with processor 149 = 1371
    Number of faces shared with processor 151 = 1389
    Number of faces shared with processor 302 = 3438
    Number of processor patches = 4
    Number of processor faces = 11026
    Number of boundary faces = 6286

Processor 151
    Number of cells = 236331
    Number of points = 253099
    Number of faces shared with processor 147 = 7344
    Number of faces shared with processor 150 = 1389
    Number of faces shared with processor 299 = 2
    Number of faces shared with processor 302 = 1
    Number of faces shared with processor 303 = 5202
    Number of processor patches = 5
    Number of processor faces = 13938
    Number of boundary faces = 13874

Processor 152
    Number of cells = 151391
    Number of points = 173609
    Number of faces shared with processor 0 = 6406
    Number of faces shared with processor 4 = 23
    Number of faces shared with processor 153 = 1839
    Number of faces shared with processor 156 = 10280
    Number of processor patches = 4
    Number of processor faces = 18548
    Number of boundary faces = 6470

Processor 153
    Number of cells = 167393
    Number of points = 183608
    Number of faces shared with processor 1 = 4233
    Number of faces shared with processor 2 = 1
    Number of faces shared with processor 152 = 1839
    Number of faces shared with processor 154 = 2087
    Number of faces shared with processor 156 = 1
    Number of faces shared with processor 157 = 9015
    Number of processor patches = 6
    Number of processor faces = 17176
    Number of boundary faces = 1492

Processor 154
    Number of cells = 168871
    Number of points = 184203
    Number of faces shared with processor 2 = 4204
    Number of faces shared with processor 153 = 2087
    Number of faces shared with processor 155 = 1987
    Number of faces shared with processor 157 = 1
    Number of faces shared with processor 158 = 8910
    Number of faces shared with processor 159 = 2
    Number of processor patches = 6
    Number of processor faces = 17191
    Number of boundary faces = 208

Processor 155
    Number of cells = 154256
    Number of points = 170956
    Number of faces shared with processor 3 = 6260
    Number of faces shared with processor 7 = 2
    Number of faces shared with processor 154 = 1987
    Number of faces shared with processor 159 = 7825
    Number of processor patches = 4
    Number of processor faces = 16074
    Number of boundary faces = 1654

Processor 156
    Number of cells = 135573
    Number of points = 149925
    Number of faces shared with processor 4 = 1769
    Number of faces shared with processor 152 = 10280
    Number of faces shared with processor 153 = 1
    Number of faces shared with processor 157 = 571
    Number of faces shared with processor 160 = 5883
    Number of processor patches = 5
    Number of processor faces = 18504
    Number of boundary faces = 11284

Processor 157
    Number of cells = 231305
    Number of points = 246545
    Number of faces shared with processor 1 = 1
    Number of faces shared with processor 5 = 3913
    Number of faces shared with processor 153 = 9015
    Number of faces shared with processor 154 = 1
    Number of faces shared with processor 156 = 571
    Number of faces shared with processor 158 = 1840
    Number of faces shared with processor 160 = 1
    Number of faces shared with processor 161 = 8837
    Number of processor patches = 8
    Number of processor faces = 24179
    Number of boundary faces = 1985

Processor 158
    Number of cells = 236940
    Number of points = 252117
    Number of faces shared with processor 6 = 4118
    Number of faces shared with processor 154 = 8910
    Number of faces shared with processor 157 = 1840
    Number of faces shared with processor 159 = 1904
    Number of faces shared with processor 161 = 2
    Number of faces shared with processor 162 = 9057
    Number of faces shared with processor 163 = 2
    Number of processor patches = 7
    Number of processor faces = 25833
    Number of boundary faces = 16

Processor 159
    Number of cells = 131111
    Number of points = 144595
    Number of faces shared with processor 7 = 3296
    Number of faces shared with processor 154 = 2
    Number of faces shared with processor 155 = 7825
    Number of faces shared with processor 158 = 1904
    Number of faces shared with processor 162 = 1
    Number of faces shared with processor 163 = 8079
    Number of processor patches = 6
    Number of processor faces = 21107
    Number of boundary faces = 106

Processor 160
    Number of cells = 104905
    Number of points = 119001
    Number of faces shared with processor 4 = 1
    Number of faces shared with processor 8 = 954
    Number of faces shared with processor 12 = 5
    Number of faces shared with processor 156 = 5883
    Number of faces shared with processor 157 = 1
    Number of faces shared with processor 161 = 613
    Number of faces shared with processor 164 = 6051
    Number of faces shared with processor 168 = 133
    Number of processor patches = 8
    Number of processor faces = 13641
    Number of boundary faces = 7050

Processor 161
    Number of cells = 244303
    Number of points = 259919
    Number of faces shared with processor 5 = 1
    Number of faces shared with processor 9 = 4081
    Number of faces shared with processor 157 = 8837
    Number of faces shared with processor 158 = 2
    Number of faces shared with processor 160 = 613
    Number of faces shared with processor 162 = 1912
    Number of faces shared with processor 165 = 8805
    Number of faces shared with processor 166 = 1
    Number of processor patches = 8
    Number of processor faces = 24252
    Number of boundary faces = 2166

Processor 162
    Number of cells = 245149
    Number of points = 260756
    Number of faces shared with processor 10 = 4255
    Number of faces shared with processor 158 = 9057
    Number of faces shared with processor 159 = 1
    Number of faces shared with processor 161 = 1912
    Number of faces shared with processor 163 = 1970
    Number of faces shared with processor 166 = 9016
    Number of faces shared with processor 167 = 1
    Number of processor patches = 7
    Number of processor faces = 26212
    Number of boundary faces = 16

Processor 163
    Number of cells = 141219
    Number of points = 155230
    Number of faces shared with processor 7 = 2
    Number of faces shared with processor 10 = 1
[...]
    in file db/dynamicLibrary/dlLibraryTable/dlLibraryTable.C at line 188
    Could not load "libpetscFoam.so"
libpetscFoam.so: cannot open shared object file: No such file or directory
Processor 241: field transfer
--> FOAM Warning : 
    From void* Foam::dlLibraryTable::openLibrary(const Foam::fileName&, bool)
    in file db/dynamicLibrary/dlLibraryTable/dlLibraryTable.C at line 188
    Could not load "libpetscFoam.so"
libpetscFoam.so: cannot open shared object file: No such file or directory
Processor 242: field transfer
--> FOAM Warning : 
    From void* Foam::dlLibraryTable::openLibrary(const Foam::fileName&, bool)
    in file db/dynamicLibrary/dlLibraryTable/dlLibraryTable.C at line 188
    Could not load "libpetscFoam.so"
libpetscFoam.so: cannot open shared object file: No such file or directory
Processor 243: field transfer
--> FOAM Warning : 
    From void* Foam::dlLibraryTable::openLibrary(const Foam::fileName&, bool)
    in file db/dynamicLibrary/dlLibraryTable/dlLibraryTable.C at line 188
    Could not load "libpetscFoam.so"
libpetscFoam.so: cannot open shared object file: No such file or directory
Processor 244: field transfer
--> FOAM Warning : 
    From void* Foam::dlLibraryTable::openLibrary(const Foam::fileName&, bool)
    in file db/dynamicLibrary/dlLibraryTable/dlLibraryTable.C at line 188
    Could not load "libpetscFoam.so"
libpetscFoam.so: cannot open shared object file: No such file or directory
Processor 245: field transfer
--> FOAM Warning : 
    From void* Foam::dlLibraryTable::openLibrary(const Foam::fileName&, bool)
    in file db/dynamicLibrary/dlLibraryTable/dlLibraryTable.C at line 188
    Could not load "libpetscFoam.so"
libpetscFoam.so: cannot open shared object file: No such file or directory
Processor 246: field transfer
--> FOAM Warning : 
    From void* Foam::dlLibraryTable::openLibrary(const Foam::fileName&, bool)
    in file db/dynamicLibrary/dlLibraryTable/dlLibraryTable.C at line 188
    Could not load "libpetscFoam.so"
libpetscFoam.so: cannot open shared object file: No such file or directory
Processor 247: field transfer
--> FOAM Warning : 
    From void* Foam::dlLibraryTable::openLibrary(const Foam::fileName&, bool)
    in file db/dynamicLibrary/dlLibraryTable/dlLibraryTable.C at line 188
    Could not load "libpetscFoam.so"
libpetscFoam.so: cannot open shared object file: No such file or directory
Processor 248: field transfer
--> FOAM Warning : 
    From void* Foam::dlLibraryTable::openLibrary(const Foam::fileName&, bool)
    in file db/dynamicLibrary/dlLibraryTable/dlLibraryTable.C at line 188
    Could not load "libpetscFoam.so"
libpetscFoam.so: cannot open shared object file: No such file or directory
Processor 249: field transfer
--> FOAM Warning : 
    From void* Foam::dlLibraryTable::openLibrary(const Foam::fileName&, bool)
    in file db/dynamicLibrary/dlLibraryTable/dlLibraryTable.C at line 188
    Could not load "libpetscFoam.so"
libpetscFoam.so: cannot open shared object file: No such file or directory
Processor 250: field transfer
--> FOAM Warning : 
    From void* Foam::dlLibraryTable::openLibrary(const Foam::fileName&, bool)
    in file db/dynamicLibrary/dlLibraryTable/dlLibraryTable.C at line 188
    Could not load "libpetscFoam.so"
libpetscFoam.so: cannot open shared object file: No such file or directory
Processor 251: field transfer
--> FOAM Warning : 
    From void* Foam::dlLibraryTable::openLibrary(const Foam::fileName&, bool)
    in file db/dynamicLibrary/dlLibraryTable/dlLibraryTable.C at line 188
    Could not load "libpetscFoam.so"
libpetscFoam.so: cannot open shared object file: No such file or directory
Processor 252: field transfer
--> FOAM Warning : 
    From void* Foam::dlLibraryTable::openLibrary(const Foam::fileName&, bool)
    in file db/dynamicLibrary/dlLibraryTable/dlLibraryTable.C at line 188
    Could not load "libpetscFoam.so"
libpetscFoam.so: cannot open shared object file: No such file or directory
Processor 253: field transfer
--> FOAM Warning : 
    From void* Foam::dlLibraryTable::openLibrary(const Foam::fileName&, bool)
    in file db/dynamicLibrary/dlLibraryTable/dlLibraryTable.C at line 188
    Could not load "libpetscFoam.so"
libpetscFoam.so: cannot open shared object file: No such file or directory
Processor 254: field transfer
--> FOAM Warning : 
    From void* Foam::dlLibraryTable::openLibrary(const Foam::fileName&, bool)
    in file db/dynamicLibrary/dlLibraryTable/dlLibraryTable.C at line 188
    Could not load "libpetscFoam.so"
libpetscFoam.so: cannot open shared object file: No such file or directory
Processor 255: field transfer
--> FOAM Warning : 
    From void* Foam::dlLibraryTable::openLibrary(const Foam::fileName&, bool)
    in file db/dynamicLibrary/dlLibraryTable/dlLibraryTable.C at line 188
    Could not load "libpetscFoam.so"
libpetscFoam.so: cannot open shared object file: No such file or directory
Processor 256: field transfer
--> FOAM Warning : 
    From void* Foam::dlLibraryTable::openLibrary(const Foam::fileName&, bool)
    in file db/dynamicLibrary/dlLibraryTable/dlLibraryTable.C at line 188
    Could not load "libpetscFoam.so"
libpetscFoam.so: cannot open shared object file: No such file or directory
Processor 257: field transfer
--> FOAM Warning : 
    From void* Foam::dlLibraryTable::openLibrary(const Foam::fileName&, bool)
    in file db/dynamicLibrary/dlLibraryTable/dlLibraryTable.C at line 188
    Could not load "libpetscFoam.so"
libpetscFoam.so: cannot open shared object file: No such file or directory
Processor 258: field transfer
--> FOAM Warning : 
    From void* Foam::dlLibraryTable::openLibrary(const Foam::fileName&, bool)
    in file db/dynamicLibrary/dlLibraryTable/dlLibraryTable.C at line 188
    Could not load "libpetscFoam.so"
libpetscFoam.so: cannot open shared object file: No such file or directory
Processor 259: field transfer
--> FOAM Warning : 
    From void* Foam::dlLibraryTable::openLibrary(const Foam::fileName&, bool)
    in file db/dynamicLibrary/dlLibraryTable/dlLibraryTable.C at line 188
    Could not load "libpetscFoam.so"
libpetscFoam.so: cannot open shared object file: No such file or directory
Processor 260: field transfer
--> FOAM Warning : 
    From void* Foam::dlLibraryTable::openLibrary(const Foam::fileName&, bool)
    in file db/dynamicLibrary/dlLibraryTable/dlLibraryTable.C at line 188
    Could not load "libpetscFoam.so"
libpetscFoam.so: cannot open shared object file: No such file or directory
Processor 261: field transfer
--> FOAM Warning : 
    From void* Foam::dlLibraryTable::openLibrary(const Foam::fileName&, bool)
    in file db/dynamicLibrary/dlLibraryTable/dlLibraryTable.C at line 188
    Could not load "libpetscFoam.so"
libpetscFoam.so: cannot open shared object file: No such file or directory
Processor 262: field transfer
--> FOAM Warning : 
    From void* Foam::dlLibraryTable::openLibrary(const Foam::fileName&, bool)
    in file db/dynamicLibrary/dlLibraryTable/dlLibraryTable.C at line 188
    Could not load "libpetscFoam.so"
libpetscFoam.so: cannot open shared object file: No such file or directory
Processor 263: field transfer
--> FOAM Warning : 
    From void* Foam::dlLibraryTable::openLibrary(const Foam::fileName&, bool)
    in file db/dynamicLibrary/dlLibraryTable/dlLibraryTable.C at line 188
    Could not load "libpetscFoam.so"
libpetscFoam.so: cannot open shared object file: No such file or directory
Processor 264: field transfer
--> FOAM Warning : 
    From void* Foam::dlLibraryTable::openLibrary(const Foam::fileName&, bool)
    in file db/dynamicLibrary/dlLibraryTable/dlLibraryTable.C at line 188
    Could not load "libpetscFoam.so"
libpetscFoam.so: cannot open shared object file: No such file or directory
Processor 265: field transfer
--> FOAM Warning : 
    From void* Foam::dlLibraryTable::openLibrary(const Foam::fileName&, bool)
    in file db/dynamicLibrary/dlLibraryTable/dlLibraryTable.C at line 188
    Could not load "libpetscFoam.so"
libpetscFoam.so: cannot open shared object file: No such file or directory
Processor 266: field transfer
--> FOAM Warning : 
    From void* Foam::dlLibraryTable::openLibrary(const Foam::fileName&, bool)
    in file db/dynamicLibrary/dlLibraryTable/dlLibraryTable.C at line 188
    Could not load "libpetscFoam.so"
libpetscFoam.so: cannot open shared object file: No such file or directory
Processor 267: field transfer
--> FOAM Warning : 
    From void* Foam::dlLibraryTable::openLibrary(const Foam::fileName&, bool)
    in file db/dynamicLibrary/dlLibraryTable/dlLibraryTable.C at line 188
    Could not load "libpetscFoam.so"
libpetscFoam.so: cannot open shared object file: No such file or directory
Processor 268: field transfer
--> FOAM Warning : 
    From void* Foam::dlLibraryTable::openLibrary(const Foam::fileName&, bool)
    in file db/dynamicLibrary/dlLibraryTable/dlLibraryTable.C at line 188
    Could not load "libpetscFoam.so"
libpetscFoam.so: cannot open shared object file: No such file or directory
Processor 269: field transfer
--> FOAM Warning : 
    From void* Foam::dlLibraryTable::openLibrary(const Foam::fileName&, bool)
    in file db/dynamicLibrary/dlLibraryTable/dlLibraryTable.C at line 188
    Could not load "libpetscFoam.so"
libpetscFoam.so: cannot open shared object file: No such file or directory
Processor 270: field transfer
--> FOAM Warning : 
    From void* Foam::dlLibraryTable::openLibrary(const Foam::fileName&, bool)
    in file db/dynamicLibrary/dlLibraryTable/dlLibraryTable.C at line 188
    Could not load "libpetscFoam.so"
libpetscFoam.so: cannot open shared object file: No such file or directory
Processor 271: field transfer
--> FOAM Warning : 
    From void* Foam::dlLibraryTable::openLibrary(const Foam::fileName&, bool)
    in file db/dynamicLibrary/dlLibraryTable/dlLibraryTable.C at line 188
    Could not load "libpetscFoam.so"
libpetscFoam.so: cannot open shared object file: No such file or directory
Processor 272: field transfer
--> FOAM Warning : 
    From void* Foam::dlLibraryTable::openLibrary(const Foam::fileName&, bool)
    in file db/dynamicLibrary/dlLibraryTable/dlLibraryTable.C at line 188
    Could not load "libpetscFoam.so"
libpetscFoam.so: cannot open shared object file: No such file or directory
Processor 273: field transfer
--> FOAM Warning : 
    From void* Foam::dlLibraryTable::openLibrary(const Foam::fileName&, bool)
    in file db/dynamicLibrary/dlLibraryTable/dlLibraryTable.C at line 188
    Could not load "libpetscFoam.so"
libpetscFoam.so: cannot open shared object file: No such file or directory
Processor 274: field transfer
--> FOAM Warning : 
    From void* Foam::dlLibraryTable::openLibrary(const Foam::fileName&, bool)
    in file db/dynamicLibrary/dlLibraryTable/dlLibraryTable.C at line 188
    Could not load "libpetscFoam.so"
libpetscFoam.so: cannot open shared object file: No such file or directory
Processor 275: field transfer
--> FOAM Warning : 
    From void* Foam::dlLibraryTable::openLibrary(const Foam::fileName&, bool)
    in file db/dynamicLibrary/dlLibraryTable/dlLibraryTable.C at line 188
    Could not load "libpetscFoam.so"
libpetscFoam.so: cannot open shared object file: No such file or directory
Processor 276: field transfer
--> FOAM Warning : 
    From void* Foam::dlLibraryTable::openLibrary(const Foam::fileName&, bool)
    in file db/dynamicLibrary/dlLibraryTable/dlLibraryTable.C at line 188
    Could not load "libpetscFoam.so"
libpetscFoam.so: cannot open shared object file: No such file or directory
Processor 277: field transfer
--> FOAM Warning : 
    From void* Foam::dlLibraryTable::openLibrary(const Foam::fileName&, bool)
    in file db/dynamicLibrary/dlLibraryTable/dlLibraryTable.C at line 188
    Could not load "libpetscFoam.so"
libpetscFoam.so: cannot open shared object file: No such file or directory
Processor 278: field transfer
--> FOAM Warning : 
    From void* Foam::dlLibraryTable::openLibrary(const Foam::fileName&, bool)
    in file db/dynamicLibrary/dlLibraryTable/dlLibraryTable.C at line 188
    Could not load "libpetscFoam.so"
libpetscFoam.so: cannot open shared object file: No such file or directory
Processor 279: field transfer
--> FOAM Warning : 
    From void* Foam::dlLibraryTable::openLibrary(const Foam::fileName&, bool)
    in file db/dynamicLibrary/dlLibraryTable/dlLibraryTable.C at line 188
    Could not load "libpetscFoam.so"
libpetscFoam.so: cannot open shared object file: No such file or directory
Processor 280: field transfer
--> FOAM Warning : 
    From void* Foam::dlLibraryTable::openLibrary(const Foam::fileName&, bool)
    in file db/dynamicLibrary/dlLibraryTable/dlLibraryTable.C at line 188
    Could not load "libpetscFoam.so"
libpetscFoam.so: cannot open shared object file: No such file or directory
Processor 281: field transfer
--> FOAM Warning : 
    From void* Foam::dlLibraryTable::openLibrary(const Foam::fileName&, bool)
    in file db/dynamicLibrary/dlLibraryTable/dlLibraryTable.C at line 188
    Could not load "libpetscFoam.so"
libpetscFoam.so: cannot open shared object file: No such file or directory
Processor 282: field transfer
--> FOAM Warning : 
    From void* Foam::dlLibraryTable::openLibrary(const Foam::fileName&, bool)
    in file db/dynamicLibrary/dlLibraryTable/dlLibraryTable.C at line 188
    Could not load "libpetscFoam.so"
libpetscFoam.so: cannot open shared object file: No such file or directory
Processor 283: field transfer
--> FOAM Warning : 
    From void* Foam::dlLibraryTable::openLibrary(const Foam::fileName&, bool)
    in file db/dynamicLibrary/dlLibraryTable/dlLibraryTable.C at line 188
    Could not load "libpetscFoam.so"
libpetscFoam.so: cannot open shared object file: No such file or directory
Processor 284: field transfer
--> FOAM Warning : 
    From void* Foam::dlLibraryTable::openLibrary(const Foam::fileName&, bool)
    in file db/dynamicLibrary/dlLibraryTable/dlLibraryTable.C at line 188
    Could not load "libpetscFoam.so"
libpetscFoam.so: cannot open shared object file: No such file or directory
Processor 285: field transfer
--> FOAM Warning : 
    From void* Foam::dlLibraryTable::openLibrary(const Foam::fileName&, bool)
    in file db/dynamicLibrary/dlLibraryTable/dlLibraryTable.C at line 188
    Could not load "libpetscFoam.so"
libpetscFoam.so: cannot open shared object file: No such file or directory
Processor 286: field transfer
--> FOAM Warning : 
    From void* Foam::dlLibraryTable::openLibrary(const Foam::fileName&, bool)
    in file db/dynamicLibrary/dlLibraryTable/dlLibraryTable.C at line 188
    Could not load "libpetscFoam.so"
libpetscFoam.so: cannot open shared object file: No such file or directory
Processor 287: field transfer
--> FOAM Warning : 
    From void* Foam::dlLibraryTable::openLibrary(const Foam::fileName&, bool)
    in file db/dynamicLibrary/dlLibraryTable/dlLibraryTable.C at line 188
    Could not load "libpetscFoam.so"
libpetscFoam.so: cannot open shared object file: No such file or directory
Processor 288: field transfer
--> FOAM Warning : 
    From void* Foam::dlLibraryTable::openLibrary(const Foam::fileName&, bool)
    in file db/dynamicLibrary/dlLibraryTable/dlLibraryTable.C at line 188
    Could not load "libpetscFoam.so"
libpetscFoam.so: cannot open shared object file: No such file or directory
Processor 289: field transfer
--> FOAM Warning : 
    From void* Foam::dlLibraryTable::openLibrary(const Foam::fileName&, bool)
    in file db/dynamicLibrary/dlLibraryTable/dlLibraryTable.C at line 188
    Could not load "libpetscFoam.so"
libpetscFoam.so: cannot open shared object file: No such file or directory
Processor 290: field transfer
--> FOAM Warning : 
    From void* Foam::dlLibraryTable::openLibrary(const Foam::fileName&, bool)
    in file db/dynamicLibrary/dlLibraryTable/dlLibraryTable.C at line 188
    Could not load "libpetscFoam.so"
libpetscFoam.so: cannot open shared object file: No such file or directory
Processor 291: field transfer
--> FOAM Warning : 
    From void* Foam::dlLibraryTable::openLibrary(const Foam::fileName&, bool)
    in file db/dynamicLibrary/dlLibraryTable/dlLibraryTable.C at line 188
    Could not load "libpetscFoam.so"
libpetscFoam.so: cannot open shared object file: No such file or directory
Processor 292: field transfer
--> FOAM Warning : 
    From void* Foam::dlLibraryTable::openLibrary(const Foam::fileName&, bool)
    in file db/dynamicLibrary/dlLibraryTable/dlLibraryTable.C at line 188
    Could not load "libpetscFoam.so"
libpetscFoam.so: cannot open shared object file: No such file or directory
Processor 293: field transfer
--> FOAM Warning : 
    From void* Foam::dlLibraryTable::openLibrary(const Foam::fileName&, bool)
    in file db/dynamicLibrary/dlLibraryTable/dlLibraryTable.C at line 188
    Could not load "libpetscFoam.so"
libpetscFoam.so: cannot open shared object file: No such file or directory
Processor 294: field transfer
--> FOAM Warning : 
    From void* Foam::dlLibraryTable::openLibrary(const Foam::fileName&, bool)
    in file db/dynamicLibrary/dlLibraryTable/dlLibraryTable.C at line 188
    Could not load "libpetscFoam.so"
libpetscFoam.so: cannot open shared object file: No such file or directory
Processor 295: field transfer
--> FOAM Warning : 
    From void* Foam::dlLibraryTable::openLibrary(const Foam::fileName&, bool)
    in file db/dynamicLibrary/dlLibraryTable/dlLibraryTable.C at line 188
    Could not load "libpetscFoam.so"
libpetscFoam.so: cannot open shared object file: No such file or directory
Processor 296: field transfer
--> FOAM Warning : 
    From void* Foam::dlLibraryTable::openLibrary(const Foam::fileName&, bool)
    in file db/dynamicLibrary/dlLibraryTable/dlLibraryTable.C at line 188
    Could not load "libpetscFoam.so"
libpetscFoam.so: cannot open shared object file: No such file or directory
Processor 297: field transfer
--> FOAM Warning : 
    From void* Foam::dlLibraryTable::openLibrary(const Foam::fileName&, bool)
    in file db/dynamicLibrary/dlLibraryTable/dlLibraryTable.C at line 188
    Could not load "libpetscFoam.so"
libpetscFoam.so: cannot open shared object file: No such file or directory
Processor 298: field transfer
--> FOAM Warning : 
    From void* Foam::dlLibraryTable::openLibrary(const Foam::fileName&, bool)
    in file db/dynamicLibrary/dlLibraryTable/dlLibraryTable.C at line 188
    Could not load "libpetscFoam.so"
libpetscFoam.so: cannot open shared object file: No such file or directory
Processor 299: field transfer
--> FOAM Warning : 
    From void* Foam::dlLibraryTable::openLibrary(const Foam::fileName&, bool)
    in file db/dynamicLibrary/dlLibraryTable/dlLibraryTable.C at line 188
    Could not load "libpetscFoam.so"
libpetscFoam.so: cannot open shared object file: No such file or directory
Processor 300: field transfer
--> FOAM Warning : 
    From void* Foam::dlLibraryTable::openLibrary(const Foam::fileName&, bool)
    in file db/dynamicLibrary/dlLibraryTable/dlLibraryTable.C at line 188
    Could not load "libpetscFoam.so"
libpetscFoam.so: cannot open shared object file: No such file or directory
Processor 301: field transfer
--> FOAM Warning : 
    From void* Foam::dlLibraryTable::openLibrary(const Foam::fileName&, bool)
    in file db/dynamicLibrary/dlLibraryTable/dlLibraryTable.C at line 188
    Could not load "libpetscFoam.so"
libpetscFoam.so: cannot open shared object file: No such file or directory
Processor 302: field transfer
--> FOAM Warning : 
    From void* Foam::dlLibraryTable::openLibrary(const Foam::fileName&, bool)
    in file db/dynamicLibrary/dlLibraryTable/dlLibraryTable.C at line 188
    Could not load "libpetscFoam.so"
libpetscFoam.so: cannot open shared object file: No such file or directory
Processor 303: field transfer
--> FOAM Warning : 
    From void* Foam::dlLibraryTable::openLibrary(const Foam::fileName&, bool)
    in file db/dynamicLibrary/dlLibraryTable/dlLibraryTable.C at line 188
    Could not load "libpetscFoam.so"
libpetscFoam.so: cannot open shared object file: No such file or directory

End

