/*---------------------------------------------------------------------------*\
| =========                 |                                                 |
| \\      /  F ield         | OpenFOAM: The Open Source CFD Toolbox           |
|  \\    /   O peration     | Version:  2212                                  |
|   \\  /    A nd           | Website:  www.openfoam.com                      |
|    \\/     M anipulation  |                                                 |
\*---------------------------------------------------------------------------*/
Build  : 5614a57-20230228 OPENFOAM=2212 patch=230110 version=v2212
Arch   : "LSB;label=32;scalar=64"
Exec   : icoFoam -parallel -case /home/greole/data/code/exasim-project/micro_benchmarks/LidDrivenCavity3D/workspace/9a3939ec5148875b8f40c3a162fb06aa/case
Date   : Jul 02 2023
Time   : 08:50:12
Host   : guyot
PID    : 2394991
I/O    : uncollated
Case   : /home/greole/data/code/exasim-project/micro_benchmarks/LidDrivenCavity3D/workspace/9a3939ec5148875b8f40c3a162fb06aa/case
nProcs : 128
Hosts  :
(
    (guyot 128)
)
Pstream initialized with:
    floatTransfer      : 0
    nProcsSimpleSum    : 0
    commsType          : nonBlocking
    polling iterations : 0
trapFpe: Floating point exception trapping enabled (FOAM_SIGFPE).
fileModificationChecking : Monitoring run-time modified files using timeStampMaster (fileModificationSkew 5, maxFileModificationPolls 20)
allowSystemOperations : Allowing user-supplied system call operations

// * * * * * * * * * * * * * * * * * * * * * * * * * * * * * * * * * * * * * //
Create time

--> FOAM Warning : 
    From void* Foam::dlLibraryTable::openLibrary(const Foam::fileName&, bool)
    in file db/dynamicLibrary/dlLibraryTable/dlLibraryTable.C at line 188
    Could not load "libpetscFoam.so"
libpetscFoam.so: cannot open shared object file: No such file or directory
Create mesh for time = 0


PISO: Operating solver in PISO mode

Reading transportProperties

Reading field p

Reading field U

Reading/calculating face flux field phi


Starting time loop

Time = 0.0005

Courant Number mean: 8.62851e-18 max: 8.67362e-15
[INFO] MatrixAssemblyU: 2.097 [ms]
DILUPBiCGStab:  Solving for Ux, Initial residual = 1, Final residual = 0.00390981, No Iterations 5
DILUPBiCGStab:  Solving for Uy:  solution singularity
DILUPBiCGStab:  Solving for Uz:  solution singularity
[INFO] MomentumPredictor: 7.313 [ms]
[INFO] MatrixAssemblyPI: 1.931 [ms]
[INFO] AdjustPhi: 0.507 [ms]
[INFO] ConstrainPressure: 0.008 [ms]
[INFO] MatrixAssemblyPII: 0.547 [ms]
nonePCG:  Solving for p, Initial residual = 1, Final residual = 9.94995e-05, No Iterations 792
[INFO] SolveP: 123.24 [ms]
time step continuity errors : sum local = 2.14856e-08, global = -2.01503e-20, cumulative = -2.01503e-20
[INFO] ContinuityError: 0.214 [ms]
[INFO] CorrectBoundary: 0.069 [ms]
[INFO] PISOStep: 127.344 [ms]
[INFO] MatrixAssemblyPI: 1.406 [ms]
[INFO] AdjustPhi: 0.588 [ms]
[INFO] ConstrainPressure: 0.001 [ms]
[INFO] MatrixAssemblyPII: 0.528 [ms]
nonePCG:  Solving for p, Initial residual = 0.728848, Final residual = 9.92218e-05, No Iterations 781
[INFO] SolveP: 127.601 [ms]
time step continuity errors : sum local = 2.82785e-08, global = 2.23708e-21, cumulative = -1.79132e-20
[INFO] ContinuityError: 0.232 [ms]
[INFO] CorrectBoundary: 0.05 [ms]
[INFO] PISOStep: 131.283 [ms]
[INFO] TimeStep: 268.598 [ms]
ExecutionTime = 0.57 s  ClockTime = 1 s

Time = 0.001

Courant Number mean: 0.0214729 max: 0.377084
[INFO] MatrixAssemblyU: 1.648 [ms]
DILUPBiCGStab:  Solving for Ux, Initial residual = 0.15015, Final residual = 0.00196532, No Iterations 5
DILUPBiCGStab:  Solving for Uy, Initial residual = 0.368541, Final residual = 0.00363126, No Iterations 5
DILUPBiCGStab:  Solving for Uz, Initial residual = 0.985419, Final residual = 0.0101862, No Iterations 5
[INFO] MomentumPredictor: 11.687 [ms]
[INFO] MatrixAssemblyPI: 2.051 [ms]
[INFO] AdjustPhi: 0.205 [ms]
[INFO] ConstrainPressure: 0.001 [ms]
[INFO] MatrixAssemblyPII: 0.686 [ms]
nonePCG:  Solving for p, Initial residual = 0.697285, Final residual = 9.4519e-05, No Iterations 776
[INFO] SolveP: 118.256 [ms]
time step continuity errors : sum local = 3.06754e-08, global = 1.81053e-21, cumulative = -1.61027e-20
[INFO] ContinuityError: 0.212 [ms]
[INFO] CorrectBoundary: 0.065 [ms]
[INFO] PISOStep: 122.135 [ms]
[INFO] MatrixAssemblyPI: 1.564 [ms]
[INFO] AdjustPhi: 0.448 [ms]
[INFO] ConstrainPressure: 0.001 [ms]
[INFO] MatrixAssemblyPII: 0.527 [ms]
nonePCG:  Solving for p, Initial residual = 0.625267, Final residual = 9.88733e-05, No Iterations 773
[INFO] SolveP: 123.049 [ms]
time step continuity errors : sum local = 3.27433e-08, global = -4.55415e-22, cumulative = -1.65581e-20
[INFO] ContinuityError: 0.204 [ms]
[INFO] CorrectBoundary: 0.035 [ms]
[INFO] PISOStep: 126.621 [ms]
[INFO] TimeStep: 262.416 [ms]
ExecutionTime = 0.82 s  ClockTime = 1 s

Time = 0.0015

Courant Number mean: 0.0324304 max: 0.44115
[INFO] MatrixAssemblyU: 1.323 [ms]
DILUPBiCGStab:  Solving for Ux, Initial residual = 0.0531893, Final residual = 0.00063631, No Iterations 5
DILUPBiCGStab:  Solving for Uy, Initial residual = 0.124898, Final residual = 0.000863552, No Iterations 5
DILUPBiCGStab:  Solving for Uz, Initial residual = 0.577918, Final residual = 0.00559623, No Iterations 5
[INFO] MomentumPredictor: 11.276 [ms]
[INFO] MatrixAssemblyPI: 1.905 [ms]
[INFO] AdjustPhi: 0.313 [ms]
[INFO] ConstrainPressure: 0.001 [ms]
[INFO] MatrixAssemblyPII: 0.713 [ms]
nonePCG:  Solving for p, Initial residual = 0.636986, Final residual = 9.68354e-05, No Iterations 768
[INFO] SolveP: 116.713 [ms]
time step continuity errors : sum local = 2.24877e-08, global = 1.63623e-21, cumulative = -1.49219e-20
[INFO] ContinuityError: 0.264 [ms]
[INFO] CorrectBoundary: 0.059 [ms]
[INFO] PISOStep: 120.658 [ms]
[INFO] MatrixAssemblyPI: 1.769 [ms]
[INFO] AdjustPhi: 0.266 [ms]
[INFO] ConstrainPressure: 0.001 [ms]
[INFO] MatrixAssemblyPII: 0.584 [ms]
nonePCG:  Solving for p, Initial residual = 0.583573, Final residual = 9.83593e-05, No Iterations 766
[INFO] SolveP: 127.977 [ms]
time step continuity errors : sum local = 2.22097e-08, global = -1.86969e-21, cumulative = -1.67916e-20
[INFO] ContinuityError: 0.23 [ms]
[INFO] CorrectBoundary: 0.046 [ms]
[INFO] PISOStep: 131.617 [ms]
[INFO] TimeStep: 265.176 [ms]
ExecutionTime = 1.09 s  ClockTime = 1 s

Time = 0.002

Courant Number mean: 0.0388283 max: 0.452863
[INFO] MatrixAssemblyU: 1.345 [ms]
DILUPBiCGStab:  Solving for Ux, Initial residual = 0.0319727, Final residual = 0.000346246, No Iterations 5
DILUPBiCGStab:  Solving for Uy, Initial residual = 0.0814385, Final residual = 0.000623777, No Iterations 5
DILUPBiCGStab:  Solving for Uz, Initial residual = 0.280129, Final residual = 0.0023332, No Iterations 5
[INFO] MomentumPredictor: 11.466 [ms]
[INFO] MatrixAssemblyPI: 1.949 [ms]
[INFO] AdjustPhi: 0.216 [ms]
[INFO] ConstrainPressure: 0.001 [ms]
[INFO] MatrixAssemblyPII: 0.652 [ms]
nonePCG:  Solving for p, Initial residual = 0.421503, Final residual = 9.71012e-05, No Iterations 761
[INFO] SolveP: 117.746 [ms]
time step continuity errors : sum local = 1.92878e-08, global = 3.42778e-21, cumulative = -1.33638e-20
[INFO] ContinuityError: 0.217 [ms]
[INFO] CorrectBoundary: 0.052 [ms]
[INFO] PISOStep: 121.598 [ms]
[INFO] MatrixAssemblyPI: 1.755 [ms]
[INFO] AdjustPhi: 0.274 [ms]
[INFO] ConstrainPressure: 0.001 [ms]
[INFO] MatrixAssemblyPII: 0.555 [ms]
nonePCG:  Solving for p, Initial residual = 0.358658, Final residual = 9.73341e-05, No Iterations 758
[INFO] SolveP: 122.176 [ms]
time step continuity errors : sum local = 1.95206e-08, global = 4.07842e-21, cumulative = -9.28539e-21
[INFO] ContinuityError: 0.194 [ms]
[INFO] CorrectBoundary: 0.078 [ms]
[INFO] PISOStep: 125.741 [ms]
[INFO] TimeStep: 260.448 [ms]
ExecutionTime = 1.35 s  ClockTime = 2 s

Time = 0.0025

Courant Number mean: 0.0438805 max: 0.45957
[INFO] MatrixAssemblyU: 1.28 [ms]
DILUPBiCGStab:  Solving for Ux, Initial residual = 0.0235738, Final residual = 0.000223309, No Iterations 5
DILUPBiCGStab:  Solving for Uy, Initial residual = 0.0516113, Final residual = 0.000369789, No Iterations 5
DILUPBiCGStab:  Solving for Uz, Initial residual = 0.101996, Final residual = 0.000890088, No Iterations 5
[INFO] MomentumPredictor: 11.114 [ms]
[INFO] MatrixAssemblyPI: 1.993 [ms]
[INFO] AdjustPhi: 0.228 [ms]
[INFO] ConstrainPressure: 0.001 [ms]
[INFO] MatrixAssemblyPII: 0.651 [ms]
nonePCG:  Solving for p, Initial residual = 0.320029, Final residual = 9.83826e-05, No Iterations 364
[INFO] SolveP: 56.02 [ms]
time step continuity errors : sum local = 1.83526e-08, global = 2.92822e-21, cumulative = -6.35717e-21
[INFO] ContinuityError: 0.188 [ms]
[INFO] CorrectBoundary: 0.068 [ms]
[INFO] PISOStep: 59.873 [ms]
[INFO] MatrixAssemblyPI: 1.894 [ms]
[INFO] AdjustPhi: 0.279 [ms]
[INFO] ConstrainPressure: 0.001 [ms]
[INFO] MatrixAssemblyPII: 0.585 [ms]
nonePCG:  Solving for p, Initial residual = 0.274244, Final residual = 9.61782e-05, No Iterations 357
[INFO] SolveP: 54.506 [ms]
time step continuity errors : sum local = 1.62357e-08, global = 4.51796e-21, cumulative = -1.83921e-21
[INFO] ContinuityError: 0.204 [ms]
[INFO] CorrectBoundary: 0.051 [ms]
[INFO] PISOStep: 58.193 [ms]
[INFO] TimeStep: 130.764 [ms]
ExecutionTime = 1.48 s  ClockTime = 2 s

Time = 0.003

Courant Number mean: 0.0479234 max: 0.463806
[INFO] MatrixAssemblyU: 1.336 [ms]
DILUPBiCGStab:  Solving for Ux, Initial residual = 0.0179395, Final residual = 0.000147348, No Iterations 5
DILUPBiCGStab:  Solving for Uy, Initial residual = 0.0402099, Final residual = 0.000238727, No Iterations 5
DILUPBiCGStab:  Solving for Uz, Initial residual = 0.0881437, Final residual = 0.00075086, No Iterations 5
[INFO] MomentumPredictor: 10.969 [ms]
[INFO] MatrixAssemblyPI: 1.847 [ms]
[INFO] AdjustPhi: 0.337 [ms]
[INFO] ConstrainPressure: 0.001 [ms]
[INFO] MatrixAssemblyPII: 0.673 [ms]
nonePCG:  Solving for p, Initial residual = 0.20153, Final residual = 9.62982e-05, No Iterations 346
[INFO] SolveP: 54.277 [ms]
time step continuity errors : sum local = 1.51878e-08, global = -1.02578e-20, cumulative = -1.2097e-20
[INFO] ContinuityError: 0.224 [ms]
[INFO] CorrectBoundary: 0.058 [ms]
[INFO] PISOStep: 58.104 [ms]
[INFO] MatrixAssemblyPI: 1.595 [ms]
[INFO] AdjustPhi: 0.324 [ms]
[INFO] ConstrainPressure: 0.001 [ms]
[INFO] MatrixAssemblyPII: 0.579 [ms]
nonePCG:  Solving for p, Initial residual = 0.167803, Final residual = 9.22914e-05, No Iterations 345
[INFO] SolveP: 59.925 [ms]
time step continuity errors : sum local = 1.45657e-08, global = -2.78946e-21, cumulative = -1.48864e-20
[INFO] ContinuityError: 0.196 [ms]
[INFO] CorrectBoundary: 0.031 [ms]
[INFO] PISOStep: 63.443 [ms]
[INFO] TimeStep: 134.164 [ms]
ExecutionTime = 1.61 s  ClockTime = 2 s

Time = 0.0035

Courant Number mean: 0.0513357 max: 0.466692
[INFO] MatrixAssemblyU: 1.45 [ms]
DILUPBiCGStab:  Solving for Ux, Initial residual = 0.0146893, Final residual = 0.000102607, No Iterations 5
DILUPBiCGStab:  Solving for Uy, Initial residual = 0.031816, Final residual = 0.000183865, No Iterations 5
DILUPBiCGStab:  Solving for Uz, Initial residual = 0.0599017, Final residual = 0.000507526, No Iterations 5
[INFO] MomentumPredictor: 11.136 [ms]
[INFO] MatrixAssemblyPI: 1.913 [ms]
[INFO] AdjustPhi: 0.284 [ms]
[INFO] ConstrainPressure: 0.001 [ms]
[INFO] MatrixAssemblyPII: 0.634 [ms]
nonePCG:  Solving for p, Initial residual = 0.140824, Final residual = 9.92556e-05, No Iterations 703
[INFO] SolveP: 110.225 [ms]
time step continuity errors : sum local = 1.47257e-08, global = 4.30045e-21, cumulative = -1.0586e-20
[INFO] ContinuityError: 0.215 [ms]
[INFO] CorrectBoundary: 0.089 [ms]
[INFO] PISOStep: 114.129 [ms]
[INFO] MatrixAssemblyPI: 1.701 [ms]
[INFO] AdjustPhi: 0.269 [ms]
[INFO] ConstrainPressure: 0.001 [ms]
[INFO] MatrixAssemblyPII: 0.58 [ms]
nonePCG:  Solving for p, Initial residual = 0.117891, Final residual = 9.96534e-05, No Iterations 362
[INFO] SolveP: 56.717 [ms]
time step continuity errors : sum local = 1.71931e-08, global = 5.96852e-21, cumulative = -4.61746e-21
[INFO] ContinuityError: 0.215 [ms]
[INFO] CorrectBoundary: 0.051 [ms]
[INFO] PISOStep: 60.196 [ms]
[INFO] TimeStep: 187.219 [ms]
ExecutionTime = 1.79 s  ClockTime = 2 s

Time = 0.004

Courant Number mean: 0.0542788 max: 0.468905
[INFO] MatrixAssemblyU: 1.375 [ms]
DILUPBiCGStab:  Solving for Ux, Initial residual = 0.0123201, Final residual = 7.87686e-05, No Iterations 5
DILUPBiCGStab:  Solving for Uy, Initial residual = 0.0265937, Final residual = 0.000115004, No Iterations 5
DILUPBiCGStab:  Solving for Uz, Initial residual = 0.0534895, Final residual = 0.00039195, No Iterations 5
[INFO] MomentumPredictor: 11.213 [ms]
[INFO] MatrixAssemblyPI: 2.013 [ms]
[INFO] AdjustPhi: 0.188 [ms]
[INFO] ConstrainPressure: 0.001 [ms]
[INFO] MatrixAssemblyPII: 0.622 [ms]
nonePCG:  Solving for p, Initial residual = 0.0929463, Final residual = 9.82986e-05, No Iterations 710
[INFO] SolveP: 112.568 [ms]
time step continuity errors : sum local = 1.42907e-08, global = 3.75123e-21, cumulative = -8.66225e-22
[INFO] ContinuityError: 0.209 [ms]
[INFO] CorrectBoundary: 0.043 [ms]
[INFO] PISOStep: 116.445 [ms]
[INFO] MatrixAssemblyPI: 1.645 [ms]
[INFO] AdjustPhi: 0.318 [ms]
[INFO] ConstrainPressure: 0.001 [ms]
[INFO] MatrixAssemblyPII: 0.586 [ms]
nonePCG:  Solving for p, Initial residual = 0.0770896, Final residual = 9.76696e-05, No Iterations 708
[INFO] SolveP: 110.795 [ms]
time step continuity errors : sum local = 1.42039e-08, global = 4.46417e-21, cumulative = 3.59795e-21
[INFO] ContinuityError: 0.193 [ms]
[INFO] CorrectBoundary: 0.067 [ms]
[INFO] PISOStep: 114.281 [ms]
[INFO] TimeStep: 243.626 [ms]
ExecutionTime = 2.04 s  ClockTime = 2 s

Time = 0.0045

Courant Number mean: 0.0568597 max: 0.470611
[INFO] MatrixAssemblyU: 1.411 [ms]
DILUPBiCGStab:  Solving for Ux, Initial residual = 0.0105748, Final residual = 6.15228e-05, No Iterations 5
DILUPBiCGStab:  Solving for Uy, Initial residual = 0.0227197, Final residual = 9.92328e-05, No Iterations 5
DILUPBiCGStab:  Solving for Uz, Initial residual = 0.0447123, Final residual = 0.00031491, No Iterations 5
[INFO] MomentumPredictor: 11.319 [ms]
[INFO] MatrixAssemblyPI: 1.974 [ms]
[INFO] AdjustPhi: 0.208 [ms]
[INFO] ConstrainPressure: 0.001 [ms]
[INFO] MatrixAssemblyPII: 0.641 [ms]
nonePCG:  Solving for p, Initial residual = 0.0668394, Final residual = 9.89149e-05, No Iterations 705
[INFO] SolveP: 110.275 [ms]
time step continuity errors : sum local = 1.41364e-08, global = -1.253e-21, cumulative = 2.34495e-21
[INFO] ContinuityError: 0.207 [ms]
[INFO] CorrectBoundary: 0.049 [ms]
[INFO] PISOStep: 114.153 [ms]
[INFO] MatrixAssemblyPI: 1.665 [ms]
[INFO] AdjustPhi: 0.33 [ms]
[INFO] ConstrainPressure: 0.001 [ms]
[INFO] MatrixAssemblyPII: 0.583 [ms]
nonePCG:  Solving for p, Initial residual = 0.0558493, Final residual = 9.85512e-05, No Iterations 703
[INFO] SolveP: 108.58 [ms]
time step continuity errors : sum local = 1.40886e-08, global = 8.38907e-22, cumulative = 3.18385e-21
[INFO] ContinuityError: 0.194 [ms]
[INFO] CorrectBoundary: 0.051 [ms]
[INFO] PISOStep: 112.143 [ms]
[INFO] TimeStep: 239.339 [ms]
ExecutionTime = 2.28 s  ClockTime = 2 s

Time = 0.005

Courant Number mean: 0.0591591 max: 0.47201
[INFO] MatrixAssemblyU: 1.286 [ms]
DILUPBiCGStab:  Solving for Ux, Initial residual = 0.00925565, Final residual = 5.23172e-05, No Iterations 5
DILUPBiCGStab:  Solving for Uy, Initial residual = 0.0197536, Final residual = 7.99654e-05, No Iterations 5
DILUPBiCGStab:  Solving for Uz, Initial residual = 0.038922, Final residual = 0.000243043, No Iterations 5
[INFO] MomentumPredictor: 11.19 [ms]
[INFO] MatrixAssemblyPI: 1.869 [ms]
[INFO] AdjustPhi: 0.289 [ms]
[INFO] ConstrainPressure: 0.001 [ms]
[INFO] MatrixAssemblyPII: 0.593 [ms]
nonePCG:  Solving for p, Initial residual = 0.0451666, Final residual = 9.91619e-05, No Iterations 315
[INFO] SolveP: 48.835 [ms]
time step continuity errors : sum local = 1.41342e-08, global = -6.12781e-21, cumulative = -2.94395e-21
[INFO] ContinuityError: 0.218 [ms]
[INFO] CorrectBoundary: 0.037 [ms]
[INFO] PISOStep: 52.609 [ms]
[INFO] MatrixAssemblyPI: 1.674 [ms]
[INFO] AdjustPhi: 0.319 [ms]
[INFO] ConstrainPressure: 0.001 [ms]
[INFO] MatrixAssemblyPII: 0.584 [ms]
nonePCG:  Solving for p, Initial residual = 0.0381741, Final residual = 9.91857e-05, No Iterations 313
[INFO] SolveP: 48.664 [ms]
time step continuity errors : sum local = 1.4137e-08, global = -4.10194e-21, cumulative = -7.04589e-21
[INFO] ContinuityError: 0.213 [ms]
[INFO] CorrectBoundary: 0.047 [ms]
[INFO] PISOStep: 52.226 [ms]
[INFO] TimeStep: 117.624 [ms]
ExecutionTime = 2.39 s  ClockTime = 3 s

Time = 0.0055

Courant Number mean: 0.0612223 max: 0.473161
[INFO] MatrixAssemblyU: 1.425 [ms]
DILUPBiCGStab:  Solving for Ux, Initial residual = 0.00816932, Final residual = 4.38854e-05, No Iterations 5
DILUPBiCGStab:  Solving for Uy, Initial residual = 0.0174762, Final residual = 7.06625e-05, No Iterations 5
DILUPBiCGStab:  Solving for Uz, Initial residual = 0.034602, Final residual = 0.000206102, No Iterations 5
[INFO] MomentumPredictor: 10.465 [ms]
[INFO] MatrixAssemblyPI: 1.883 [ms]
[INFO] AdjustPhi: 0.267 [ms]
[INFO] ConstrainPressure: 0.001 [ms]
[INFO] MatrixAssemblyPII: 0.643 [ms]
nonePCG:  Solving for p, Initial residual = 0.0347947, Final residual = 9.90467e-05, No Iterations 311
[INFO] SolveP: 50.054 [ms]
time step continuity errors : sum local = 1.48144e-08, global = 3.60496e-21, cumulative = -3.44093e-21
[INFO] ContinuityError: 0.196 [ms]
[INFO] CorrectBoundary: 0.036 [ms]
[INFO] PISOStep: 53.845 [ms]
[INFO] MatrixAssemblyPI: 1.703 [ms]
[INFO] AdjustPhi: 0.292 [ms]
[INFO] ConstrainPressure: 0.001 [ms]
[INFO] MatrixAssemblyPII: 0.535 [ms]
nonePCG:  Solving for p, Initial residual = 0.0296256, Final residual = 9.73579e-05, No Iterations 308
[INFO] SolveP: 48.753 [ms]
time step continuity errors : sum local = 1.39302e-08, global = -9.23289e-22, cumulative = -4.36422e-21
[INFO] ContinuityError: 0.203 [ms]
[INFO] CorrectBoundary: 0.047 [ms]
[INFO] PISOStep: 52.28 [ms]
[INFO] TimeStep: 118.335 [ms]
ExecutionTime = 2.51 s  ClockTime = 3 s

Time = 0.006

Courant Number mean: 0.0630976 max: 0.474141
[INFO] MatrixAssemblyU: 1.457 [ms]
DILUPBiCGStab:  Solving for Ux, Initial residual = 0.00731117, Final residual = 3.87066e-05, No Iterations 5
DILUPBiCGStab:  Solving for Uy, Initial residual = 0.0156031, Final residual = 6.1604e-05, No Iterations 5
DILUPBiCGStab:  Solving for Uz, Initial residual = 0.0311186, Final residual = 0.000177145, No Iterations 5
[INFO] MomentumPredictor: 10.912 [ms]
[INFO] MatrixAssemblyPI: 1.91 [ms]
[INFO] AdjustPhi: 0.266 [ms]
[INFO] ConstrainPressure: 0.001 [ms]
[INFO] MatrixAssemblyPII: 0.645 [ms]
nonePCG:  Solving for p, Initial residual = 0.0251279, Final residual = 9.82153e-05, No Iterations 308
[INFO] SolveP: 47.951 [ms]
time step continuity errors : sum local = 1.42543e-08, global = 1.79105e-21, cumulative = -2.57317e-21
[INFO] ContinuityError: 0.194 [ms]
[INFO] CorrectBoundary: 0.036 [ms]
[INFO] PISOStep: 51.785 [ms]
[INFO] MatrixAssemblyPI: 1.711 [ms]
[INFO] AdjustPhi: 0.253 [ms]
[INFO] ConstrainPressure: 0.001 [ms]
[INFO] MatrixAssemblyPII: 0.594 [ms]
nonePCG:  Solving for p, Initial residual = 0.0219749, Final residual = 9.66989e-05, No Iterations 305
[INFO] SolveP: 49.331 [ms]
time step continuity errors : sum local = 1.37201e-08, global = -3.32286e-21, cumulative = -5.89603e-21
[INFO] ContinuityError: 0.2 [ms]
[INFO] CorrectBoundary: 0.034 [ms]
[INFO] PISOStep: 52.832 [ms]
[INFO] TimeStep: 117.304 [ms]
ExecutionTime = 2.62 s  ClockTime = 3 s

Time = 0.0065

Courant Number mean: 0.0648048 max: 0.47498
[INFO] MatrixAssemblyU: 1.38 [ms]
DILUPBiCGStab:  Solving for Ux, Initial residual = 0.00658295, Final residual = 3.38844e-05, No Iterations 5
DILUPBiCGStab:  Solving for Uy, Initial residual = 0.0140686, Final residual = 5.51588e-05, No Iterations 5
DILUPBiCGStab:  Solving for Uz, Initial residual = 0.0284796, Final residual = 0.000156754, No Iterations 5
[INFO] MomentumPredictor: 11.115 [ms]
[INFO] MatrixAssemblyPI: 1.926 [ms]
[INFO] AdjustPhi: 0.189 [ms]
[INFO] ConstrainPressure: 0.001 [ms]
[INFO] MatrixAssemblyPII: 0.641 [ms]
nonePCG:  Solving for p, Initial residual = 0.020686, Final residual = 9.81129e-05, No Iterations 311
[INFO] SolveP: 47.147 [ms]
time step continuity errors : sum local = 1.50543e-08, global = -6.16115e-21, cumulative = -1.20572e-20
[INFO] ContinuityError: 0.206 [ms]
[INFO] CorrectBoundary: 0.063 [ms]
[INFO] PISOStep: 50.939 [ms]
[INFO] MatrixAssemblyPI: 1.599 [ms]
[INFO] AdjustPhi: 0.399 [ms]
[INFO] ConstrainPressure: 0.001 [ms]
[INFO] MatrixAssemblyPII: 0.599 [ms]
nonePCG:  Solving for p, Initial residual = 0.0182529, Final residual = 9.97796e-05, No Iterations 305
[INFO] SolveP: 47.244 [ms]
time step continuity errors : sum local = 1.43767e-08, global = 1.93033e-21, cumulative = -1.01269e-20
[INFO] ContinuityError: 0.216 [ms]
[INFO] CorrectBoundary: 0.048 [ms]
[INFO] PISOStep: 50.768 [ms]
[INFO] TimeStep: 114.499 [ms]
ExecutionTime = 2.75 s  ClockTime = 3 s

Time = 0.007

Courant Number mean: 0.0663752 max: 0.475712
[INFO] MatrixAssemblyU: 1.274 [ms]
DILUPBiCGStab:  Solving for Ux, Initial residual = 0.00597702, Final residual = 3.0539e-05, No Iterations 5
DILUPBiCGStab:  Solving for Uy, Initial residual = 0.0127823, Final residual = 4.95154e-05, No Iterations 5
DILUPBiCGStab:  Solving for Uz, Initial residual = 0.0260145, Final residual = 0.000141973, No Iterations 5
[INFO] MomentumPredictor: 11.987 [ms]
[INFO] MatrixAssemblyPI: 1.937 [ms]
[INFO] AdjustPhi: 0.268 [ms]
[INFO] ConstrainPressure: 0.002 [ms]
[INFO] MatrixAssemblyPII: 0.655 [ms]
nonePCG:  Solving for p, Initial residual = 0.016343, Final residual = 9.97281e-05, No Iterations 311
[INFO] SolveP: 50.421 [ms]
time step continuity errors : sum local = 1.50639e-08, global = -2.72401e-21, cumulative = -1.28509e-20
[INFO] ContinuityError: 0.213 [ms]
[INFO] CorrectBoundary: 0.043 [ms]
[INFO] PISOStep: 54.318 [ms]
[INFO] MatrixAssemblyPI: 1.709 [ms]
[INFO] AdjustPhi: 0.287 [ms]
[INFO] ConstrainPressure: 0.001 [ms]
[INFO] MatrixAssemblyPII: 0.555 [ms]
nonePCG:  Solving for p, Initial residual = 0.0148277, Final residual = 9.80225e-05, No Iterations 307
[INFO] SolveP: 48.436 [ms]
time step continuity errors : sum local = 1.40151e-08, global = -2.81148e-21, cumulative = -1.56623e-20
[INFO] ContinuityError: 0.206 [ms]
[INFO] CorrectBoundary: 0.037 [ms]
[INFO] PISOStep: 51.938 [ms]
[INFO] TimeStep: 119.818 [ms]
ExecutionTime = 2.86 s  ClockTime = 3 s

Time = 0.0075

Courant Number mean: 0.0678248 max: 0.476354
[INFO] MatrixAssemblyU: 1.316 [ms]
DILUPBiCGStab:  Solving for Ux, Initial residual = 0.00545795, Final residual = 2.74773e-05, No Iterations 5
DILUPBiCGStab:  Solving for Uy, Initial residual = 0.0116748, Final residual = 4.49617e-05, No Iterations 5
DILUPBiCGStab:  Solving for Uz, Initial residual = 0.02423, Final residual = 0.000130879, No Iterations 5
[INFO] MomentumPredictor: 11.4 [ms]
[INFO] MatrixAssemblyPI: 1.947 [ms]
[INFO] AdjustPhi: 0.342 [ms]
[INFO] ConstrainPressure: 0.001 [ms]
[INFO] MatrixAssemblyPII: 0.629 [ms]
nonePCG:  Solving for p, Initial residual = 0.0142964, Final residual = 9.87632e-05, No Iterations 333
[INFO] SolveP: 51.681 [ms]
time step continuity errors : sum local = 1.59619e-08, global = -3.11971e-21, cumulative = -1.87821e-20
[INFO] ContinuityError: 0.212 [ms]
[INFO] CorrectBoundary: 0.066 [ms]
[INFO] PISOStep: 55.651 [ms]
[INFO] MatrixAssemblyPI: 1.72 [ms]
[INFO] AdjustPhi: 0.27 [ms]
[INFO] ConstrainPressure: 0.001 [ms]
[INFO] MatrixAssemblyPII: 0.58 [ms]
nonePCG:  Solving for p, Initial residual = 0.0130404, Final residual = 9.66359e-05, No Iterations 307
[INFO] SolveP: 47.653 [ms]
time step continuity errors : sum local = 1.41987e-08, global = 2.97919e-21, cumulative = -1.58029e-20
[INFO] ContinuityError: 0.219 [ms]
[INFO] CorrectBoundary: 0.043 [ms]
[INFO] PISOStep: 51.19 [ms]
[INFO] TimeStep: 119.849 [ms]
ExecutionTime = 2.98 s  ClockTime = 3 s

Time = 0.008

Courant Number mean: 0.0691644 max: 0.476925
[INFO] MatrixAssemblyU: 1.43 [ms]
DILUPBiCGStab:  Solving for Ux, Initial residual = 0.00500468, Final residual = 2.51626e-05, No Iterations 5
DILUPBiCGStab:  Solving for Uy, Initial residual = 0.0107419, Final residual = 4.10161e-05, No Iterations 5
DILUPBiCGStab:  Solving for Uz, Initial residual = 0.0223493, Final residual = 0.000126613, No Iterations 5
[INFO] MomentumPredictor: 11.434 [ms]
[INFO] MatrixAssemblyPI: 1.885 [ms]
[INFO] AdjustPhi: 0.326 [ms]
[INFO] ConstrainPressure: 0.001 [ms]
[INFO] MatrixAssemblyPII: 0.704 [ms]
nonePCG:  Solving for p, Initial residual = 0.012229, Final residual = 9.83359e-05, No Iterations 330
[INFO] SolveP: 51.98 [ms]
time step continuity errors : sum local = 1.59337e-08, global = 3.93841e-21, cumulative = -1.18645e-20
[INFO] ContinuityError: 0.201 [ms]
[INFO] CorrectBoundary: 0.066 [ms]
[INFO] PISOStep: 55.877 [ms]
[INFO] MatrixAssemblyPI: 1.519 [ms]
[INFO] AdjustPhi: 0.424 [ms]
[INFO] ConstrainPressure: 0.001 [ms]
[INFO] MatrixAssemblyPII: 0.536 [ms]
nonePCG:  Solving for p, Initial residual = 0.0113671, Final residual = 9.94344e-05, No Iterations 305
[INFO] SolveP: 47.647 [ms]
time step continuity errors : sum local = 1.44871e-08, global = -3.09368e-21, cumulative = -1.49581e-20
[INFO] ContinuityError: 0.243 [ms]
[INFO] CorrectBoundary: 0.063 [ms]
[INFO] PISOStep: 51.38 [ms]
[INFO] TimeStep: 120.423 [ms]
ExecutionTime = 3.1 s  ClockTime = 3 s

Time = 0.0085

Courant Number mean: 0.0704118 max: 0.477435
[INFO] MatrixAssemblyU: 1.204 [ms]
DILUPBiCGStab:  Solving for Ux, Initial residual = 0.00462145, Final residual = 2.30713e-05, No Iterations 5
DILUPBiCGStab:  Solving for Uy, Initial residual = 0.00989747, Final residual = 3.77028e-05, No Iterations 5
DILUPBiCGStab:  Solving for Uz, Initial residual = 0.0211897, Final residual = 0.000125573, No Iterations 5
[INFO] MomentumPredictor: 11.146 [ms]
[INFO] MatrixAssemblyPI: 1.991 [ms]
[INFO] AdjustPhi: 0.132 [ms]
[INFO] ConstrainPressure: 0.001 [ms]
[INFO] MatrixAssemblyPII: 0.629 [ms]
nonePCG:  Solving for p, Initial residual = 0.0110582, Final residual = 9.91605e-05, No Iterations 689
[INFO] SolveP: 107.54 [ms]
time step continuity errors : sum local = 1.38616e-08, global = -1.02357e-20, cumulative = -2.51938e-20
[INFO] ContinuityError: 0.204 [ms]
[INFO] CorrectBoundary: 0.039 [ms]
[INFO] PISOStep: 111.332 [ms]
[INFO] MatrixAssemblyPI: 1.616 [ms]
[INFO] AdjustPhi: 0.323 [ms]
[INFO] ConstrainPressure: 0.001 [ms]
[INFO] MatrixAssemblyPII: 0.592 [ms]
nonePCG:  Solving for p, Initial residual = 0.0103527, Final residual = 9.76426e-05, No Iterations 687
[INFO] SolveP: 106.723 [ms]
time step continuity errors : sum local = 1.3655e-08, global = -9.1397e-21, cumulative = -3.43336e-20
[INFO] ContinuityError: 0.205 [ms]
[INFO] CorrectBoundary: 0.028 [ms]
[INFO] PISOStep: 110.204 [ms]
[INFO] TimeStep: 234.206 [ms]
ExecutionTime = 3.34 s  ClockTime = 4 s

Time = 0.009

Courant Number mean: 0.071577 max: 0.477894
[INFO] MatrixAssemblyU: 1.65 [ms]
DILUPBiCGStab:  Solving for Ux, Initial residual = 0.00427123, Final residual = 2.13798e-05, No Iterations 5
DILUPBiCGStab:  Solving for Uy, Initial residual = 0.00917384, Final residual = 3.46382e-05, No Iterations 5
DILUPBiCGStab:  Solving for Uz, Initial residual = 0.019183, Final residual = 0.000101874, No Iterations 5
[INFO] MomentumPredictor: 11.341 [ms]
[INFO] MatrixAssemblyPI: 1.936 [ms]
[INFO] AdjustPhi: 0.23 [ms]
[INFO] ConstrainPressure: 0.002 [ms]
[INFO] MatrixAssemblyPII: 0.634 [ms]
nonePCG:  Solving for p, Initial residual = 0.0100943, Final residual = 9.85009e-05, No Iterations 295
[INFO] SolveP: 47.315 [ms]
time step continuity errors : sum local = 1.48552e-08, global = 4.33319e-21, cumulative = -3.00004e-20
[INFO] ContinuityError: 0.22 [ms]
[INFO] CorrectBoundary: 0.049 [ms]
[INFO] PISOStep: 51.11 [ms]
[INFO] MatrixAssemblyPI: 1.724 [ms]
[INFO] AdjustPhi: 0.297 [ms]
[INFO] ConstrainPressure: 0.001 [ms]
[INFO] MatrixAssemblyPII: 0.555 [ms]
nonePCG:  Solving for p, Initial residual = 0.0095128, Final residual = 9.86791e-05, No Iterations 289
[INFO] SolveP: 45.638 [ms]
time step continuity errors : sum local = 1.4224e-08, global = -1.56864e-21, cumulative = -3.1569e-20
[INFO] ContinuityError: 0.195 [ms]
[INFO] CorrectBoundary: 0.27 [ms]
[INFO] PISOStep: 49.385 [ms]
[INFO] TimeStep: 113.825 [ms]
ExecutionTime = 3.45 s  ClockTime = 4 s

Time = 0.0095

Courant Number mean: 0.0726655 max: 0.478309
[INFO] MatrixAssemblyU: 1.397 [ms]
DILUPBiCGStab:  Solving for Ux, Initial residual = 0.00396228, Final residual = 1.97704e-05, No Iterations 5
DILUPBiCGStab:  Solving for Uy, Initial residual = 0.00852761, Final residual = 3.20593e-05, No Iterations 5
DILUPBiCGStab:  Solving for Uz, Initial residual = 0.0178226, Final residual = 8.91249e-05, No Iterations 5
[INFO] MomentumPredictor: 10.79 [ms]
[INFO] MatrixAssemblyPI: 1.927 [ms]
[INFO] AdjustPhi: 0.295 [ms]
[INFO] ConstrainPressure: 0.001 [ms]
[INFO] MatrixAssemblyPII: 0.602 [ms]
nonePCG:  Solving for p, Initial residual = 0.00901186, Final residual = 9.87903e-05, No Iterations 301
[INFO] SolveP: 45.987 [ms]
time step continuity errors : sum local = 1.52494e-08, global = -1.23751e-20, cumulative = -4.39442e-20
[INFO] ContinuityError: 0.222 [ms]
[INFO] CorrectBoundary: 0.044 [ms]
[INFO] PISOStep: 49.836 [ms]
[INFO] MatrixAssemblyPI: 1.694 [ms]
[INFO] AdjustPhi: 0.222 [ms]
[INFO] ConstrainPressure: 0.001 [ms]
[INFO] MatrixAssemblyPII: 0.559 [ms]
nonePCG:  Solving for p, Initial residual = 0.00853664, Final residual = 9.9548e-05, No Iterations 290
[INFO] SolveP: 45.07 [ms]
time step continuity errors : sum local = 1.42558e-08, global = -1.22151e-21, cumulative = -4.51657e-20
[INFO] ContinuityError: 0.192 [ms]
[INFO] CorrectBoundary: 0.233 [ms]
[INFO] PISOStep: 48.705 [ms]
[INFO] TimeStep: 111.032 [ms]
ExecutionTime = 3.56 s  ClockTime = 4 s

Time = 0.01

Courant Number mean: 0.0736844 max: 0.478687
[INFO] MatrixAssemblyU: 1.328 [ms]
DILUPBiCGStab:  Solving for Ux, Initial residual = 0.00368557, Final residual = 1.84508e-05, No Iterations 5
DILUPBiCGStab:  Solving for Uy, Initial residual = 0.00796593, Final residual = 2.97943e-05, No Iterations 5
DILUPBiCGStab:  Solving for Uz, Initial residual = 0.0167258, Final residual = 8.87434e-05, No Iterations 5
[INFO] MomentumPredictor: 11.165 [ms]
[INFO] MatrixAssemblyPI: 1.988 [ms]
[INFO] AdjustPhi: 0.195 [ms]
[INFO] ConstrainPressure: 0.001 [ms]
[INFO] MatrixAssemblyPII: 0.644 [ms]
nonePCG:  Solving for p, Initial residual = 0.00835099, Final residual = 9.76982e-05, No Iterations 310
[INFO] SolveP: 47.743 [ms]
time step continuity errors : sum local = 1.55891e-08, global = -1.74117e-20, cumulative = -6.25774e-20
[INFO] ContinuityError: 0.206 [ms]
[INFO] CorrectBoundary: 0.058 [ms]
[INFO] PISOStep: 51.595 [ms]
[INFO] MatrixAssemblyPI: 1.755 [ms]
[INFO] AdjustPhi: 0.175 [ms]
[INFO] ConstrainPressure: 0.001 [ms]
[INFO] MatrixAssemblyPII: 0.57 [ms]
nonePCG:  Solving for p, Initial residual = 0.00793444, Final residual = 9.85154e-05, No Iterations 298
[INFO] SolveP: 46.482 [ms]
time step continuity errors : sum local = 1.44356e-08, global = -1.2616e-20, cumulative = -7.51934e-20
[INFO] ContinuityError: 0.188 [ms]
[INFO] CorrectBoundary: 0.061 [ms]
[INFO] PISOStep: 49.873 [ms]
[INFO] TimeStep: 114.284 [ms]
ExecutionTime = 3.67 s  ClockTime = 4 s

End

Finalising parallel run
