/*---------------------------------------------------------------------------*\
| =========                 |                                                 |
| \\      /  F ield         | OpenFOAM: The Open Source CFD Toolbox           |
|  \\    /   O peration     | Version:  2306                                  |
|   \\  /    A nd           | Website:  www.openfoam.com                      |
|    \\/     M anipulation  |                                                 |
\*---------------------------------------------------------------------------*/
Build  : a6e826bd55-20230630 OPENFOAM=2306 version=v2306
Arch   : "LSB;label=32;scalar=64"
Exec   : simpleFoam -parallel -case /home/greole/data/code/exasim_project/micro_benchmarks/WindsorBody/workspace/f4a892f0d0fd93fb3de8ae18faa5a524/case
Date   : Aug 02 2023
Time   : 13:03:34
Host   : nla-gpu2.ianm.kit.edu
PID    : 80081
I/O    : uncollated
Case   : /home/greole/data/code/exasim_project/micro_benchmarks/WindsorBody/workspace/f4a892f0d0fd93fb3de8ae18faa5a524/case
nProcs : 32
Hosts  :
(
    (nla-gpu2.ianm.kit.edu 32)
)
Pstream initialized with:
    floatTransfer      : false
    nProcsSimpleSum    : 0
    nonBlockingExchange: 0 (tuning: 0)
    exchange algorithm : -1
    commsType          : nonBlocking
    polling iterations : 0
trapFpe: Floating point exception trapping enabled (FOAM_SIGFPE).
fileModificationChecking : Monitoring run-time modified files using timeStampMaster (fileModificationSkew 5, maxFileModificationPolls 20)
allowSystemOperations : Allowing user-supplied system call operations

// * * * * * * * * * * * * * * * * * * * * * * * * * * * * * * * * * * * * * //
Create time

--> FOAM Warning : 
    From void* Foam::dlLibraryTable::openLibrary(const Foam::fileName&, bool)
    in file db/dynamicLibrary/dlLibraryTable/dlLibraryTable.C at line 188
    Could not load "libpetscFoam.so"
libpetscFoam.so: cannot open shared object file: No such file or directory
Create mesh for time = 0


SIMPLE: convergence criteria
    field p	 tolerance 1e-08
    field U	 tolerance 1e-08
    field k	 tolerance 1e-08
    field omega	 tolerance 1e-08
    field nuTilda	 tolerance 1e-08

Reading field p

Reading field U

Reading/calculating face flux field phi

Selecting incompressible transport model Newtonian
Selecting turbulence model type RAS
Selecting RAS turbulence model SpalartAllmaras
Selecting patchDistMethod meshWave
ft2 term: inactive
RAS
{
    RASModel        SpalartAllmaras;
    turbulence      on;
    printCoeffs     on;
    sigmaNut        0.66666;
    kappa           0.41;
    Cb1             0.1355;
    Cb2             0.622;
    Cw2             0.3;
    Cw3             2;
    Cv1             7.1;
    Cs              0.3;
    ck              0.07000000000000001;
    ft2             false;
    Ct3             1.2;
    Ct4             0.5;
}

No MRF models present

Creating finite volume options from "system/fvOptions"

Selecting finite volume options type velocityDampingConstraint
    Source: velocityDamping
    - selecting all cells
    - selected 6307136 cell(s) with volume 27.82583051608611

Starting time loop

--> FOAM Warning : 
    From bool Foam::functionObjectList::read()
    in file db/functionObjects/functionObjectList/functionObjectList.C at line 1035
    Reading "system/controlDict" at line 2 to 41
    Entry 'lref' is not a dictionary
--> FOAM Warning : 
    From bool Foam::functionObjectList::read()
    in file db/functionObjects/functionObjectList/functionObjectList.C at line 1035
    Reading "system/controlDict" at line 2 to 41
    Entry 'Aref' is not a dictionary
--> FOAM Warning : 
    From bool Foam::functionObjectList::read()
    in file db/functionObjects/functionObjectList/functionObjectList.C at line 1035
    Reading "system/controlDict" at line 2 to 41
    Entry 'yawAngle' is not a dictionary
--> FOAM Warning : 
    From bool Foam::functionObjectList::read()
    in file db/functionObjects/functionObjectList/functionObjectList.C at line 1035
    Reading "system/controlDict" at line 2 to 41
    Entry 'lDomain' is not a dictionary
--> FOAM Warning : 
    From bool Foam::functionObjectList::read()
    in file db/functionObjects/functionObjectList/functionObjectList.C at line 1035
    Reading "system/controlDict" at line 2 to 41
    Entry 'bDomain' is not a dictionary
--> FOAM Warning : 
    From bool Foam::functionObjectList::read()
    in file db/functionObjects/functionObjectList/functionObjectList.C at line 1035
    Reading "system/controlDict" at line 2 to 41
    Entry 'hDomain' is not a dictionary
--> FOAM Warning : 
    From bool Foam::functionObjectList::read()
    in file db/functionObjects/functionObjectList/functionObjectList.C at line 1035
    Reading "system/controlDict" at line 2 to 41
    Entry 'xCenter' is not a dictionary
--> FOAM Warning : 
    From bool Foam::functionObjectList::read()
    in file db/functionObjects/functionObjectList/functionObjectList.C at line 1035
    Reading "system/controlDict" at line 2 to 41
    Entry 'yCenter' is not a dictionary
--> FOAM Warning : 
    From bool Foam::functionObjectList::read()
    in file db/functionObjects/functionObjectList/functionObjectList.C at line 1035
    Reading "system/controlDict" at line 2 to 41
    Entry 'zCenter' is not a dictionary
--> FOAM Warning : 
    From bool Foam::functionObjectList::read()
    in file db/functionObjects/functionObjectList/functionObjectList.C at line 1035
    Reading "system/controlDict" at line 2 to 41
    Entry 'inletPatch' is not a dictionary
--> FOAM Warning : 
    From bool Foam::functionObjectList::read()
    in file db/functionObjects/functionObjectList/functionObjectList.C at line 1035
    Reading "system/controlDict" at line 2 to 41
    Entry 'outletPatch' is not a dictionary
--> FOAM Warning : 
    From bool Foam::functionObjectList::read()
    in file db/functionObjects/functionObjectList/functionObjectList.C at line 1035
    Reading "system/controlDict" at line 2 to 41
    Entry 'wallPatches' is not a dictionary
--> FOAM Warning : 
    From bool Foam::functionObjectList::read()
    in file db/functionObjects/functionObjectList/functionObjectList.C at line 1035
    Reading "system/controlDict" at line 2 to 41
    Entry 'forcesWallPatches' is not a dictionary
--> FOAM Warning : 
    From bool Foam::functionObjectList::read()
    in file db/functionObjects/functionObjectList/functionObjectList.C at line 1035
    Reading "system/controlDict" at line 2 to 41
    Entry 'symmPatches' is not a dictionary
--> FOAM Warning : 
    From bool Foam::functionObjectList::read()
    in file db/functionObjects/functionObjectList/functionObjectList.C at line 1035
    Reading "system/controlDict" at line 2 to 41
    Entry 'Uinf' is not a dictionary
--> FOAM Warning : 
    From bool Foam::functionObjectList::read()
    in file db/functionObjects/functionObjectList/functionObjectList.C at line 1035
    Reading "system/controlDict" at line 2 to 41
    Entry 'UinfMag' is not a dictionary
--> FOAM Warning : 
    From bool Foam::functionObjectList::read()
    in file db/functionObjects/functionObjectList/functionObjectList.C at line 1035
    Reading "system/controlDict" at line 2 to 41
    Entry 'nu' is not a dictionary
--> FOAM Warning : 
    From bool Foam::functionObjectList::read()
    in file db/functionObjects/functionObjectList/functionObjectList.C at line 1035
    Reading "system/controlDict" at line 2 to 41
    Entry 'pref' is not a dictionary
--> FOAM Warning : 
    From bool Foam::functionObjectList::read()
    in file db/functionObjects/functionObjectList/functionObjectList.C at line 1035
    Reading "system/controlDict" at line 2 to 41
    Entry 'viscRatio' is not a dictionary
--> FOAM Warning : 
    From bool Foam::functionObjectList::read()
    in file db/functionObjects/functionObjectList/functionObjectList.C at line 1035
    Reading "system/controlDict" at line 2 to 41
    Entry 'Tu' is not a dictionary
--> FOAM Warning : 
    From bool Foam::functionObjectList::read()
    in file db/functionObjects/functionObjectList/functionObjectList.C at line 1035
    Reading "system/controlDict" at line 2 to 41
    Entry 'LESturbModel' is not a dictionary
--> FOAM Warning : 
    From bool Foam::functionObjectList::read()
    in file db/functionObjects/functionObjectList/functionObjectList.C at line 1035
    Reading "system/controlDict" at line 2 to 41
    Entry 'RASturbModel' is not a dictionary
--> FOAM Warning : 
    From bool Foam::functionObjectList::read()
    in file db/functionObjects/functionObjectList/functionObjectList.C at line 1035
    Reading "system/controlDict" at line 2 to 41
    Entry 'deltaTurb' is not a dictionary
--> FOAM Warning : 
    From bool Foam::functionObjectList::read()
    in file db/functionObjects/functionObjectList/functionObjectList.C at line 1035
    Reading "system/controlDict" at line 2 to 41
    Entry 'dt' is not a dictionary
--> FOAM Warning : 
    From bool Foam::functionObjectList::read()
    in file db/functionObjects/functionObjectList/functionObjectList.C at line 1035
    Reading "system/controlDict" at line 2 to 41
    Entry 'tAvg' is not a dictionary
--> FOAM Warning : 
    From bool Foam::functionObjectList::read()
    in file db/functionObjects/functionObjectList/functionObjectList.C at line 1035
    Reading "system/controlDict" at line 2 to 41
    Entry 'tEnd' is not a dictionary
--> FOAM Warning : 
    From bool Foam::functionObjectList::read()
    in file db/functionObjects/functionObjectList/functionObjectList.C at line 1035
    Reading "system/controlDict" at line 2 to 41
    Entry 'writeInterval_' is not a dictionary
--> FOAM Warning : 
    From bool Foam::functionObjectList::read()
    in file db/functionObjects/functionObjectList/functionObjectList.C at line 1035
    Reading "system/controlDict" at line 2 to 41
    Entry 'nCores' is not a dictionary
--> FOAM Warning : 
    From bool Foam::functionObjectList::read()
    in file db/functionObjects/functionObjectList/functionObjectList.C at line 1035
    Reading "system/controlDict" at line 2 to 41
    Entry 'interpScheme' is not a dictionary
--> FOAM Warning : 
    From bool Foam::functionObjectList::read()
    in file db/functionObjects/functionObjectList/functionObjectList.C at line 1035
    Reading "system/controlDict" at line 2 to 41
    Entry 'probeField' is not a dictionary
wallShearStress wallShearStress:
    processing wall patches: 
        Windsor_Body
        CFDWT_Floor
        Windsor_Pins
        Windsor_Base

pressure calc_cp:
    Operating mode: staticCoeff
    Not including hydrostatic effects

forceCoeffs forceCoeffsAll:
    rho: rhoInf
    Freestream density (rhoInf) set to 1
    Not including porosity effects
    magUInf: 40
    lRef   : 0.6375
    Aref   : 0.1124
    rhoInf : 1
    Selecting all coefficients
    - Drag force: Cd
    - Drag force front: Cd(f)
    - Drag force rear: Cd(r)
    - Lift force: Cl
    - Lift force front: Cl(f)
    - Lift force rear: Cl(r)
    - Pitch moment: CmPitch
    - Roll moment: CmRoll
    - Yaw moment: CmYaw
    - Side force: Cs
    - Side force front: Cs(f)
    - Side force rear: Cs(r)


forceCoeffs dragCoeffBase:
    rho: rhoInf
    Freestream density (rhoInf) set to 1
    Not including porosity effects
    magUInf: 40
    lRef   : 0.6375
    Aref   : 0.1124
    rhoInf : 1
    Selecting coefficients:
    - Drag force: Cd


Time = 1

velocityDampingConstraint velocityDamping damped 0 (0%) of cells, with max limit 300
[INFO] MatrixAssemblyU: 483.345 [ms]
smoothSolver:  Solving for Ux, Initial residual = 0.9999999999990106, Final residual = 0.08740394529067033, No Iterations 15
smoothSolver:  Solving for Uy, Initial residual = 1, Final residual = 0.08989488380680079, No Iterations 31
smoothSolver:  Solving for Uz, Initial residual = 1, Final residual = 0.03329925895369379, No Iterations 2
[INFO] MomentumPredictor: 468.506 [ms]
[INFO] MatrixAssemblyPI: 77.68600000000001 [ms]
[INFO] MatrixAssemblyPII: 36.424 [ms]
GAMG:  Solving for p, Initial residual = 1, Final residual = 0.009065659636840027, No Iterations 32
[INFO] SolveP: 1392.864 [ms]
time step continuity errors : sum local = 0.003326224816227708, global = 2.657591528301675e-05, cumulative = 2.657591528301675e-05
[INFO] postSolveP: 19.367 [ms]
smoothSolver:  Solving for nuTilda, Initial residual = 0.9999999998000944, Final residual = 0.06435186423876273, No Iterations 3
[INFO] TimeStep: 2753.332 [ms]
ExecutionTime = 8.369999999999999 s  ClockTime = 9 s

--> FOAM Warning : 
    From virtual bool Foam::functionObjects::fieldSelection::checkSelection()
    in file functionObjects/fieldSelections/fieldSelection/fieldSelection.C at line 166
    Field k not found
--> FOAM Warning : 
    From virtual bool Foam::functionObjects::fieldSelection::checkSelection()
    in file functionObjects/fieldSelections/fieldSelection/fieldSelection.C at line 166
    Field gammaInt not found
--> FOAM Warning : 
    From virtual bool Foam::functionObjects::fieldSelection::checkSelection()
    in file functionObjects/fieldSelections/fieldSelection/fieldSelection.C at line 166
    Field omega not found
--> FOAM Warning : 
    From virtual bool Foam::functionObjects::fieldSelection::checkSelection()
    in file functionObjects/fieldSelections/fieldSelection/fieldSelection.C at line 166
    Field ReThetat not found
--> FOAM Warning : 
    From virtual bool Foam::functionObjects::fieldSelection::checkSelection()
    in file functionObjects/fieldSelections/fieldSelection/fieldSelection.C at line 166
    Field epsilon not found
--> FOAM Warning : 
    From virtual bool Foam::functionObjects::solverFieldSelection::updateSelection()
    in file functionObjects/fieldSelections/solverFieldSelection/solverFieldSelection.C at line 85
    Valid solver fields are: 3(U nuTilda p)Time = 2

velocityDampingConstraint velocityDamping damped 0 (0%) of cells, with max limit 300
[INFO] MatrixAssemblyU: 441.471 [ms]
smoothSolver:  Solving for Ux, Initial residual = 0.2130472869375944, Final residual = 0.01845622779296247, No Iterations 13
smoothSolver:  Solving for Uy, Initial residual = 0.3553508466455244, Final residual = 0.03328301050182753, No Iterations 13
smoothSolver:  Solving for Uz, Initial residual = 0.3289216181949279, Final residual = 0.02816611571227286, No Iterations 13
[INFO] MomentumPredictor: 386.666 [ms]
[INFO] MatrixAssemblyPI: 77.476 [ms]
[INFO] MatrixAssemblyPII: 36.781 [ms]
GAMG:  Solving for p, Initial residual = 0.2098609730866146, Final residual = 0.001406675701954951, No Iterations 15
[INFO] SolveP: 598.155 [ms]
time step continuity errors : sum local = 0.02879681580546184, global = -1.381420698832848e-05, cumulative = 1.276170829468828e-05
[INFO] postSolveP: 18.981 [ms]
smoothSolver:  Solving for nuTilda, Initial residual = 0.4058800209199879, Final residual = 0.0253766586923146, No Iterations 1
[INFO] TimeStep: 1824.057 [ms]
ExecutionTime = 10.54 s  ClockTime = 11 s

Time = 3

velocityDampingConstraint velocityDamping damped 830 (0.01%) of cells, with max limit 300
[INFO] MatrixAssemblyU: 452.51 [ms]
smoothSolver:  Solving for Ux, Initial residual = 0.1246475273980532, Final residual = 0.01183494328079209, No Iterations 9
smoothSolver:  Solving for Uy, Initial residual = 0.205064132348258, Final residual = 0.01991895850875856, No Iterations 10
smoothSolver:  Solving for Uz, Initial residual = 0.217185150214049, Final residual = 0.0214657335927691, No Iterations 9
[INFO] MomentumPredictor: 297.407 [ms]
[INFO] MatrixAssemblyPI: 78.532 [ms]
[INFO] MatrixAssemblyPII: 37.052 [ms]
GAMG:  Solving for p, Initial residual = 0.1141039426340783, Final residual = 0.0006857654987822534, No Iterations 17
[INFO] SolveP: 677.194 [ms]
time step continuity errors : sum local = 0.00794827609228488, global = -0.0001998845841775815, cumulative = -0.0001871228758828932
[INFO] postSolveP: 18.958 [ms]
smoothSolver:  Solving for nuTilda, Initial residual = 0.208779741198618, Final residual = 0.01316639900960358, No Iterations 2
[INFO] TimeStep: 1832.343 [ms]
ExecutionTime = 12.71 s  ClockTime = 13 s

Time = 4

velocityDampingConstraint velocityDamping damped 0 (0%) of cells, with max limit 300
[INFO] MatrixAssemblyU: 456.521 [ms]
smoothSolver:  Solving for Ux, Initial residual = 0.05426199922911178, Final residual = 0.004970243525014201, No Iterations 11
smoothSolver:  Solving for Uy, Initial residual = 0.1221333662493244, Final residual = 0.01089150749783608, No Iterations 11
smoothSolver:  Solving for Uz, Initial residual = 0.1316829030916116, Final residual = 0.01281693925521987, No Iterations 10
[INFO] MomentumPredictor: 331.217 [ms]
[INFO] MatrixAssemblyPI: 78.05200000000001 [ms]
[INFO] MatrixAssemblyPII: 38.539 [ms]
GAMG:  Solving for p, Initial residual = 0.1379856483332683, Final residual = 0.001261406143041431, No Iterations 8
[INFO] SolveP: 329.397 [ms]
time step continuity errors : sum local = 0.01231218340215027, global = 7.149694403984752e-05, cumulative = -0.0001156259318430457
[INFO] postSolveP: 20.411 [ms]
smoothSolver:  Solving for nuTilda, Initial residual = 0.1251001115099052, Final residual = 0.0105016796718797, No Iterations 2
[INFO] TimeStep: 1523.238 [ms]
ExecutionTime = 14.58 s  ClockTime = 15 s

Time = 5

velocityDampingConstraint velocityDamping damped 116 (0%) of cells, with max limit 300
[INFO] MatrixAssemblyU: 455.06 [ms]
smoothSolver:  Solving for Ux, Initial residual = 0.04401803629466888, Final residual = 0.004211723190146744, No Iterations 10
smoothSolver:  Solving for Uy, Initial residual = 0.09743964968055338, Final residual = 0.009159722645659616, No Iterations 11
smoothSolver:  Solving for Uz, Initial residual = 0.1130594955660428, Final residual = 0.01115656428988466, No Iterations 10
[INFO] MomentumPredictor: 320.974 [ms]
[INFO] MatrixAssemblyPI: 77.72199999999999 [ms]
[INFO] MatrixAssemblyPII: 36.739 [ms]
GAMG:  Solving for p, Initial residual = 0.1079290835992951, Final residual = 0.0009807038237478688, No Iterations 11
[INFO] SolveP: 441.903 [ms]
time step continuity errors : sum local = 0.006987496931232992, global = 0.000428219607174134, cumulative = 0.0003125936753310884
[INFO] postSolveP: 18.58 [ms]
smoothSolver:  Solving for nuTilda, Initial residual = 0.07090882217311992, Final residual = 0.004313717195118172, No Iterations 3
[INFO] TimeStep: 1630.383 [ms]
ExecutionTime = 16.55 s  ClockTime = 17 s

Time = 6

velocityDampingConstraint velocityDamping damped 0 (0%) of cells, with max limit 300
[INFO] MatrixAssemblyU: 452.698 [ms]
smoothSolver:  Solving for Ux, Initial residual = 0.02992616977952543, Final residual = 0.002666377712257865, No Iterations 12
smoothSolver:  Solving for Uy, Initial residual = 0.07526462427516861, Final residual = 0.006960286766723521, No Iterations 12
smoothSolver:  Solving for Uz, Initial residual = 0.08148531969922362, Final residual = 0.007000061124067862, No Iterations 12
[INFO] MomentumPredictor: 363.63 [ms]
[INFO] MatrixAssemblyPI: 77.73699999999999 [ms]
[INFO] MatrixAssemblyPII: 36.902 [ms]
GAMG:  Solving for p, Initial residual = 0.09427836168821621, Final residual = 0.000690714993199306, No Iterations 11
[INFO] SolveP: 442.469 [ms]
time step continuity errors : sum local = 0.005197002388844791, global = 0.0001818087147544712, cumulative = 0.0004944023900855596
[INFO] postSolveP: 19.361 [ms]
smoothSolver:  Solving for nuTilda, Initial residual = 0.06443072938622721, Final residual = 0.006430953665895254, No Iterations 2
[INFO] TimeStep: 1661.929 [ms]
ExecutionTime = 18.56 s  ClockTime = 19 s

Time = 7

velocityDampingConstraint velocityDamping damped 13 (0%) of cells, with max limit 300
[INFO] MatrixAssemblyU: 450.19 [ms]
smoothSolver:  Solving for Ux, Initial residual = 0.0271464892355161, Final residual = 0.002425922814200379, No Iterations 12
smoothSolver:  Solving for Uy, Initial residual = 0.06834351116732504, Final residual = 0.00648865908221398, No Iterations 12
smoothSolver:  Solving for Uz, Initial residual = 0.07174554209917799, Final residual = 0.006293662860206286, No Iterations 12
[INFO] MomentumPredictor: 362.872 [ms]
[INFO] MatrixAssemblyPI: 79.226 [ms]
[INFO] MatrixAssemblyPII: 37.409 [ms]
GAMG:  Solving for p, Initial residual = 0.08022867643051175, Final residual = 0.0007178364067589799, No Iterations 9
[INFO] SolveP: 365.235 [ms]
time step continuity errors : sum local = 0.005433879629747319, global = -0.0001070836199795651, cumulative = 0.0003873187701059944
[INFO] postSolveP: 18.844 [ms]
smoothSolver:  Solving for nuTilda, Initial residual = 0.04948655519554365, Final residual = 0.003237580615964932, No Iterations 3
[INFO] TimeStep: 1591.99 [ms]
ExecutionTime = 20.49 s  ClockTime = 21 s

Time = 8

velocityDampingConstraint velocityDamping damped 0 (0%) of cells, with max limit 300
[INFO] MatrixAssemblyU: 449.754 [ms]
smoothSolver:  Solving for Ux, Initial residual = 0.02313343949224802, Final residual = 0.002147808849852866, No Iterations 12
smoothSolver:  Solving for Uy, Initial residual = 0.06087898101126277, Final residual = 0.005979975631754197, No Iterations 12
smoothSolver:  Solving for Uz, Initial residual = 0.06230136434727733, Final residual = 0.005655213739116852, No Iterations 12
[INFO] MomentumPredictor: 363.09 [ms]
[INFO] MatrixAssemblyPI: 77.931 [ms]
[INFO] MatrixAssemblyPII: 37.161 [ms]
GAMG:  Solving for p, Initial residual = 0.07260444854720394, Final residual = 0.0006864581860265384, No Iterations 9
[INFO] SolveP: 365.552 [ms]
time step continuity errors : sum local = 0.005292957536382345, global = -0.0002339816612845262, cumulative = 0.0001533371088214682
[INFO] postSolveP: 19.007 [ms]
smoothSolver:  Solving for nuTilda, Initial residual = 0.06595255027469821, Final residual = 0.005892404841078638, No Iterations 2
[INFO] TimeStep: 1582.509 [ms]
ExecutionTime = 22.42 s  ClockTime = 23 s

Time = 9

velocityDampingConstraint velocityDamping damped 0 (0%) of cells, with max limit 300
[INFO] MatrixAssemblyU: 448.167 [ms]
smoothSolver:  Solving for Ux, Initial residual = 0.02034216060929469, Final residual = 0.001906632087875199, No Iterations 12
smoothSolver:  Solving for Uy, Initial residual = 0.05482542539513906, Final residual = 0.005476248122692759, No Iterations 12
smoothSolver:  Solving for Uz, Initial residual = 0.05533130056060002, Final residual = 0.00515158931528883, No Iterations 12
[INFO] MomentumPredictor: 362.911 [ms]
[INFO] MatrixAssemblyPI: 78.533 [ms]
[INFO] MatrixAssemblyPII: 36.951 [ms]
GAMG:  Solving for p, Initial residual = 0.06692652228782896, Final residual = 0.0005506595102458078, No Iterations 9
[INFO] SolveP: 365.846 [ms]
time step continuity errors : sum local = 0.004257551196528708, global = -0.0001752905387642172, cumulative = -2.195342994274898e-05
[INFO] postSolveP: 19.146 [ms]
smoothSolver:  Solving for nuTilda, Initial residual = 0.04447158010899835, Final residual = 0.003228516718728746, No Iterations 3
[INFO] TimeStep: 1588.521 [ms]
ExecutionTime = 24.35 s  ClockTime = 25 s

Time = 10

velocityDampingConstraint velocityDamping damped 0 (0%) of cells, with max limit 300
[INFO] MatrixAssemblyU: 446.077 [ms]
smoothSolver:  Solving for Ux, Initial residual = 0.01833109542393515, Final residual = 0.001731441566305241, No Iterations 12
smoothSolver:  Solving for Uy, Initial residual = 0.05059469792509635, Final residual = 0.005040216339073163, No Iterations 12
smoothSolver:  Solving for Uz, Initial residual = 0.05058606575021934, Final residual = 0.004776826587036856, No Iterations 12
[INFO] MomentumPredictor: 363.828 [ms]
[INFO] MatrixAssemblyPI: 79.825 [ms]
[INFO] MatrixAssemblyPII: 37.115 [ms]
GAMG:  Solving for p, Initial residual = 0.06140523402387781, Final residual = 0.0004755557304120758, No Iterations 9
[INFO] SolveP: 367.185 [ms]
time step continuity errors : sum local = 0.003628063770631707, global = -4.203032331529319e-05, cumulative = -6.398375325804216e-05
[INFO] postSolveP: 18.976 [ms]
smoothSolver:  Solving for nuTilda, Initial residual = 0.07003615034350233, Final residual = 0.005534141778454164, No Iterations 2
[INFO] TimeStep: 1583.657 [ms]
ExecutionTime = 26.28 s  ClockTime = 27 s

Time = 11

velocityDampingConstraint velocityDamping damped 0 (0%) of cells, with max limit 300
[INFO] MatrixAssemblyU: 448.679 [ms]
smoothSolver:  Solving for Ux, Initial residual = 0.01668255266171443, Final residual = 0.001607910659822318, No Iterations 12
smoothSolver:  Solving for Uy, Initial residual = 0.04768393049837861, Final residual = 0.004724586325090751, No Iterations 12
smoothSolver:  Solving for Uz, Initial residual = 0.04731632123158303, Final residual = 0.004507540155807164, No Iterations 12
[INFO] MomentumPredictor: 362.344 [ms]
[INFO] MatrixAssemblyPI: 77.758 [ms]
[INFO] MatrixAssemblyPII: 36.993 [ms]
GAMG:  Solving for p, Initial residual = 0.05718272555064522, Final residual = 0.0005614459146136263, No Iterations 8
[INFO] SolveP: 327.996 [ms]
time step continuity errors : sum local = 0.004286625997237482, global = 7.356793884631128e-05, cumulative = 9.584185588269113e-06
[INFO] postSolveP: 19.428 [ms]
smoothSolver:  Solving for nuTilda, Initial residual = 0.03935170678526506, Final residual = 0.003055180377489899, No Iterations 3
[INFO] TimeStep: 1551.031 [ms]
ExecutionTime = 28.17 s  ClockTime = 29 s

Time = 12

velocityDampingConstraint velocityDamping damped 0 (0%) of cells, with max limit 300
[INFO] MatrixAssemblyU: 446.597 [ms]
smoothSolver:  Solving for Ux, Initial residual = 0.01554975250264433, Final residual = 0.001520788657523802, No Iterations 12
smoothSolver:  Solving for Uy, Initial residual = 0.04559357739948673, Final residual = 0.004484985093961079, No Iterations 12
smoothSolver:  Solving for Uz, Initial residual = 0.04487372892717731, Final residual = 0.004294248739536157, No Iterations 12
[INFO] MomentumPredictor: 362.918 [ms]
[INFO] MatrixAssemblyPI: 77.46299999999999 [ms]
[INFO] MatrixAssemblyPII: 36.984 [ms]
GAMG:  Solving for p, Initial residual = 0.05335183471963215, Final residual = 0.0004680782247681942, No Iterations 9
[INFO] SolveP: 365.329 [ms]
time step continuity errors : sum local = 0.003593768300769045, global = 0.0001170882588683116, cumulative = 0.0001266724444565807
[INFO] postSolveP: 20.403 [ms]
smoothSolver:  Solving for nuTilda, Initial residual = 0.0658818655894384, Final residual = 0.005139352622863019, No Iterations 2
[INFO] TimeStep: 1578.718 [ms]
ExecutionTime = 30.09 s  ClockTime = 30 s

Time = 13

velocityDampingConstraint velocityDamping damped 0 (0%) of cells, with max limit 300
[INFO] MatrixAssemblyU: 446.851 [ms]
smoothSolver:  Solving for Ux, Initial residual = 0.01452950271762955, Final residual = 0.001447166890659819, No Iterations 12
smoothSolver:  Solving for Uy, Initial residual = 0.04389820109449403, Final residual = 0.004296845493425668, No Iterations 12
smoothSolver:  Solving for Uz, Initial residual = 0.04305441526677053, Final residual = 0.004148363883561175, No Iterations 12
[INFO] MomentumPredictor: 363.328 [ms]
[INFO] MatrixAssemblyPI: 78.175 [ms]
[INFO] MatrixAssemblyPII: 37.063 [ms]
GAMG:  Solving for p, Initial residual = 0.04991032820601607, Final residual = 0.0004108979423153161, No Iterations 9
[INFO] SolveP: 365.901 [ms]
time step continuity errors : sum local = 0.003178569325219677, global = 9.581966842823075e-05, cumulative = 0.0002224921128848115
[INFO] postSolveP: 18.837 [ms]
smoothSolver:  Solving for nuTilda, Initial residual = 0.0347634204022773, Final residual = 0.002854319554474065, No Iterations 3
[INFO] TimeStep: 1587.116 [ms]
ExecutionTime = 32.01 s  ClockTime = 32 s

Time = 14

velocityDampingConstraint velocityDamping damped 0 (0%) of cells, with max limit 300
[INFO] MatrixAssemblyU: 445.743 [ms]
smoothSolver:  Solving for Ux, Initial residual = 0.01369573950046309, Final residual = 0.001175661107448035, No Iterations 13
smoothSolver:  Solving for Uy, Initial residual = 0.04192585760079077, Final residual = 0.004121445654308243, No Iterations 12
smoothSolver:  Solving for Uz, Initial residual = 0.04201622235318087, Final residual = 0.004063145561635538, No Iterations 12
[INFO] MomentumPredictor: 371.822 [ms]
[INFO] MatrixAssemblyPI: 78.752 [ms]
[INFO] MatrixAssemblyPII: 36.804 [ms]
GAMG:  Solving for p, Initial residual = 0.04730822725597442, Final residual = 0.0004022076829221008, No Iterations 8
[INFO] SolveP: 326.178 [ms]
time step continuity errors : sum local = 0.003134104883593743, global = 4.601479135615718e-05, cumulative = 0.0002685069042409687
[INFO] postSolveP: 19.273 [ms]
smoothSolver:  Solving for nuTilda, Initial residual = 0.05853711573989525, Final residual = 0.004827770410637621, No Iterations 2
[INFO] TimeStep: 1549.265 [ms]
ExecutionTime = 33.9 s  ClockTime = 34 s

Time = 15

velocityDampingConstraint velocityDamping damped 0 (0%) of cells, with max limit 300
[INFO] MatrixAssemblyU: 445.64 [ms]
smoothSolver:  Solving for Ux, Initial residual = 0.01282316291684935, Final residual = 0.001112395231794653, No Iterations 13
smoothSolver:  Solving for Uy, Initial residual = 0.04038049539757485, Final residual = 0.004001468629688911, No Iterations 12
smoothSolver:  Solving for Uz, Initial residual = 0.04163403764076518, Final residual = 0.004054262297349405, No Iterations 12
[INFO] MomentumPredictor: 371.856 [ms]
[INFO] MatrixAssemblyPI: 78.09699999999999 [ms]
[INFO] MatrixAssemblyPII: 36.872 [ms]
GAMG:  Solving for p, Initial residual = 0.04564188860639855, Final residual = 0.0003930800399737359, No Iterations 8
[INFO] SolveP: 326.591 [ms]
time step continuity errors : sum local = 0.003082419991999554, global = -4.592447642151425e-06, cumulative = 0.0002639144565988173
[INFO] postSolveP: 19.308 [ms]
smoothSolver:  Solving for nuTilda, Initial residual = 0.03116778252825103, Final residual = 0.002683278838658728, No Iterations 3
[INFO] TimeStep: 1555.747 [ms]
ExecutionTime = 35.8 s  ClockTime = 36 s

Time = 16

velocityDampingConstraint velocityDamping damped 0 (0%) of cells, with max limit 300
[INFO] MatrixAssemblyU: 446.437 [ms]
smoothSolver:  Solving for Ux, Initial residual = 0.01218614555111808, Final residual = 0.001056610146867018, No Iterations 13
smoothSolver:  Solving for Uy, Initial residual = 0.03942136233905234, Final residual = 0.003927678730224723, No Iterations 12
smoothSolver:  Solving for Uz, Initial residual = 0.04157455285343463, Final residual = 0.004060206362797701, No Iterations 12
[INFO] MomentumPredictor: 372.204 [ms]
[INFO] MatrixAssemblyPI: 79.104 [ms]
[INFO] MatrixAssemblyPII: 37.076 [ms]
GAMG:  Solving for p, Initial residual = 0.04431462509673701, Final residual = 0.0003722235686060347, No Iterations 8
[INFO] SolveP: 327.507 [ms]
time step continuity errors : sum local = 0.002930047558588397, global = -3.58030178230092e-05, cumulative = 0.0002281114387758081
[INFO] postSolveP: 19.24 [ms]
smoothSolver:  Solving for nuTilda, Initial residual = 0.05195243966303786, Final residual = 0.004573023794244358, No Iterations 2
[INFO] TimeStep: 1549.176 [ms]
ExecutionTime = 37.69 s  ClockTime = 38 s

Time = 17

velocityDampingConstraint velocityDamping damped 0 (0%) of cells, with max limit 300
[INFO] MatrixAssemblyU: 447.337 [ms]
smoothSolver:  Solving for Ux, Initial residual = 0.01156174009306082, Final residual = 0.001008040211297275, No Iterations 13
smoothSolver:  Solving for Uy, Initial residual = 0.03884782714201035, Final residual = 0.003312699137193363, No Iterations 13
smoothSolver:  Solving for Uz, Initial residual = 0.04152675489696833, Final residual = 0.004064346205674324, No Iterations 12
[INFO] MomentumPredictor: 380.798 [ms]
[INFO] MatrixAssemblyPI: 78.71899999999999 [ms]
[INFO] MatrixAssemblyPII: 36.951 [ms]
GAMG:  Solving for p, Initial residual = 0.043865285126297, Final residual = 0.0003529781089004859, No Iterations 8
[INFO] SolveP: 326.706 [ms]
time step continuity errors : sum local = 0.002795186672328824, global = -4.18073279338573e-05, cumulative = 0.0001863041108419508
[INFO] postSolveP: 19.551 [ms]
smoothSolver:  Solving for nuTilda, Initial residual = 0.02852641698484465, Final residual = 0.002531910895167413, No Iterations 3
[INFO] TimeStep: 1566.626 [ms]
ExecutionTime = 39.59 s  ClockTime = 40 s

Time = 18

velocityDampingConstraint velocityDamping damped 0 (0%) of cells, with max limit 300
[INFO] MatrixAssemblyU: 446.306 [ms]
smoothSolver:  Solving for Ux, Initial residual = 0.01122374986840711, Final residual = 0.000968812591205545, No Iterations 13
smoothSolver:  Solving for Uy, Initial residual = 0.03858245479708503, Final residual = 0.003299707827166143, No Iterations 13
smoothSolver:  Solving for Uz, Initial residual = 0.04177997658182581, Final residual = 0.004075305962424914, No Iterations 12
[INFO] MomentumPredictor: 380.368 [ms]
[INFO] MatrixAssemblyPI: 78.288 [ms]
[INFO] MatrixAssemblyPII: 37.019 [ms]
GAMG:  Solving for p, Initial residual = 0.04375649176999554, Final residual = 0.000348854511894812, No Iterations 8
[INFO] SolveP: 327.28 [ms]
time step continuity errors : sum local = 0.002778024988205676, global = -2.345758067171003e-05, cumulative = 0.0001628465301702407
[INFO] postSolveP: 19.142 [ms]
smoothSolver:  Solving for nuTilda, Initial residual = 0.0465869451750431, Final residual = 0.004318505422794446, No Iterations 2
[INFO] TimeStep: 1556.431 [ms]
ExecutionTime = 41.5 s  ClockTime = 42 s

Time = 19

velocityDampingConstraint velocityDamping damped 0 (0%) of cells, with max limit 300
[INFO] MatrixAssemblyU: 446.624 [ms]
smoothSolver:  Solving for Ux, Initial residual = 0.01086781310271973, Final residual = 0.0009379117883792278, No Iterations 13
smoothSolver:  Solving for Uy, Initial residual = 0.03890340620708136, Final residual = 0.003327556773645299, No Iterations 13
smoothSolver:  Solving for Uz, Initial residual = 0.04249744109445969, Final residual = 0.00411791516551883, No Iterations 12
[INFO] MomentumPredictor: 379.769 [ms]
[INFO] MatrixAssemblyPI: 78.078 [ms]
[INFO] MatrixAssemblyPII: 36.769 [ms]
GAMG:  Solving for p, Initial residual = 0.0439949723345587, Final residual = 0.0003616444395018928, No Iterations 8
[INFO] SolveP: 327.778 [ms]
time step continuity errors : sum local = 0.002897441945526115, global = 3.116327681805894e-06, cumulative = 0.0001659628578520466
[INFO] postSolveP: 19.468 [ms]
smoothSolver:  Solving for nuTilda, Initial residual = 0.026530531486578, Final residual = 0.002380781238342419, No Iterations 3
[INFO] TimeStep: 1566.016 [ms]
ExecutionTime = 43.4 s  ClockTime = 44 s

Time = 20

velocityDampingConstraint velocityDamping damped 0 (0%) of cells, with max limit 300
[INFO] MatrixAssemblyU: 447.259 [ms]
smoothSolver:  Solving for Ux, Initial residual = 0.01069420250552046, Final residual = 0.0009182562790399946, No Iterations 13
smoothSolver:  Solving for Uy, Initial residual = 0.03933610341703846, Final residual = 0.003932669305375672, No Iterations 12
smoothSolver:  Solving for Uz, Initial residual = 0.04310181490029344, Final residual = 0.004150995279954158, No Iterations 12
[INFO] MomentumPredictor: 371.711 [ms]
[INFO] MatrixAssemblyPI: 78.001 [ms]
[INFO] MatrixAssemblyPII: 37.007 [ms]
GAMG:  Solving for p, Initial residual = 0.04393804864312755, Final residual = 0.0003828044439180926, No Iterations 8
[INFO] SolveP: 327.206 [ms]
time step continuity errors : sum local = 0.003094970330250814, global = 2.711358816723921e-05, cumulative = 0.0001930764460192859
[INFO] postSolveP: 19.2 [ms]
smoothSolver:  Solving for nuTilda, Initial residual = 0.04203232854697529, Final residual = 0.004062734025997963, No Iterations 2
[INFO] TimeStep: 1549.507 [ms]
ExecutionTime = 45.29 s  ClockTime = 46 s

Time = 21

velocityDampingConstraint velocityDamping damped 0 (0%) of cells, with max limit 300
[INFO] MatrixAssemblyU: 447.475 [ms]
smoothSolver:  Solving for Ux, Initial residual = 0.01048474470102874, Final residual = 0.000904224798488707, No Iterations 13
smoothSolver:  Solving for Uy, Initial residual = 0.03999672206217025, Final residual = 0.003982719831634993, No Iterations 12
smoothSolver:  Solving for Uz, Initial residual = 0.04341999880485493, Final residual = 0.00414781934210943, No Iterations 12
[INFO] MomentumPredictor: 372.804 [ms]
[INFO] MatrixAssemblyPI: 78.30500000000001 [ms]
[INFO] MatrixAssemblyPII: 36.963 [ms]
GAMG:  Solving for p, Initial residual = 0.04398844855460733, Final residual = 0.0004090550787173157, No Iterations 8
[INFO] SolveP: 326.846 [ms]
time step continuity errors : sum local = 0.003347849247166178, global = 4.410120561626823e-05, cumulative = 0.0002371776516355541
[INFO] postSolveP: 19.531 [ms]
smoothSolver:  Solving for nuTilda, Initial residual = 0.0248627258707462, Final residual = 0.002233169622915537, No Iterations 3
[INFO] TimeStep: 1561.348 [ms]
ExecutionTime = 47.19 s  ClockTime = 48 s

Time = 22

velocityDampingConstraint velocityDamping damped 0 (0%) of cells, with max limit 300
[INFO] MatrixAssemblyU: 448.496 [ms]
smoothSolver:  Solving for Ux, Initial residual = 0.01045591670488714, Final residual = 0.0008927585055791278, No Iterations 13
smoothSolver:  Solving for Uy, Initial residual = 0.04065624576730312, Final residual = 0.004008711295506911, No Iterations 12
smoothSolver:  Solving for Uz, Initial residual = 0.04335735332062008, Final residual = 0.004108388311984928, No Iterations 12
[INFO] MomentumPredictor: 370.1 [ms]
[INFO] MatrixAssemblyPI: 78.259 [ms]
[INFO] MatrixAssemblyPII: 37.08 [ms]
GAMG:  Solving for p, Initial residual = 0.04374212058341345, Final residual = 0.0004366793839328136, No Iterations 8
[INFO] SolveP: 327.421 [ms]
time step continuity errors : sum local = 0.003622225421883497, global = 5.569373567866432e-05, cumulative = 0.0002928713873142184
[INFO] postSolveP: 19.299 [ms]
smoothSolver:  Solving for nuTilda, Initial residual = 0.03814175464184957, Final residual = 0.002026471524964479, No Iterations 3
[INFO] TimeStep: 1557.585 [ms]
ExecutionTime = 49.08 s  ClockTime = 50 s

Time = 23

velocityDampingConstraint velocityDamping damped 0 (0%) of cells, with max limit 300
[INFO] MatrixAssemblyU: 447.589 [ms]
smoothSolver:  Solving for Ux, Initial residual = 0.0103236648054031, Final residual = 0.000883457955635488, No Iterations 13
smoothSolver:  Solving for Uy, Initial residual = 0.04126304671607528, Final residual = 0.004015330256230582, No Iterations 12
smoothSolver:  Solving for Uz, Initial residual = 0.04296421470558058, Final residual = 0.004028712760284053, No Iterations 12
[INFO] MomentumPredictor: 372.058 [ms]
[INFO] MatrixAssemblyPI: 77.81 [ms]
[INFO] MatrixAssemblyPII: 36.945 [ms]
GAMG:  Solving for p, Initial residual = 0.04341016506118065, Final residual = 0.0003543993285913968, No Iterations 9
[INFO] SolveP: 365.6 [ms]
time step continuity errors : sum local = 0.002989409053729682, global = 6.334995197111026e-05, cumulative = 0.0003562213392853287
[INFO] postSolveP: 19.043 [ms]
smoothSolver:  Solving for nuTilda, Initial residual = 0.02315099861014498, Final residual = 0.002099653936743639, No Iterations 3
[INFO] TimeStep: 1597.55 [ms]
ExecutionTime = 51.02 s  ClockTime = 52 s

Time = 24

velocityDampingConstraint velocityDamping damped 0 (0%) of cells, with max limit 300
[INFO] MatrixAssemblyU: 448.895 [ms]
smoothSolver:  Solving for Ux, Initial residual = 0.01035158175561314, Final residual = 0.001030445535312094, No Iterations 12
smoothSolver:  Solving for Uy, Initial residual = 0.04225917052176275, Final residual = 0.004065928615635554, No Iterations 12
smoothSolver:  Solving for Uz, Initial residual = 0.04258869384008053, Final residual = 0.003955875974318843, No Iterations 12
[INFO] MomentumPredictor: 364.064 [ms]
[INFO] MatrixAssemblyPI: 77.93300000000001 [ms]
[INFO] MatrixAssemblyPII: 37.099 [ms]
GAMG:  Solving for p, Initial residual = 0.04298372326927506, Final residual = 0.000325366990940788, No Iterations 9
[INFO] SolveP: 367.152 [ms]
time step continuity errors : sum local = 0.002793106925966674, global = 6.695497324018061e-05, cumulative = 0.0004231763125255093
[INFO] postSolveP: 19.036 [ms]
smoothSolver:  Solving for nuTilda, Initial residual = 0.03463701518319884, Final residual = 0.001916448320831603, No Iterations 3
[INFO] TimeStep: 1592.236 [ms]
ExecutionTime = 52.96 s  ClockTime = 53 s

Time = 25

velocityDampingConstraint velocityDamping damped 0 (0%) of cells, with max limit 300
[INFO] MatrixAssemblyU: 448.612 [ms]
smoothSolver:  Solving for Ux, Initial residual = 0.01028766261208077, Final residual = 0.0008811995608649025, No Iterations 13
smoothSolver:  Solving for Uy, Initial residual = 0.04293048734097605, Final residual = 0.004152926264448627, No Iterations 12
smoothSolver:  Solving for Uz, Initial residual = 0.0422795463153323, Final residual = 0.003916531823230661, No Iterations 12
[INFO] MomentumPredictor: 372.24 [ms]
[INFO] MatrixAssemblyPI: 77.70999999999999 [ms]
[INFO] MatrixAssemblyPII: 37.095 [ms]
GAMG:  Solving for p, Initial residual = 0.04220294339726136, Final residual = 0.0003603302633397945, No Iterations 8
[INFO] SolveP: 326.817 [ms]
time step continuity errors : sum local = 0.00314582236795021, global = 7.256904279588815e-05, cumulative = 0.0004957453553213974
[INFO] postSolveP: 19.535 [ms]
smoothSolver:  Solving for nuTilda, Initial residual = 0.02134297744740361, Final residual = 0.001966424531836024, No Iterations 3
[INFO] TimeStep: 1560.077 [ms]
ExecutionTime = 54.85 s  ClockTime = 55 s

Time = 26

velocityDampingConstraint velocityDamping damped 0 (0%) of cells, with max limit 300
[INFO] MatrixAssemblyU: 447.478 [ms]
smoothSolver:  Solving for Ux, Initial residual = 0.01035900239248325, Final residual = 0.001033865773344125, No Iterations 12
smoothSolver:  Solving for Uy, Initial residual = 0.04376464518888879, Final residual = 0.004300361665580976, No Iterations 12
smoothSolver:  Solving for Uz, Initial residual = 0.04224448806946601, Final residual = 0.003955440848774219, No Iterations 12
[INFO] MomentumPredictor: 364.567 [ms]
[INFO] MatrixAssemblyPI: 78.386 [ms]
[INFO] MatrixAssemblyPII: 36.912 [ms]
GAMG:  Solving for p, Initial residual = 0.04184387823551151, Final residual = 0.0004036466144236194, No Iterations 8
[INFO] SolveP: 326.871 [ms]
time step continuity errors : sum local = 0.003573692594325114, global = 7.701203950574343e-05, cumulative = 0.0005727573948271408
[INFO] postSolveP: 19.097 [ms]
smoothSolver:  Solving for nuTilda, Initial residual = 0.03166190903874255, Final residual = 0.001810001089261433, No Iterations 3
[INFO] TimeStep: 1551.379 [ms]
ExecutionTime = 56.74 s  ClockTime = 57 s

Time = 27

velocityDampingConstraint velocityDamping damped 0 (0%) of cells, with max limit 300
[INFO] MatrixAssemblyU: 451.024 [ms]
smoothSolver:  Solving for Ux, Initial residual = 0.01036220051224667, Final residual = 0.001035860614019106, No Iterations 12
smoothSolver:  Solving for Uy, Initial residual = 0.04480609667269139, Final residual = 0.004468988133232861, No Iterations 12
smoothSolver:  Solving for Uz, Initial residual = 0.04253551118639367, Final residual = 0.004034141303758649, No Iterations 12
[INFO] MomentumPredictor: 362.207 [ms]
[INFO] MatrixAssemblyPI: 78.32299999999999 [ms]
[INFO] MatrixAssemblyPII: 37.052 [ms]
GAMG:  Solving for p, Initial residual = 0.0420968093922422, Final residual = 0.0003293427737676146, No Iterations 9
[INFO] SolveP: 365.304 [ms]
time step continuity errors : sum local = 0.002955186067122767, global = 7.502805811017664e-05, cumulative = 0.0006477854529373174
[INFO] postSolveP: 19.084 [ms]
smoothSolver:  Solving for nuTilda, Initial residual = 0.01975921604428819, Final residual = 0.001839974306172535, No Iterations 3
[INFO] TimeStep: 1590.726 [ms]
ExecutionTime = 58.68 s  ClockTime = 59 s

Time = 28

velocityDampingConstraint velocityDamping damped 0 (0%) of cells, with max limit 300
[INFO] MatrixAssemblyU: 448.45 [ms]
smoothSolver:  Solving for Ux, Initial residual = 0.0105149774129085, Final residual = 0.00104040920498517, No Iterations 12
smoothSolver:  Solving for Uy, Initial residual = 0.04641233301697108, Final residual = 0.003974129610541674, No Iterations 13
smoothSolver:  Solving for Uz, Initial residual = 0.04357053077462095, Final residual = 0.004149034417803756, No Iterations 12
[INFO] MomentumPredictor: 371.552 [ms]
[INFO] MatrixAssemblyPI: 77.649 [ms]
[INFO] MatrixAssemblyPII: 36.971 [ms]
GAMG:  Solving for p, Initial residual = 0.04298866052329047, Final residual = 0.0003361745496561639, No Iterations 9
[INFO] SolveP: 365.058 [ms]
time step continuity errors : sum local = 0.003058745114788821, global = 7.369116978240939e-05, cumulative = 0.0007214766227197268
[INFO] postSolveP: 18.902 [ms]
smoothSolver:  Solving for nuTilda, Initial residual = 0.02911973659026886, Final residual = 0.001703210162000829, No Iterations 3
[INFO] TimeStep: 1596.844 [ms]
ExecutionTime = 60.61 s  ClockTime = 61 s

Time = 29

velocityDampingConstraint velocityDamping damped 0 (0%) of cells, with max limit 300
[INFO] MatrixAssemblyU: 450.596 [ms]
smoothSolver:  Solving for Ux, Initial residual = 0.01054904760487464, Final residual = 0.001042612403977557, No Iterations 12
smoothSolver:  Solving for Uy, Initial residual = 0.0478871718070466, Final residual = 0.004108085976040433, No Iterations 13
smoothSolver:  Solving for Uz, Initial residual = 0.04497111441257527, Final residual = 0.004291136336131721, No Iterations 12
[INFO] MomentumPredictor: 371.608 [ms]
[INFO] MatrixAssemblyPI: 78.041 [ms]
[INFO] MatrixAssemblyPII: 36.881 [ms]
GAMG:  Solving for p, Initial residual = 0.04380142794916644, Final residual = 0.0003956044917915805, No Iterations 8
[INFO] SolveP: 327.865 [ms]
time step continuity errors : sum local = 0.003647060294351946, global = 7.751248911626172e-05, cumulative = 0.0007989891118359886
[INFO] postSolveP: 19.018 [ms]
smoothSolver:  Solving for nuTilda, Initial residual = 0.01833635472732972, Final residual = 0.001715774640325637, No Iterations 3
[INFO] TimeStep: 1562.878 [ms]
ExecutionTime = 62.51 s  ClockTime = 63 s

Time = 30

velocityDampingConstraint velocityDamping damped 0 (0%) of cells, with max limit 300
[INFO] MatrixAssemblyU: 449.626 [ms]
smoothSolver:  Solving for Ux, Initial residual = 0.01074362353135999, Final residual = 0.00104875990563058, No Iterations 12
smoothSolver:  Solving for Uy, Initial residual = 0.04983606806891375, Final residual = 0.004250161441803179, No Iterations 13
smoothSolver:  Solving for Uz, Initial residual = 0.04654350056980405, Final residual = 0.004423831007995396, No Iterations 12
[INFO] MomentumPredictor: 372.176 [ms]
[INFO] MatrixAssemblyPI: 78.057 [ms]
[INFO] MatrixAssemblyPII: 37.086 [ms]
GAMG:  Solving for p, Initial residual = 0.04482603004400659, Final residual = 0.0003451327767599533, No Iterations 9
[INFO] SolveP: 365.508 [ms]
time step continuity errors : sum local = 0.003224701419088707, global = 7.270000206977676e-05, cumulative = 0.0008716891139057653
[INFO] postSolveP: 18.871 [ms]
smoothSolver:  Solving for nuTilda, Initial residual = 0.0269047873903913, Final residual = 0.001596126661151226, No Iterations 3
[INFO] TimeStep: 1599.246 [ms]
ExecutionTime = 64.45999999999999 s  ClockTime = 65 s

Time = 31

velocityDampingConstraint velocityDamping damped 0 (0%) of cells, with max limit 300
[INFO] MatrixAssemblyU: 448.446 [ms]
smoothSolver:  Solving for Ux, Initial residual = 0.010822692979881, Final residual = 0.001056197122845025, No Iterations 12
smoothSolver:  Solving for Uy, Initial residual = 0.05238221475186272, Final residual = 0.005212688749284511, No Iterations 12
smoothSolver:  Solving for Uz, Initial residual = 0.04828857980454331, Final residual = 0.004586554434604655, No Iterations 12
[INFO] MomentumPredictor: 364.763 [ms]
[INFO] MatrixAssemblyPI: 78.102 [ms]
[INFO] MatrixAssemblyPII: 36.84 [ms]
GAMG:  Solving for p, Initial residual = 0.0460869342032181, Final residual = 0.0004341053704862743, No Iterations 8
[INFO] SolveP: 326.022 [ms]
time step continuity errors : sum local = 0.004106047790268007, global = 7.361668919660726e-05, cumulative = 0.0009453058031023726
[INFO] postSolveP: 19.802 [ms]
smoothSolver:  Solving for nuTilda, Initial residual = 0.01705281078270606, Final residual = 0.001596991018040033, No Iterations 3
[INFO] TimeStep: 1552.226 [ms]
ExecutionTime = 66.34 s  ClockTime = 67 s

Time = 32

velocityDampingConstraint velocityDamping damped 0 (0%) of cells, with max limit 300
[INFO] MatrixAssemblyU: 450.051 [ms]
smoothSolver:  Solving for Ux, Initial residual = 0.01095506010822793, Final residual = 0.001063985096051096, No Iterations 12
smoothSolver:  Solving for Uy, Initial residual = 0.05464530540090576, Final residual = 0.00544046839845962, No Iterations 12
smoothSolver:  Solving for Uz, Initial residual = 0.04981036439309696, Final residual = 0.004783908078735004, No Iterations 12
[INFO] MomentumPredictor: 364.16 [ms]
[INFO] MatrixAssemblyPI: 78.121 [ms]
[INFO] MatrixAssemblyPII: 37.318 [ms]
GAMG:  Solving for p, Initial residual = 0.04770555261059271, Final residual = 0.0004670439439097451, No Iterations 8
[INFO] SolveP: 326.002 [ms]
time step continuity errors : sum local = 0.004461575418468177, global = 6.881852577679163e-05, cumulative = 0.001014124328879164
[INFO] postSolveP: 19.435 [ms]
smoothSolver:  Solving for nuTilda, Initial residual = 0.02500007020341459, Final residual = 0.001493742364975455, No Iterations 3
[INFO] TimeStep: 1551.701 [ms]
ExecutionTime = 68.23 s  ClockTime = 69 s

Time = 33

velocityDampingConstraint velocityDamping damped 0 (0%) of cells, with max limit 300
[INFO] MatrixAssemblyU: 449.311 [ms]
smoothSolver:  Solving for Ux, Initial residual = 0.01091870977907154, Final residual = 0.001071323923318268, No Iterations 12
smoothSolver:  Solving for Uy, Initial residual = 0.05687688621756377, Final residual = 0.005665802379552498, No Iterations 12
smoothSolver:  Solving for Uz, Initial residual = 0.05194424744455612, Final residual = 0.005053882642391514, No Iterations 12
[INFO] MomentumPredictor: 364.828 [ms]
[INFO] MatrixAssemblyPI: 77.73099999999999 [ms]
[INFO] MatrixAssemblyPII: 36.978 [ms]
GAMG:  Solving for p, Initial residual = 0.04966014371354572, Final residual = 0.0004473254677284099, No Iterations 8
[INFO] SolveP: 326.724 [ms]
time step continuity errors : sum local = 0.00431184881809387, global = 6.400730389593604e-05, cumulative = 0.0010781316327751
[INFO] postSolveP: 19.202 [ms]
smoothSolver:  Solving for nuTilda, Initial residual = 0.01595084494860547, Final residual = 0.00148710940180707, No Iterations 3
[INFO] TimeStep: 1551.222 [ms]
ExecutionTime = 70.13 s  ClockTime = 71 s

Time = 34

velocityDampingConstraint velocityDamping damped 0 (0%) of cells, with max limit 300
[INFO] MatrixAssemblyU: 448.1 [ms]
smoothSolver:  Solving for Ux, Initial residual = 0.01104616083463497, Final residual = 0.001083092169767634, No Iterations 12
smoothSolver:  Solving for Uy, Initial residual = 0.05931769114648455, Final residual = 0.005920264202851341, No Iterations 12
smoothSolver:  Solving for Uz, Initial residual = 0.05443461255060064, Final residual = 0.005355136563563745, No Iterations 12
[INFO] MomentumPredictor: 362.474 [ms]
[INFO] MatrixAssemblyPI: 77.569 [ms]
[INFO] MatrixAssemblyPII: 37.04 [ms]
GAMG:  Solving for p, Initial residual = 0.05186772946911625, Final residual = 0.0004194555966992906, No Iterations 8
[INFO] SolveP: 326.388 [ms]
time step continuity errors : sum local = 0.00407924746734227, global = 5.582375882991157e-05, cumulative = 0.001133955391605012
[INFO] postSolveP: 19.226 [ms]
smoothSolver:  Solving for nuTilda, Initial residual = 0.02335752494755653, Final residual = 0.001399163087016113, No Iterations 3
[INFO] TimeStep: 1548.275 [ms]
ExecutionTime = 72.01000000000001 s  ClockTime = 73 s

Time = 35

velocityDampingConstraint velocityDamping damped 0 (0%) of cells, with max limit 300
[INFO] MatrixAssemblyU: 448.622 [ms]
smoothSolver:  Solving for Ux, Initial residual = 0.01110805198752613, Final residual = 0.001097007467346559, No Iterations 12
smoothSolver:  Solving for Uy, Initial residual = 0.061871362757955, Final residual = 0.005290679485530321, No Iterations 13
smoothSolver:  Solving for Uz, Initial residual = 0.05696714953375553, Final residual = 0.00563666474646499, No Iterations 12
[INFO] MomentumPredictor: 370.269 [ms]
[INFO] MatrixAssemblyPI: 78.364 [ms]
[INFO] MatrixAssemblyPII: 37.005 [ms]
GAMG:  Solving for p, Initial residual = 0.0537665646097918, Final residual = 0.0004004733384786912, No Iterations 8
[INFO] SolveP: 326.125 [ms]
time step continuity errors : sum local = 0.003932801625870647, global = 5.106093181249303e-05, cumulative = 0.001185016323417505
[INFO] postSolveP: 19.183 [ms]
smoothSolver:  Solving for nuTilda, Initial residual = 0.01503595255894664, Final residual = 0.001388755312225999, No Iterations 3
[INFO] TimeStep: 1556.939 [ms]
ExecutionTime = 73.91 s  ClockTime = 75 s

Time = 36

velocityDampingConstraint velocityDamping damped 0 (0%) of cells, with max limit 300
[INFO] MatrixAssemblyU: 449.486 [ms]
smoothSolver:  Solving for Ux, Initial residual = 0.01138392435950752, Final residual = 0.001119048112175914, No Iterations 12
smoothSolver:  Solving for Uy, Initial residual = 0.06387414161530607, Final residual = 0.005552408325396307, No Iterations 13
smoothSolver:  Solving for Uz, Initial residual = 0.05963830833800725, Final residual = 0.005907122171865661, No Iterations 12
[INFO] MomentumPredictor: 371.144 [ms]
[INFO] MatrixAssemblyPI: 78.14700000000001 [ms]
[INFO] MatrixAssemblyPII: 37.035 [ms]
GAMG:  Solving for p, Initial residual = 0.05512806012612276, Final residual = 0.0005124464572606143, No Iterations 7
[INFO] SolveP: 289.162 [ms]
time step continuity errors : sum local = 0.005071833040096282, global = 4.464067429593345e-05, cumulative = 0.001229656997713438
[INFO] postSolveP: 18.872 [ms]
smoothSolver:  Solving for nuTilda, Initial residual = 0.02192462089870497, Final residual = 0.001312714322186029, No Iterations 3
[INFO] TimeStep: 1521.883 [ms]
ExecutionTime = 75.78 s  ClockTime = 76 s

Time = 37

velocityDampingConstraint velocityDamping damped 0 (0%) of cells, with max limit 300
[INFO] MatrixAssemblyU: 449.688 [ms]
smoothSolver:  Solving for Ux, Initial residual = 0.01159591250541201, Final residual = 0.001144718153213678, No Iterations 12
smoothSolver:  Solving for Uy, Initial residual = 0.06597180119233188, Final residual = 0.005801595681585814, No Iterations 13
smoothSolver:  Solving for Uz, Initial residual = 0.06226742030044152, Final residual = 0.006131668945630399, No Iterations 12
[INFO] MomentumPredictor: 372.346 [ms]
[INFO] MatrixAssemblyPI: 79.223 [ms]
[INFO] MatrixAssemblyPII: 36.761 [ms]
GAMG:  Solving for p, Initial residual = 0.05709314107187805, Final residual = 0.000437838540127989, No Iterations 8
[INFO] SolveP: 325.626 [ms]
time step continuity errors : sum local = 0.004366139816595433, global = 3.552478217983829e-05, cumulative = 0.001265181779893277
[INFO] postSolveP: 19.362 [ms]
smoothSolver:  Solving for nuTilda, Initial residual = 0.01421937324736809, Final residual = 0.001300991911784147, No Iterations 3
[INFO] TimeStep: 1559.877 [ms]
ExecutionTime = 77.68000000000001 s  ClockTime = 78 s

Time = 38

velocityDampingConstraint velocityDamping damped 0 (0%) of cells, with max limit 300
[INFO] MatrixAssemblyU: 448.222 [ms]
smoothSolver:  Solving for Ux, Initial residual = 0.01191479712056637, Final residual = 0.001167749712435818, No Iterations 12
smoothSolver:  Solving for Uy, Initial residual = 0.06736900549660929, Final residual = 0.005985535406129693, No Iterations 13
smoothSolver:  Solving for Uz, Initial residual = 0.06494694517526803, Final residual = 0.00632176067116078, No Iterations 12
[INFO] MomentumPredictor: 371.848 [ms]
[INFO] MatrixAssemblyPI: 78.408 [ms]
[INFO] MatrixAssemblyPII: 36.929 [ms]
GAMG:  Solving for p, Initial residual = 0.05785100843780307, Final residual = 0.0005412342641765109, No Iterations 7
[INFO] SolveP: 288.158 [ms]
time step continuity errors : sum local = 0.005426634823844609, global = 2.434160169671354e-05, cumulative = 0.00128952338158999
[INFO] postSolveP: 18.931 [ms]
smoothSolver:  Solving for nuTilda, Initial residual = 0.02066472473582881, Final residual = 0.001236506310537643, No Iterations 3
[INFO] TimeStep: 1521.545 [ms]
ExecutionTime = 79.54000000000001 s  ClockTime = 80 s

Time = 39

velocityDampingConstraint velocityDamping damped 0 (0%) of cells, with max limit 300
[INFO] MatrixAssemblyU: 448.615 [ms]
smoothSolver:  Solving for Ux, Initial residual = 0.01200559377273257, Final residual = 0.001180069617759257, No Iterations 12
smoothSolver:  Solving for Uy, Initial residual = 0.06905762355551541, Final residual = 0.006164884817849227, No Iterations 13
smoothSolver:  Solving for Uz, Initial residual = 0.06740076120236457, Final residual = 0.006538288346423797, No Iterations 12
[INFO] MomentumPredictor: 372.141 [ms]
[INFO] MatrixAssemblyPI: 79.364 [ms]
[INFO] MatrixAssemblyPII: 36.887 [ms]
GAMG:  Solving for p, Initial residual = 0.05799258720013205, Final residual = 0.0005650457240247852, No Iterations 7
[INFO] SolveP: 288.029 [ms]
time step continuity errors : sum local = 0.005681974269494122, global = 9.985369808313112e-06, cumulative = 0.001299508751398303
[INFO] postSolveP: 19.069 [ms]
smoothSolver:  Solving for nuTilda, Initial residual = 0.01349624859039076, Final residual = 0.001226361285351264, No Iterations 3
[INFO] TimeStep: 1522.228 [ms]
ExecutionTime = 81.41 s  ClockTime = 82 s

Time = 40

velocityDampingConstraint velocityDamping damped 0 (0%) of cells, with max limit 300
[INFO] MatrixAssemblyU: 448.44 [ms]
smoothSolver:  Solving for Ux, Initial residual = 0.01213791406015145, Final residual = 0.001189834284127796, No Iterations 12
smoothSolver:  Solving for Uy, Initial residual = 0.0702855684827894, Final residual = 0.006328396199155178, No Iterations 13
smoothSolver:  Solving for Uz, Initial residual = 0.06917765943684079, Final residual = 0.006769413790446695, No Iterations 12
[INFO] MomentumPredictor: 372.81 [ms]
[INFO] MatrixAssemblyPI: 77.70399999999999 [ms]
[INFO] MatrixAssemblyPII: 36.941 [ms]
GAMG:  Solving for p, Initial residual = 0.05820805950304696, Final residual = 0.0005529315115197559, No Iterations 7
[INFO] SolveP: 288.93 [ms]
time step continuity errors : sum local = 0.005565232698496757, global = -5.640250972650892e-06, cumulative = 0.001293868500425652
[INFO] postSolveP: 19.228 [ms]
smoothSolver:  Solving for nuTilda, Initial residual = 0.01955425963913099, Final residual = 0.001171996420874917, No Iterations 3
[INFO] TimeStep: 1523.004 [ms]
ExecutionTime = 83.27 s  ClockTime = 84 s

Time = 41

velocityDampingConstraint velocityDamping damped 0 (0%) of cells, with max limit 300
[INFO] MatrixAssemblyU: 449.878 [ms]
smoothSolver:  Solving for Ux, Initial residual = 0.0120606468606422, Final residual = 0.001197336654318437, No Iterations 12
smoothSolver:  Solving for Uy, Initial residual = 0.07093665294534514, Final residual = 0.006490538141916552, No Iterations 13
smoothSolver:  Solving for Uz, Initial residual = 0.07033358995487882, Final residual = 0.00696486943299238, No Iterations 12
[INFO] MomentumPredictor: 372.981 [ms]
[INFO] MatrixAssemblyPI: 78.404 [ms]
[INFO] MatrixAssemblyPII: 36.851 [ms]
GAMG:  Solving for p, Initial residual = 0.05785826696156806, Final residual = 0.0005130288275439655, No Iterations 7
[INFO] SolveP: 288.155 [ms]
time step continuity errors : sum local = 0.005163335342217587, global = -1.161501367603323e-05, cumulative = 0.001282253486749619
[INFO] postSolveP: 19.025 [ms]
smoothSolver:  Solving for nuTilda, Initial residual = 0.01288451243768169, Final residual = 0.001163793983243582, No Iterations 3
[INFO] TimeStep: 1523.751 [ms]
ExecutionTime = 85.13 s  ClockTime = 86 s

Time = 42

velocityDampingConstraint velocityDamping damped 0 (0%) of cells, with max limit 300
[INFO] MatrixAssemblyU: 449.884 [ms]
smoothSolver:  Solving for Ux, Initial residual = 0.01210161688044265, Final residual = 0.001204677580710059, No Iterations 12
smoothSolver:  Solving for Uy, Initial residual = 0.07139691419802929, Final residual = 0.006675517250545916, No Iterations 13
smoothSolver:  Solving for Uz, Initial residual = 0.07094543981187937, Final residual = 0.006076127071902103, No Iterations 13
[INFO] MomentumPredictor: 380.984 [ms]
[INFO] MatrixAssemblyPI: 77.625 [ms]
[INFO] MatrixAssemblyPII: 36.769 [ms]
GAMG:  Solving for p, Initial residual = 0.0576069034976458, Final residual = 0.0004925068296922089, No Iterations 7
[INFO] SolveP: 288.714 [ms]
time step continuity errors : sum local = 0.00494867419373404, global = -2.42262772663972e-05, cumulative = 0.001258027209483222
[INFO] postSolveP: 18.816 [ms]
smoothSolver:  Solving for nuTilda, Initial residual = 0.01855109085289926, Final residual = 0.001116247911701085, No Iterations 3
[INFO] TimeStep: 1531.801 [ms]
ExecutionTime = 87.01000000000001 s  ClockTime = 88 s

Time = 43

velocityDampingConstraint velocityDamping damped 0 (0%) of cells, with max limit 300
[INFO] MatrixAssemblyU: 449.776 [ms]
smoothSolver:  Solving for Ux, Initial residual = 0.01201570921941236, Final residual = 0.001032621401263271, No Iterations 13
smoothSolver:  Solving for Uy, Initial residual = 0.0721255000142669, Final residual = 0.006896519637542093, No Iterations 13
smoothSolver:  Solving for Uz, Initial residual = 0.07067151942678906, Final residual = 0.006168506769631711, No Iterations 13
[INFO] MomentumPredictor: 389.077 [ms]
[INFO] MatrixAssemblyPI: 78.752 [ms]
[INFO] MatrixAssemblyPII: 36.75 [ms]
GAMG:  Solving for p, Initial residual = 0.05697733365710609, Final residual = 0.0005007795206195363, No Iterations 7
[INFO] SolveP: 287.705 [ms]
time step continuity errors : sum local = 0.005009033624761583, global = -3.126639231338078e-05, cumulative = 0.001226760817169841
[INFO] postSolveP: 19.273 [ms]
smoothSolver:  Solving for nuTilda, Initial residual = 0.01235366704490747, Final residual = 0.001107133967242205, No Iterations 3
[INFO] TimeStep: 1539.793 [ms]
ExecutionTime = 88.90000000000001 s  ClockTime = 90 s

Time = 44

velocityDampingConstraint velocityDamping damped 0 (0%) of cells, with max limit 300
[INFO] MatrixAssemblyU: 448.161 [ms]
smoothSolver:  Solving for Ux, Initial residual = 0.0120440784299477, Final residual = 0.001041502557757299, No Iterations 13
smoothSolver:  Solving for Uy, Initial residual = 0.07253397983046872, Final residual = 0.007086901585877713, No Iterations 13
smoothSolver:  Solving for Uz, Initial residual = 0.07014459449212823, Final residual = 0.006243169080851729, No Iterations 13
[INFO] MomentumPredictor: 388.079 [ms]
[INFO] MatrixAssemblyPI: 77.988 [ms]
[INFO] MatrixAssemblyPII: 36.896 [ms]
GAMG:  Solving for p, Initial residual = 0.05640805756115495, Final residual = 0.0004927466689055623, No Iterations 7
[INFO] SolveP: 287.687 [ms]
time step continuity errors : sum local = 0.004878735096400892, global = -4.305441416044865e-05, cumulative = 0.001183706403009393
[INFO] postSolveP: 19.038 [ms]
smoothSolver:  Solving for nuTilda, Initial residual = 0.01760426427966895, Final residual = 0.001063936102947269, No Iterations 3
[INFO] TimeStep: 1537.048 [ms]
ExecutionTime = 90.77 s  ClockTime = 92 s

Time = 45

velocityDampingConstraint velocityDamping damped 0 (0%) of cells, with max limit 300
[INFO] MatrixAssemblyU: 449.682 [ms]
smoothSolver:  Solving for Ux, Initial residual = 0.01190736780002417, Final residual = 0.001050321848271766, No Iterations 13
smoothSolver:  Solving for Uy, Initial residual = 0.07267281483902943, Final residual = 0.007214964237754642, No Iterations 13
smoothSolver:  Solving for Uz, Initial residual = 0.06935357936164258, Final residual = 0.006300326433564233, No Iterations 13
[INFO] MomentumPredictor: 387.333 [ms]
[INFO] MatrixAssemblyPI: 77.148 [ms]
[INFO] MatrixAssemblyPII: 36.641 [ms]
GAMG:  Solving for p, Initial residual = 0.05600107058129557, Final residual = 0.0005218629223021204, No Iterations 7
[INFO] SolveP: 288.309 [ms]
time step continuity errors : sum local = 0.00509789943092193, global = -3.280003048882094e-05, cumulative = 0.001150906372520572
[INFO] postSolveP: 18.845 [ms]
smoothSolver:  Solving for nuTilda, Initial residual = 0.0118089239841294, Final residual = 0.001053140814776764, No Iterations 3
[INFO] TimeStep: 1537.488 [ms]
ExecutionTime = 92.65000000000001 s  ClockTime = 93 s

Time = 46

velocityDampingConstraint velocityDamping damped 0 (0%) of cells, with max limit 300
[INFO] MatrixAssemblyU: 448.794 [ms]
smoothSolver:  Solving for Ux, Initial residual = 0.01177718286020243, Final residual = 0.001053074244783107, No Iterations 13
smoothSolver:  Solving for Uy, Initial residual = 0.07251453631896955, Final residual = 0.006207586113887775, No Iterations 14
smoothSolver:  Solving for Uz, Initial residual = 0.0680748725378274, Final residual = 0.006345154597985612, No Iterations 13
[INFO] MomentumPredictor: 395.111 [ms]
[INFO] MatrixAssemblyPI: 77.989 [ms]
[INFO] MatrixAssemblyPII: 36.82 [ms]
GAMG:  Solving for p, Initial residual = 0.05526753842237482, Final residual = 0.0004208051187716405, No Iterations 8
[INFO] SolveP: 327.184 [ms]
time step continuity errors : sum local = 0.004070982721814148, global = -3.714778356313984e-06, cumulative = 0.001147191594164258
[INFO] postSolveP: 19.033 [ms]
smoothSolver:  Solving for nuTilda, Initial residual = 0.01671386397484869, Final residual = 0.001014744520040584, No Iterations 3
[INFO] TimeStep: 1584.017 [ms]
ExecutionTime = 94.58 s  ClockTime = 95 s

Time = 47

velocityDampingConstraint velocityDamping damped 0 (0%) of cells, with max limit 300
[INFO] MatrixAssemblyU: 449.887 [ms]
smoothSolver:  Solving for Ux, Initial residual = 0.01152975636713085, Final residual = 0.001057363574850302, No Iterations 13
smoothSolver:  Solving for Uy, Initial residual = 0.07192197955876478, Final residual = 0.006199627864423195, No Iterations 14
smoothSolver:  Solving for Uz, Initial residual = 0.06666857797476337, Final residual = 0.006375450458957765, No Iterations 13
[INFO] MomentumPredictor: 399.076 [ms]
[INFO] MatrixAssemblyPI: 79.813 [ms]
[INFO] MatrixAssemblyPII: 37.152 [ms]
GAMG:  Solving for p, Initial residual = 0.05438308914286655, Final residual = 0.0005421877038006217, No Iterations 7
[INFO] SolveP: 289.419 [ms]
time step continuity errors : sum local = 0.005214323066232031, global = 2.035478422914579e-05, cumulative = 0.001167546378393403
[INFO] postSolveP: 18.871 [ms]
smoothSolver:  Solving for nuTilda, Initial residual = 0.01128184134252201, Final residual = 0.001005295256234724, No Iterations 3
[INFO] TimeStep: 1553.158 [ms]
ExecutionTime = 96.47 s  ClockTime = 97 s

Time = 48

velocityDampingConstraint velocityDamping damped 0 (0%) of cells, with max limit 300
[INFO] MatrixAssemblyU: 449.384 [ms]
smoothSolver:  Solving for Ux, Initial residual = 0.01149598492297768, Final residual = 0.001063762660675981, No Iterations 13
smoothSolver:  Solving for Uy, Initial residual = 0.07183885267119805, Final residual = 0.006199569429449853, No Iterations 14
smoothSolver:  Solving for Uz, Initial residual = 0.06550765264580881, Final residual = 0.0063676802882036, No Iterations 13
[INFO] MomentumPredictor: 396.275 [ms]
[INFO] MatrixAssemblyPI: 77.67700000000001 [ms]
[INFO] MatrixAssemblyPII: 36.743 [ms]
GAMG:  Solving for p, Initial residual = 0.05368178735908011, Final residual = 0.0004172615726318786, No Iterations 8
[INFO] SolveP: 328.522 [ms]
time step continuity errors : sum local = 0.003981908635343737, global = 2.632539264180742e-05, cumulative = 0.001193871771035211
[INFO] postSolveP: 19.482 [ms]
smoothSolver:  Solving for nuTilda, Initial residual = 0.01592080947244177, Final residual = 0.0009732895197420742, No Iterations 3
[INFO] TimeStep: 1587.277 [ms]
ExecutionTime = 98.41 s  ClockTime = 99 s

Time = 49

velocityDampingConstraint velocityDamping damped 0 (0%) of cells, with max limit 300
[INFO] MatrixAssemblyU: 450.551 [ms]
smoothSolver:  Solving for Ux, Initial residual = 0.01139847949033614, Final residual = 0.00106920625345603, No Iterations 13
smoothSolver:  Solving for Uy, Initial residual = 0.0710916185827989, Final residual = 0.006181838457851399, No Iterations 14
smoothSolver:  Solving for Uz, Initial residual = 0.06447972896669059, Final residual = 0.006349493830984473, No Iterations 13
[INFO] MomentumPredictor: 397.942 [ms]
[INFO] MatrixAssemblyPI: 77.872 [ms]
[INFO] MatrixAssemblyPII: 36.886 [ms]
GAMG:  Solving for p, Initial residual = 0.05285898428982934, Final residual = 0.0005256958352201258, No Iterations 7
[INFO] SolveP: 289.922 [ms]
time step continuity errors : sum local = 0.00498688069922025, global = 2.460719644658978e-05, cumulative = 0.001218478967481801
[INFO] postSolveP: 19.824 [ms]
smoothSolver:  Solving for nuTilda, Initial residual = 0.01082993281797475, Final residual = 0.0009673308873563116, No Iterations 3
[INFO] TimeStep: 1552.673 [ms]
ExecutionTime = 100.29 s  ClockTime = 101 s

Time = 50

velocityDampingConstraint velocityDamping damped 0 (0%) of cells, with max limit 300
[INFO] MatrixAssemblyU: 448.972 [ms]
smoothSolver:  Solving for Ux, Initial residual = 0.01141223971965533, Final residual = 0.001070136153350944, No Iterations 13
smoothSolver:  Solving for Uy, Initial residual = 0.07024680072825507, Final residual = 0.006121269432970156, No Iterations 14
smoothSolver:  Solving for Uz, Initial residual = 0.06360602658520219, Final residual = 0.006324127967827615, No Iterations 13
[INFO] MomentumPredictor: 396.238 [ms]
[INFO] MatrixAssemblyPI: 77.64700000000001 [ms]
[INFO] MatrixAssemblyPII: 37.033 [ms]
GAMG:  Solving for p, Initial residual = 0.05283458246996753, Final residual = 0.0004228153490624119, No Iterations 8
[INFO] SolveP: 326.346 [ms]
time step continuity errors : sum local = 0.003980050192123563, global = 7.021723258339686e-06, cumulative = 0.00122550069074014
[INFO] postSolveP: 19.595 [ms]
smoothSolver:  Solving for nuTilda, Initial residual = 0.01522933483145813, Final residual = 0.0009409247929374711, No Iterations 3
[INFO] TimeStep: 1582.689 [ms]
ExecutionTime = 102.22 s  ClockTime = 103 s

End

Finalising parallel run
