/*---------------------------------------------------------------------------*\
| =========                 |                                                 |
| \\      /  F ield         | OpenFOAM: The Open Source CFD Toolbox           |
|  \\    /   O peration     | Version:  2312                                  |
|   \\  /    A nd           | Website:  www.openfoam.com                      |
|    \\/     M anipulation  |                                                 |
\*---------------------------------------------------------------------------*/
Build  : a46b310f-20240104 OPENFOAM=2312 version=v2312
Arch   : "LSB;label=32;scalar=64"
Exec   : decomposePar -force
Date   : Feb 16 2024
Time   : 21:40:13
Host   : i20r02c03s02
PID    : 6884
--> FOAM Warning : 
    From Foam::fileName Foam::cwd_L()
    in file POSIX.C at line 552
    PWD is not the cwd() - reverting to physical description
I/O    : uncollated
--> FOAM Warning : 
    From Foam::fileName Foam::cwd_L()
    in file POSIX.C at line 552
    PWD is not the cwd() - reverting to physical description
Case   : /hppfs/scratch/0B/di35yan/lidDriven3D/workspace/df8dc19f5d1ac6ef8ac64d6e83850433/case
nProcs : 1
trapFpe: Floating point exception trapping enabled (FOAM_SIGFPE).
fileModificationChecking : Monitoring run-time modified files using timeStampMaster (fileModificationSkew 5, maxFileModificationPolls 20)
allowSystemOperations : Allowing user-supplied system call operations

// * * * * * * * * * * * * * * * * * * * * * * * * * * * * * * * * * * * * * //
Create time

--> FOAM Warning : 
    From void* Foam::dlLibraryTable::openLibrary(const Foam::fileName&, bool)
    in file db/dynamicLibrary/dlLibraryTable/dlLibraryTable.C at line 188
    Could not load "libpetscFoam.so"
libpetscFoam.so: cannot open shared object file: No such file or directory


Decomposing mesh

Create mesh

Calculating distribution of cells
Decomposition method simple [8] (region region0)

Finished decomposition in 4.47 s

Calculating original mesh data

Distributing cells to processors

Distributing faces to processors

Distributing points to processors

Constructing processor meshes

Processor 0
    Number of cells = 1000000
    Number of points = 1035351
    Number of faces shared with processor 1 = 20000
    Number of faces shared with processor 4 = 10000
    Number of processor patches = 2
    Number of processor faces = 30000
    Number of boundary faces = 40000

Processor 1
    Number of cells = 1000000
    Number of points = 1035351
    Number of faces shared with processor 0 = 20000
    Number of faces shared with processor 2 = 20000
    Number of faces shared with processor 5 = 10000
    Number of processor patches = 3
    Number of processor faces = 50000
    Number of boundary faces = 20000

Processor 2
    Number of cells = 1000000
    Number of points = 1035351
    Number of faces shared with processor 1 = 20000
    Number of faces shared with processor 3 = 20000
    Number of faces shared with processor 6 = 10000
    Number of processor patches = 3
    Number of processor faces = 50000
    Number of boundary faces = 20000

Processor 3
    Number of cells = 1000000
    Number of points = 1035351
    Number of faces shared with processor 2 = 20000
    Number of faces shared with processor 7 = 10000
    Number of processor patches = 2
    Number of processor faces = 30000
    Number of boundary faces = 40000

Processor 4
    Number of cells = 1000000
    Number of points = 1035351
    Number of faces shared with processor 0 = 10000
    Number of faces shared with processor 5 = 20000
    Number of processor patches = 2
    Number of processor faces = 30000
    Number of boundary faces = 40000

Processor 5
    Number of cells = 1000000
    Number of points = 1035351
    Number of faces shared with processor 1 = 10000
    Number of faces shared with processor 4 = 20000
    Number of faces shared with processor 6 = 20000
    Number of processor patches = 3
    Number of processor faces = 50000
    Number of boundary faces = 20000

Processor 6
    Number of cells = 1000000
    Number of points = 1035351
    Number of faces shared with processor 2 = 10000
    Number of faces shared with processor 5 = 20000
    Number of faces shared with processor 7 = 20000
    Number of processor patches = 3
    Number of processor faces = 50000
    Number of boundary faces = 20000

Processor 7
    Number of cells = 1000000
    Number of points = 1035351
    Number of faces shared with processor 3 = 10000
    Number of faces shared with processor 6 = 20000
    Number of processor patches = 2
    Number of processor faces = 30000
    Number of boundary faces = 40000

Number of processor faces = 160000
Max number of cells = 1000000 (0% above average 1e+06)
Max number of processor patches = 3 (20% above average 2.5)
Max number of faces between processors = 50000 (25% above average 40000)

Time = 0

Processor 0: field transfer
--> FOAM Warning : 
    From void* Foam::dlLibraryTable::openLibrary(const Foam::fileName&, bool)
    in file db/dynamicLibrary/dlLibraryTable/dlLibraryTable.C at line 188
    Could not load "libpetscFoam.so"
libpetscFoam.so: cannot open shared object file: No such file or directory
Processor 1: field transfer
--> FOAM Warning : 
    From void* Foam::dlLibraryTable::openLibrary(const Foam::fileName&, bool)
    in file db/dynamicLibrary/dlLibraryTable/dlLibraryTable.C at line 188
    Could not load "libpetscFoam.so"
libpetscFoam.so: cannot open shared object file: No such file or directory
Processor 2: field transfer
--> FOAM Warning : 
    From void* Foam::dlLibraryTable::openLibrary(const Foam::fileName&, bool)
    in file db/dynamicLibrary/dlLibraryTable/dlLibraryTable.C at line 188
    Could not load "libpetscFoam.so"
libpetscFoam.so: cannot open shared object file: No such file or directory
Processor 3: field transfer
--> FOAM Warning : 
    From void* Foam::dlLibraryTable::openLibrary(const Foam::fileName&, bool)
    in file db/dynamicLibrary/dlLibraryTable/dlLibraryTable.C at line 188
    Could not load "libpetscFoam.so"
libpetscFoam.so: cannot open shared object file: No such file or directory
Processor 4: field transfer
--> FOAM Warning : 
    From void* Foam::dlLibraryTable::openLibrary(const Foam::fileName&, bool)
    in file db/dynamicLibrary/dlLibraryTable/dlLibraryTable.C at line 188
    Could not load "libpetscFoam.so"
libpetscFoam.so: cannot open shared object file: No such file or directory
Processor 5: field transfer
--> FOAM Warning : 
    From void* Foam::dlLibraryTable::openLibrary(const Foam::fileName&, bool)
    in file db/dynamicLibrary/dlLibraryTable/dlLibraryTable.C at line 188
    Could not load "libpetscFoam.so"
libpetscFoam.so: cannot open shared object file: No such file or directory
Processor 6: field transfer
--> FOAM Warning : 
    From void* Foam::dlLibraryTable::openLibrary(const Foam::fileName&, bool)
    in file db/dynamicLibrary/dlLibraryTable/dlLibraryTable.C at line 188
    Could not load "libpetscFoam.so"
libpetscFoam.so: cannot open shared object file: No such file or directory
Processor 7: field transfer
--> FOAM Warning : 
    From void* Foam::dlLibraryTable::openLibrary(const Foam::fileName&, bool)
    in file db/dynamicLibrary/dlLibraryTable/dlLibraryTable.C at line 188
    Could not load "libpetscFoam.so"
libpetscFoam.so: cannot open shared object file: No such file or directory

End

