/*---------------------------------------------------------------------------*\
| =========                 |                                                 |
| \\      /  F ield         | OpenFOAM: The Open Source CFD Toolbox           |
|  \\    /   O peration     | Version:  2306                                  |
|   \\  /    A nd           | Website:  www.openfoam.com                      |
|    \\/     M anipulation  |                                                 |
\*---------------------------------------------------------------------------*/
Build  : c423ebec-20231012 OPENFOAM=2306 version=v2306
Arch   : "LSB;label=32;scalar=64"
Exec   : decomposePar -force
Date   : Feb 16 2024
Time   : 09:03:00
Host   : hkn1636.localdomain
PID    : 2537079
--> FOAM Warning : 
    From Foam::fileName Foam::cwd_L()
    in file POSIX.C at line 552
    PWD is not the cwd() - reverting to physical description
I/O    : uncollated
--> FOAM Warning : 
    From Foam::fileName Foam::cwd_L()
    in file POSIX.C at line 552
    PWD is not the cwd() - reverting to physical description
Case   : /hkfs/work/workspace/scratch/eq4036-windsorbody_setup/workspace/f04c7574b270cc4b16115556b740fad5/case
nProcs : 1
trapFpe: Floating point exception trapping enabled (FOAM_SIGFPE).
fileModificationChecking : Monitoring run-time modified files using timeStampMaster (fileModificationSkew 5, maxFileModificationPolls 20)
allowSystemOperations : Allowing user-supplied system call operations

// * * * * * * * * * * * * * * * * * * * * * * * * * * * * * * * * * * * * * //
Create time

--> FOAM Warning : 
    From void* Foam::dlLibraryTable::openLibrary(const Foam::fileName&, bool)
    in file db/dynamicLibrary/dlLibraryTable/dlLibraryTable.C at line 188
    Could not load "libpetscFoam.so"
libpetscFoam.so: cannot open shared object file: No such file or directory


Decomposing mesh

Create mesh

Calculating distribution of cells
Decomposition method simple [32] (region region0)

Finished decomposition in 35.53 s

Calculating original mesh data

Distributing cells to processors

Distributing faces to processors

Distributing points to processors

Constructing processor meshes

Processor 0
    Number of cells = 1868678
    Number of points = 1966925
    Number of faces shared with processor 1 = 8623
    Number of faces shared with processor 4 = 710
    Number of faces shared with processor 16 = 34114
    Number of faces shared with processor 17 = 4
    Number of processor patches = 4
    Number of processor faces = 43451
    Number of boundary faces = 145039

Processor 1
    Number of cells = 1222610
    Number of points = 1284089
    Number of faces shared with processor 0 = 8623
    Number of faces shared with processor 2 = 9665
    Number of faces shared with processor 5 = 90
    Number of faces shared with processor 17 = 38769
    Number of faces shared with processor 18 = 2
    Number of processor patches = 5
    Number of processor faces = 57149
    Number of boundary faces = 55761

Processor 2
    Number of cells = 1181768
    Number of points = 1240221
    Number of faces shared with processor 1 = 9665
    Number of faces shared with processor 3 = 9697
    Number of faces shared with processor 6 = 80
    Number of faces shared with processor 17 = 2
    Number of faces shared with processor 18 = 39581
    Number of faces shared with processor 19 = 3
    Number of processor patches = 6
    Number of processor faces = 59028
    Number of boundary faces = 47822

Processor 3
    Number of cells = 1785650
    Number of points = 1884080
    Number of faces shared with processor 2 = 9697
    Number of faces shared with processor 7 = 560
    Number of faces shared with processor 18 = 1
    Number of faces shared with processor 19 = 43968
    Number of processor patches = 4
    Number of processor faces = 54226
    Number of boundary faces = 100504

Processor 4
    Number of cells = 1891582
    Number of points = 1991125
    Number of faces shared with processor 0 = 710
    Number of faces shared with processor 5 = 8870
    Number of faces shared with processor 8 = 710
    Number of faces shared with processor 20 = 33670
    Number of faces shared with processor 21 = 1
    Number of processor patches = 5
    Number of processor faces = 43961
    Number of boundary faces = 145361

Processor 5
    Number of cells = 1259829
    Number of points = 1322492
    Number of faces shared with processor 1 = 90
    Number of faces shared with processor 4 = 8870
    Number of faces shared with processor 6 = 10219
    Number of faces shared with processor 9 = 90
    Number of faces shared with processor 20 = 1
    Number of faces shared with processor 21 = 38503
    Number of faces shared with processor 22 = 2
    Number of processor patches = 7
    Number of processor faces = 57775
    Number of boundary faces = 56033

Processor 6
    Number of cells = 1229877
    Number of points = 1289126
    Number of faces shared with processor 2 = 80
    Number of faces shared with processor 5 = 10219
    Number of faces shared with processor 7 = 10084
    Number of faces shared with processor 10 = 80
    Number of faces shared with processor 21 = 5
    Number of faces shared with processor 22 = 39205
    Number of faces shared with processor 23 = 3
    Number of processor patches = 7
    Number of processor faces = 59676
    Number of boundary faces = 47776

Processor 7
    Number of cells = 1827722
    Number of points = 1927262
    Number of faces shared with processor 3 = 560
    Number of faces shared with processor 6 = 10084
    Number of faces shared with processor 11 = 560
    Number of faces shared with processor 22 = 10
    Number of faces shared with processor 23 = 44032
    Number of processor patches = 5
    Number of processor faces = 55246
    Number of boundary faces = 100242

Processor 8
    Number of cells = 1910047
    Number of points = 2010333
    Number of faces shared with processor 4 = 710
    Number of faces shared with processor 9 = 8681
    Number of faces shared with processor 12 = 700
    Number of faces shared with processor 24 = 33176
    Number of processor patches = 4
    Number of processor faces = 43267
    Number of boundary faces = 146349

Processor 9
    Number of cells = 1321946
    Number of points = 1384864
    Number of faces shared with processor 5 = 90
    Number of faces shared with processor 8 = 8681
    Number of faces shared with processor 10 = 10542
    Number of faces shared with processor 13 = 90
    Number of faces shared with processor 24 = 6
    Number of faces shared with processor 25 = 37960
    Number of faces shared with processor 26 = 1
    Number of processor patches = 7
    Number of processor faces = 57370
    Number of boundary faces = 56753

Processor 10
    Number of cells = 1296544
    Number of points = 1356449
    Number of faces shared with processor 6 = 80
    Number of faces shared with processor 9 = 10542
    Number of faces shared with processor 11 = 10645
    Number of faces shared with processor 14 = 90
    Number of faces shared with processor 26 = 38910
    Number of faces shared with processor 27 = 40
    Number of processor patches = 6
    Number of processor faces = 60307
    Number of boundary faces = 47747

Processor 11
    Number of cells = 1878559
    Number of points = 1978551
    Number of faces shared with processor 7 = 560
    Number of faces shared with processor 10 = 10645
    Number of faces shared with processor 15 = 560
    Number of faces shared with processor 26 = 3
    Number of faces shared with processor 27 = 43291
    Number of processor patches = 5
    Number of processor faces = 55059
    Number of boundary faces = 100461

Processor 12
    Number of cells = 1929484
    Number of points = 2031644
    Number of faces shared with processor 8 = 700
    Number of faces shared with processor 13 = 9169
    Number of faces shared with processor 28 = 29665
    Number of faces shared with processor 29 = 11
    Number of processor patches = 4
    Number of processor faces = 39545
    Number of boundary faces = 148299

Processor 13
    Number of cells = 1370038
    Number of points = 1434466
    Number of faces shared with processor 9 = 90
    Number of faces shared with processor 12 = 9169
    Number of faces shared with processor 14 = 10888
    Number of faces shared with processor 28 = 8
    Number of faces shared with processor 29 = 37161
    Number of faces shared with processor 30 = 1
    Number of processor patches = 6
    Number of processor faces = 57317
    Number of boundary faces = 57527

Processor 14
    Number of cells = 1337349
    Number of points = 1398341
    Number of faces shared with processor 10 = 90
    Number of faces shared with processor 13 = 10888
    Number of faces shared with processor 15 = 11031
    Number of faces shared with processor 30 = 38283
    Number of faces shared with processor 31 = 24
    Number of processor patches = 5
    Number of processor faces = 60316
    Number of boundary faces = 47839

Processor 15
    Number of cells = 1916861
    Number of points = 2018223
    Number of faces shared with processor 11 = 560
    Number of faces shared with processor 14 = 11031
    Number of faces shared with processor 30 = 1
    Number of faces shared with processor 31 = 43071
    Number of processor patches = 4
    Number of processor faces = 54663
    Number of boundary faces = 101317

Processor 16
    Number of cells = 1300895
    Number of points = 1403798
    Number of faces shared with processor 0 = 34114
    Number of faces shared with processor 17 = 10797
    Number of faces shared with processor 20 = 1136
    Number of processor patches = 3
    Number of processor faces = 46047
    Number of boundary faces = 78219

Processor 17
    Number of cells = 1943289
    Number of points = 2023152
    Number of faces shared with processor 0 = 4
    Number of faces shared with processor 1 = 38769
    Number of faces shared with processor 2 = 2
    Number of faces shared with processor 16 = 10797
    Number of faces shared with processor 18 = 18303
    Number of faces shared with processor 21 = 144
    Number of processor patches = 6
    Number of processor faces = 68019
    Number of boundary faces = 16135

Processor 18
    Number of cells = 1969627
    Number of points = 2045567
    Number of faces shared with processor 1 = 2
    Number of faces shared with processor 2 = 39581
    Number of faces shared with processor 3 = 1
    Number of faces shared with processor 17 = 18303
    Number of faces shared with processor 19 = 18479
    Number of faces shared with processor 22 = 128
    Number of processor patches = 6
    Number of processor faces = 76494
    Number of boundary faces = 544

Processor 19
    Number of cells = 1341755
    Number of points = 1420503
    Number of faces shared with processor 2 = 3
    Number of faces shared with processor 3 = 43968
    Number of faces shared with processor 18 = 18479
    Number of faces shared with processor 23 = 896
    Number of processor patches = 4
    Number of processor faces = 63346
    Number of boundary faces = 4640

Processor 20
    Number of cells = 1266043
    Number of points = 1366423
    Number of faces shared with processor 4 = 33670
    Number of faces shared with processor 5 = 1
    Number of faces shared with processor 16 = 1136
    Number of faces shared with processor 21 = 10468
    Number of faces shared with processor 24 = 1136
    Number of processor patches = 5
    Number of processor faces = 46411
    Number of boundary faces = 75326

Processor 21
    Number of cells = 1895773
    Number of points = 1974577
    Number of faces shared with processor 4 = 1
    Number of faces shared with processor 5 = 38503
    Number of faces shared with processor 6 = 5
    Number of faces shared with processor 17 = 144
    Number of faces shared with processor 20 = 10468
    Number of faces shared with processor 22 = 18125
    Number of faces shared with processor 25 = 144
    Number of processor patches = 7
    Number of processor faces = 67390
    Number of boundary faces = 16022

Processor 22
    Number of cells = 1925791
    Number of points = 2000643
    Number of faces shared with processor 5 = 2
    Number of faces shared with processor 6 = 39205
    Number of faces shared with processor 7 = 10
    Number of faces shared with processor 18 = 128
    Number of faces shared with processor 21 = 18125
    Number of faces shared with processor 23 = 18048
    Number of faces shared with processor 26 = 128
    Number of processor patches = 7
    Number of processor faces = 75646
    Number of boundary faces = 416

Processor 23
    Number of cells = 1317655
    Number of points = 1395918
    Number of faces shared with processor 6 = 3
    Number of faces shared with processor 7 = 44032
    Number of faces shared with processor 19 = 896
    Number of faces shared with processor 22 = 18048
    Number of faces shared with processor 27 = 896
    Number of processor patches = 5
    Number of processor faces = 63875
    Number of boundary faces = 3744

Processor 24
    Number of cells = 1239550
    Number of points = 1337937
    Number of faces shared with processor 8 = 33176
    Number of faces shared with processor 9 = 6
    Number of faces shared with processor 20 = 1136
    Number of faces shared with processor 25 = 9996
    Number of faces shared with processor 28 = 1120
    Number of processor patches = 5
    Number of processor faces = 45434
    Number of boundary faces = 73611

Processor 25
    Number of cells = 1827308
    Number of points = 1904709
    Number of faces shared with processor 9 = 37960
    Number of faces shared with processor 21 = 144
    Number of faces shared with processor 24 = 9996
    Number of faces shared with processor 26 = 17217
    Number of faces shared with processor 29 = 144
    Number of processor patches = 5
    Number of processor faces = 65461
    Number of boundary faces = 15819

Processor 26
    Number of cells = 1856677
    Number of points = 1930466
    Number of faces shared with processor 9 = 1
    Number of faces shared with processor 10 = 38910
    Number of faces shared with processor 11 = 3
    Number of faces shared with processor 22 = 128
    Number of faces shared with processor 25 = 17217
    Number of faces shared with processor 27 = 17778
    Number of faces shared with processor 30 = 144
    Number of processor patches = 7
    Number of processor faces = 74181
    Number of boundary faces = 436

Processor 27
    Number of cells = 1283641
    Number of points = 1361232
    Number of faces shared with processor 10 = 40
    Number of faces shared with processor 11 = 43291
    Number of faces shared with processor 23 = 896
    Number of faces shared with processor 26 = 17778
    Number of faces shared with processor 31 = 896
    Number of processor patches = 5
    Number of processor faces = 62901
    Number of boundary faces = 3744

Processor 28
    Number of cells = 1207993
    Number of points = 1300727
    Number of faces shared with processor 12 = 29665
    Number of faces shared with processor 13 = 8
    Number of faces shared with processor 24 = 1120
    Number of faces shared with processor 29 = 10333
    Number of processor patches = 4
    Number of processor faces = 41126
    Number of boundary faces = 72566

Processor 29
    Number of cells = 1773479
    Number of points = 1849373
    Number of faces shared with processor 12 = 11
    Number of faces shared with processor 13 = 37161
    Number of faces shared with processor 25 = 144
    Number of faces shared with processor 28 = 10333
    Number of faces shared with processor 30 = 16861
    Number of processor patches = 5
    Number of processor faces = 64510
    Number of boundary faces = 15864

Processor 30
    Number of cells = 1816639
    Number of points = 1888702
    Number of faces shared with processor 13 = 1
    Number of faces shared with processor 14 = 38283
    Number of faces shared with processor 15 = 1
    Number of faces shared with processor 26 = 144
    Number of faces shared with processor 29 = 16861
    Number of faces shared with processor 31 = 17520
    Number of processor patches = 6
    Number of processor faces = 72810
    Number of boundary faces = 612

Processor 31
    Number of cells = 1262429
    Number of points = 1338851
    Number of faces shared with processor 14 = 24
    Number of faces shared with processor 15 = 43071
    Number of faces shared with processor 27 = 896
    Number of faces shared with processor 30 = 17520
    Number of processor patches = 4
    Number of processor faces = 61511
    Number of boundary faces = 4640

Number of processor faces = 926759
Max number of cells = 1969627 (24.91419243219109% above average 1576784)
Max number of processor patches = 7 (33.33333333333334% above average 5.25)
Max number of faces between processors = 76494 (32.06281244638573% above average 57922.4375)

Time = 0

Processor 0: field transfer
--> FOAM Warning : 
    From void* Foam::dlLibraryTable::openLibrary(const Foam::fileName&, bool)
    in file db/dynamicLibrary/dlLibraryTable/dlLibraryTable.C at line 188
    Could not load "libpetscFoam.so"
libpetscFoam.so: cannot open shared object file: No such file or directory
Processor 1: field transfer
--> FOAM Warning : 
    From void* Foam::dlLibraryTable::openLibrary(const Foam::fileName&, bool)
    in file db/dynamicLibrary/dlLibraryTable/dlLibraryTable.C at line 188
    Could not load "libpetscFoam.so"
libpetscFoam.so: cannot open shared object file: No such file or directory
Processor 2: field transfer
--> FOAM Warning : 
    From void* Foam::dlLibraryTable::openLibrary(const Foam::fileName&, bool)
    in file db/dynamicLibrary/dlLibraryTable/dlLibraryTable.C at line 188
    Could not load "libpetscFoam.so"
libpetscFoam.so: cannot open shared object file: No such file or directory
Processor 3: field transfer
--> FOAM Warning : 
    From void* Foam::dlLibraryTable::openLibrary(const Foam::fileName&, bool)
    in file db/dynamicLibrary/dlLibraryTable/dlLibraryTable.C at line 188
    Could not load "libpetscFoam.so"
libpetscFoam.so: cannot open shared object file: No such file or directory
Processor 4: field transfer
--> FOAM Warning : 
    From void* Foam::dlLibraryTable::openLibrary(const Foam::fileName&, bool)
    in file db/dynamicLibrary/dlLibraryTable/dlLibraryTable.C at line 188
    Could not load "libpetscFoam.so"
libpetscFoam.so: cannot open shared object file: No such file or directory
Processor 5: field transfer
--> FOAM Warning : 
    From void* Foam::dlLibraryTable::openLibrary(const Foam::fileName&, bool)
    in file db/dynamicLibrary/dlLibraryTable/dlLibraryTable.C at line 188
    Could not load "libpetscFoam.so"
libpetscFoam.so: cannot open shared object file: No such file or directory
Processor 6: field transfer
--> FOAM Warning : 
    From void* Foam::dlLibraryTable::openLibrary(const Foam::fileName&, bool)
    in file db/dynamicLibrary/dlLibraryTable/dlLibraryTable.C at line 188
    Could not load "libpetscFoam.so"
libpetscFoam.so: cannot open shared object file: No such file or directory
Processor 7: field transfer
--> FOAM Warning : 
    From void* Foam::dlLibraryTable::openLibrary(const Foam::fileName&, bool)
    in file db/dynamicLibrary/dlLibraryTable/dlLibraryTable.C at line 188
    Could not load "libpetscFoam.so"
libpetscFoam.so: cannot open shared object file: No such file or directory
Processor 8: field transfer
--> FOAM Warning : 
    From void* Foam::dlLibraryTable::openLibrary(const Foam::fileName&, bool)
    in file db/dynamicLibrary/dlLibraryTable/dlLibraryTable.C at line 188
    Could not load "libpetscFoam.so"
libpetscFoam.so: cannot open shared object file: No such file or directory
Processor 9: field transfer
--> FOAM Warning : 
    From void* Foam::dlLibraryTable::openLibrary(const Foam::fileName&, bool)
    in file db/dynamicLibrary/dlLibraryTable/dlLibraryTable.C at line 188
    Could not load "libpetscFoam.so"
libpetscFoam.so: cannot open shared object file: No such file or directory
Processor 10: field transfer
--> FOAM Warning : 
    From void* Foam::dlLibraryTable::openLibrary(const Foam::fileName&, bool)
    in file db/dynamicLibrary/dlLibraryTable/dlLibraryTable.C at line 188
    Could not load "libpetscFoam.so"
libpetscFoam.so: cannot open shared object file: No such file or directory
Processor 11: field transfer
--> FOAM Warning : 
    From void* Foam::dlLibraryTable::openLibrary(const Foam::fileName&, bool)
    in file db/dynamicLibrary/dlLibraryTable/dlLibraryTable.C at line 188
    Could not load "libpetscFoam.so"
libpetscFoam.so: cannot open shared object file: No such file or directory
Processor 12: field transfer
--> FOAM Warning : 
    From void* Foam::dlLibraryTable::openLibrary(const Foam::fileName&, bool)
    in file db/dynamicLibrary/dlLibraryTable/dlLibraryTable.C at line 188
    Could not load "libpetscFoam.so"
libpetscFoam.so: cannot open shared object file: No such file or directory
Processor 13: field transfer
--> FOAM Warning : 
    From void* Foam::dlLibraryTable::openLibrary(const Foam::fileName&, bool)
    in file db/dynamicLibrary/dlLibraryTable/dlLibraryTable.C at line 188
    Could not load "libpetscFoam.so"
libpetscFoam.so: cannot open shared object file: No such file or directory
Processor 14: field transfer
--> FOAM Warning : 
    From void* Foam::dlLibraryTable::openLibrary(const Foam::fileName&, bool)
    in file db/dynamicLibrary/dlLibraryTable/dlLibraryTable.C at line 188
    Could not load "libpetscFoam.so"
libpetscFoam.so: cannot open shared object file: No such file or directory
Processor 15: field transfer
--> FOAM Warning : 
    From void* Foam::dlLibraryTable::openLibrary(const Foam::fileName&, bool)
    in file db/dynamicLibrary/dlLibraryTable/dlLibraryTable.C at line 188
    Could not load "libpetscFoam.so"
libpetscFoam.so: cannot open shared object file: No such file or directory
Processor 16: field transfer
--> FOAM Warning : 
    From void* Foam::dlLibraryTable::openLibrary(const Foam::fileName&, bool)
    in file db/dynamicLibrary/dlLibraryTable/dlLibraryTable.C at line 188
    Could not load "libpetscFoam.so"
libpetscFoam.so: cannot open shared object file: No such file or directory
Processor 17: field transfer
--> FOAM Warning : 
    From void* Foam::dlLibraryTable::openLibrary(const Foam::fileName&, bool)
    in file db/dynamicLibrary/dlLibraryTable/dlLibraryTable.C at line 188
    Could not load "libpetscFoam.so"
libpetscFoam.so: cannot open shared object file: No such file or directory
Processor 18: field transfer
--> FOAM Warning : 
    From void* Foam::dlLibraryTable::openLibrary(const Foam::fileName&, bool)
    in file db/dynamicLibrary/dlLibraryTable/dlLibraryTable.C at line 188
    Could not load "libpetscFoam.so"
libpetscFoam.so: cannot open shared object file: No such file or directory
Processor 19: field transfer
--> FOAM Warning : 
    From void* Foam::dlLibraryTable::openLibrary(const Foam::fileName&, bool)
    in file db/dynamicLibrary/dlLibraryTable/dlLibraryTable.C at line 188
    Could not load "libpetscFoam.so"
libpetscFoam.so: cannot open shared object file: No such file or directory
Processor 20: field transfer
--> FOAM Warning : 
    From void* Foam::dlLibraryTable::openLibrary(const Foam::fileName&, bool)
    in file db/dynamicLibrary/dlLibraryTable/dlLibraryTable.C at line 188
    Could not load "libpetscFoam.so"
libpetscFoam.so: cannot open shared object file: No such file or directory
Processor 21: field transfer
--> FOAM Warning : 
    From void* Foam::dlLibraryTable::openLibrary(const Foam::fileName&, bool)
    in file db/dynamicLibrary/dlLibraryTable/dlLibraryTable.C at line 188
    Could not load "libpetscFoam.so"
libpetscFoam.so: cannot open shared object file: No such file or directory
Processor 22: field transfer
--> FOAM Warning : 
    From void* Foam::dlLibraryTable::openLibrary(const Foam::fileName&, bool)
    in file db/dynamicLibrary/dlLibraryTable/dlLibraryTable.C at line 188
    Could not load "libpetscFoam.so"
libpetscFoam.so: cannot open shared object file: No such file or directory
Processor 23: field transfer
--> FOAM Warning : 
    From void* Foam::dlLibraryTable::openLibrary(const Foam::fileName&, bool)
    in file db/dynamicLibrary/dlLibraryTable/dlLibraryTable.C at line 188
    Could not load "libpetscFoam.so"
libpetscFoam.so: cannot open shared object file: No such file or directory
Processor 24: field transfer
--> FOAM Warning : 
    From void* Foam::dlLibraryTable::openLibrary(const Foam::fileName&, bool)
    in file db/dynamicLibrary/dlLibraryTable/dlLibraryTable.C at line 188
    Could not load "libpetscFoam.so"
libpetscFoam.so: cannot open shared object file: No such file or directory
Processor 25: field transfer
--> FOAM Warning : 
    From void* Foam::dlLibraryTable::openLibrary(const Foam::fileName&, bool)
    in file db/dynamicLibrary/dlLibraryTable/dlLibraryTable.C at line 188
    Could not load "libpetscFoam.so"
libpetscFoam.so: cannot open shared object file: No such file or directory
Processor 26: field transfer
--> FOAM Warning : 
    From void* Foam::dlLibraryTable::openLibrary(const Foam::fileName&, bool)
    in file db/dynamicLibrary/dlLibraryTable/dlLibraryTable.C at line 188
    Could not load "libpetscFoam.so"
libpetscFoam.so: cannot open shared object file: No such file or directory
Processor 27: field transfer
--> FOAM Warning : 
    From void* Foam::dlLibraryTable::openLibrary(const Foam::fileName&, bool)
    in file db/dynamicLibrary/dlLibraryTable/dlLibraryTable.C at line 188
    Could not load "libpetscFoam.so"
libpetscFoam.so: cannot open shared object file: No such file or directory
Processor 28: field transfer
--> FOAM Warning : 
    From void* Foam::dlLibraryTable::openLibrary(const Foam::fileName&, bool)
    in file db/dynamicLibrary/dlLibraryTable/dlLibraryTable.C at line 188
    Could not load "libpetscFoam.so"
libpetscFoam.so: cannot open shared object file: No such file or directory
Processor 29: field transfer
--> FOAM Warning : 
    From void* Foam::dlLibraryTable::openLibrary(const Foam::fileName&, bool)
    in file db/dynamicLibrary/dlLibraryTable/dlLibraryTable.C at line 188
    Could not load "libpetscFoam.so"
libpetscFoam.so: cannot open shared object file: No such file or directory
Processor 30: field transfer
--> FOAM Warning : 
    From void* Foam::dlLibraryTable::openLibrary(const Foam::fileName&, bool)
    in file db/dynamicLibrary/dlLibraryTable/dlLibraryTable.C at line 188
    Could not load "libpetscFoam.so"
libpetscFoam.so: cannot open shared object file: No such file or directory
Processor 31: field transfer
--> FOAM Warning : 
    From void* Foam::dlLibraryTable::openLibrary(const Foam::fileName&, bool)
    in file db/dynamicLibrary/dlLibraryTable/dlLibraryTable.C at line 188
    Could not load "libpetscFoam.so"
libpetscFoam.so: cannot open shared object file: No such file or directory

End

