/*---------------------------------------------------------------------------*\
| =========                 |                                                 |
| \\      /  F ield         | OpenFOAM: The Open Source CFD Toolbox           |
|  \\    /   O peration     | Version:  2306                                  |
|   \\  /    A nd           | Website:  www.openfoam.com                      |
|    \\/     M anipulation  |                                                 |
\*---------------------------------------------------------------------------*/
Build  : c423ebec-20231012 OPENFOAM=2306 version=v2306
Arch   : "LSB;label=32;scalar=64"
Exec   : icoFoam -parallel -case /hkfs/work/workspace/scratch/eq4036-l3d/workspace/6b8eaeef61609633feda6a83900a0998/case
Date   : Jan 10 2024
Time   : 22:03:31
Host   : hkn0619.localdomain
PID    : 1574592
I/O    : uncollated
Case   : /hkfs/work/workspace/scratch/eq4036-l3d/workspace/6b8eaeef61609633feda6a83900a0998/case
nProcs : 4
Hosts  :
(
    (hkn0619.localdomain 4)
)
Pstream initialized with:
    floatTransfer      : false
    nProcsSimpleSum    : 0
    nonBlockingExchange: 0 (tuning: 0)
    exchange algorithm : -1
    commsType          : nonBlocking
    polling iterations : 0
trapFpe: Floating point exception trapping enabled (FOAM_SIGFPE).
fileModificationChecking : Monitoring run-time modified files using timeStampMaster (fileModificationSkew 5, maxFileModificationPolls 20)
allowSystemOperations : Allowing user-supplied system call operations

// * * * * * * * * * * * * * * * * * * * * * * * * * * * * * * * * * * * * * //
Create time

--> FOAM Warning : 
    From void* Foam::dlLibraryTable::openLibrary(const Foam::fileName&, bool)
    in file db/dynamicLibrary/dlLibraryTable/dlLibraryTable.C at line 188
    Could not load "libpetscFoam.so"
libpetscFoam.so: cannot open shared object file: No such file or directory
Create mesh for time = 0


PISO: Operating solver in PISO mode

Reading transportProperties

Reading field p

Reading field U

Reading/calculating face flux field phi


Starting time loop

Time = 0.00025

Courant Number mean: 8.24341e-18 max: 2.08167e-14
[INFO] MatrixAssemblyU: 397.647 [ms]
DILUPBiCGStab:  Solving for Ux, Initial residual = 1, Final residual = 0.00897261, No Iterations 5
DILUPBiCGStab:  Solving for Uy:  solution singularity
DILUPBiCGStab:  Solving for Uz:  solution singularity
[INFO] MomentumPredictor: 1420.87 [ms]
[INFO] MatrixAssemblyPI: 358.933 [ms]
[INFO] AdjustPhi: 17.282 [ms]
[INFO] ConstrainPressure: 0.004 [ms]
[INFO] MatrixAssemblyPII: 120.363 [ms]
[OGL LOG][lduLduBase.H:119] Initialising OGL
	OGL commit:  e75313f+
	Branch: dev 
	Build type: Debug
	Ginkgo version: 1.8.0 ( develop)
	Ginkgo commit: sparse-communicator
	MPI is GPU aware: 1
	Forces host buffer based communication: 0
	CPU ranks per GPU: 1
	Matrix format: Ell
	End OGL_INFO
[OGL LOG][Proc: 0]: global_index_init: 0.694 [ms]
[OGL LOG][Proc: 0]p_local_cols: call_init: 0.452 [ms]
[OGL LOG][Proc: 0]p_local_rows: call_init: 0.087 [ms]
[OGL LOG][Proc: 0]p_local_ldu_map: call_init: 0.215 [ms]
[OGL LOG][Proc: 0]p_local_coeffs: call_init: 3.363 [ms]
[OGL LOG][Proc: 0]p_non_local_cols: call_init: 0.233 [ms]
[OGL LOG][Proc: 0]p_non_local_rows: call_init: 0.089 [ms]
[OGL LOG][Proc: 0]p_non_local_ldu_map: call_init: 0.162 [ms]
[OGL LOG][Proc: 0]p_non_local_coeffs: call_init: 0.101 [ms]
[OGL LOG][Proc: 0]p: init_local_sparsity_pattern: 56178.2 [ms]
[OGL LOG][Proc: 0]p: init_non_local_sparsity_pattern: 232.938 [ms]
[OGL LOG][Proc: 0]p: update_local_matrix_data: 103.126 [ms]
[OGL LOG][Proc: 0]p: update_non_local_matrix_data: 1.14 [ms]
[OGL LOG][Proc: 0]device_partition: call_init: 0.191 [ms]
[OGL LOG][Proc: 0]p_matrix: call_init: 193.159 [ms]
[OGL LOG][Proc: 0]p_rhs: call_init: 2.528 [ms]
[OGL LOG][Proc: 0]p_solution: call_init: 2.949 [ms]
[OGL LOG][Proc: 0]p: init_precond: 0.208 [ms]
[OGL LOG][StoppingCriterion.H:239] Creating stopping criterion with minIter 0 frequency 1
[OGL LOG][Proc: 0]p: generate_solver: 0.539 [ms]
[OGL LOG][Proc: 0]p: solve: 1187 [ms]
[OGL LOG][Proc: 0]p: copy_x_back: 5.101 [ms]
[OGL LOG][lduLduBase.H:330] 
Statistics:
	Time per iteration: 735 [mu s]
	Time per residual norm calculation: 1821.000000 [mu s]
	Time per iteration and DOF: 0.091875 [ns]
	Retrieve results bandwidth 3.136000 [GByte/s]
[OGL LOG][Proc: 0]p: solve_multi_gpu: 1394.88 [ms]
nonecudaGKOCG:  Solving for p, Initial residual = 1, Final residual = 9.79351e-05, No Iterations 1613
[INFO] SolveP: 58666.1 [ms]
time step continuity errors : sum local = 7.24164e-09, global = -1.03263e-20, cumulative = -1.03263e-20
[INFO] ContinuityError: 42.489 [ms]
[INFO] CorrectBoundary: 0.528 [ms]
[INFO] PISOStep: 59342.7 [ms]
[INFO] MatrixAssemblyPI: 350.951 [ms]
[INFO] AdjustPhi: 17.216 [ms]
[INFO] ConstrainPressure: 0.002 [ms]
[INFO] MatrixAssemblyPII: 112.907 [ms]
[OGL LOG][Proc: 0]: global_index_init: 0.014 [ms]
[OGL LOG][Proc: 0]p_local_coeffs: call_update: 0.001 [ms]
[OGL LOG][Proc: 0]p_non_local_coeffs: call_update: 0 [ms]
[OGL LOG][Proc: 0]p: update_local_matrix_data: 66.779 [ms]
[OGL LOG][Proc: 0]p: update_non_local_matrix_data: 1.057 [ms]
[OGL LOG][Proc: 0]p: regenerate_distributed_matrix: 185.997 [ms]
[OGL LOG][Proc: 0]p_matrix: call_update: 195.027 [ms]
[OGL LOG][Proc: 0]p_rhs: call_update: 2.097 [ms]
[OGL LOG][Proc: 0]p: init_precond: 0.04 [ms]
[OGL LOG][StoppingCriterion.H:239] Creating stopping criterion with minIter 0 frequency 1
[OGL LOG][Proc: 0]p: generate_solver: 0.026 [ms]
[OGL LOG][Proc: 0]p: solve: 1120.87 [ms]
[OGL LOG][Proc: 0]p: copy_x_back: 5.052 [ms]
[OGL LOG][lduLduBase.H:330] 
Statistics:
	Time per iteration: 704 [mu s]
	Time per residual norm calculation: 138.000000 [mu s]
	Time per iteration and DOF: 0.088000 [ns]
	Retrieve results bandwidth 3.167000 [GByte/s]
[OGL LOG][Proc: 0]p: solve_multi_gpu: 1324.25 [ms]
nonecudaGKOCG:  Solving for p, Initial residual = 0.782728, Final residual = 9.96039e-05, No Iterations 1591
[INFO] SolveP: 1403.9 [ms]
time step continuity errors : sum local = 9.26295e-09, global = -1.73284e-21, cumulative = -1.20591e-20
[INFO] ContinuityError: 39.528 [ms]
[INFO] CorrectBoundary: 0.41 [ms]
[INFO] PISOStep: 2056.27 [ms]
[INFO] TimeStep: 63267.2 [ms]
ExecutionTime = 64.15 s  ClockTime = 65 s

Time = 0.0005

Courant Number mean: 0.0160084 max: 0.412533
[INFO] MatrixAssemblyU: 324.397 [ms]
DILUPBiCGStab:  Solving for Ux, Initial residual = 0.129594, Final residual = 0.00479228, No Iterations 5
DILUPBiCGStab:  Solving for Uy, Initial residual = 0.426507, Final residual = 0.0117086, No Iterations 5
DILUPBiCGStab:  Solving for Uz, Initial residual = 0.994269, Final residual = 0.0302631, No Iterations 5
[INFO] MomentumPredictor: 2702.68 [ms]
[INFO] MatrixAssemblyPI: 375.397 [ms]
[INFO] AdjustPhi: 23.425 [ms]
[INFO] ConstrainPressure: 0.002 [ms]
[INFO] MatrixAssemblyPII: 121.51 [ms]
[OGL LOG][Proc: 0]: global_index_init: 0.105 [ms]
[OGL LOG][Proc: 0]p_local_coeffs: call_update: 0 [ms]
[OGL LOG][Proc: 0]p_non_local_coeffs: call_update: 0 [ms]
[OGL LOG][Proc: 0]p: update_local_matrix_data: 73.948 [ms]
[OGL LOG][Proc: 0]p: update_non_local_matrix_data: 1.049 [ms]
[OGL LOG][Proc: 0]p: regenerate_distributed_matrix: 192.1 [ms]
[OGL LOG][Proc: 0]p_matrix: call_update: 193.552 [ms]
[OGL LOG][Proc: 0]p_rhs: call_update: 5.19 [ms]
[OGL LOG][Proc: 0]p: init_precond: 0.03 [ms]
[OGL LOG][StoppingCriterion.H:239] Creating stopping criterion with minIter 954 frequency 11
[OGL LOG][Proc: 0]p: generate_solver: 0.026 [ms]
[OGL LOG][Proc: 0]p: solve: 935.488 [ms]
[OGL LOG][Proc: 0]p: copy_x_back: 5.057 [ms]
[OGL LOG][lduLduBase.H:330] 
Statistics:
	Time per iteration: 594 [mu s]
	Time per residual norm calculation: 127.000000 [mu s]
	Time per iteration and DOF: 0.074250 [ns]
	Retrieve results bandwidth 3.163000 [GByte/s]
[OGL LOG][Proc: 0]p: solve_multi_gpu: 1140.52 [ms]
nonecudaGKOCG:  Solving for p, Initial residual = 0.817254, Final residual = 9.73755e-05, No Iterations 1574
[INFO] SolveP: 1226.56 [ms]
time step continuity errors : sum local = 1.37225e-08, global = 1.12209e-22, cumulative = -1.19469e-20
[INFO] ContinuityError: 39.443 [ms]
[INFO] CorrectBoundary: 0.391 [ms]
[INFO] PISOStep: 1924.13 [ms]
[INFO] MatrixAssemblyPI: 365.443 [ms]
[INFO] AdjustPhi: 23.4 [ms]
[INFO] ConstrainPressure: 0.003 [ms]
[INFO] MatrixAssemblyPII: 119.24 [ms]
[OGL LOG][Proc: 0]: global_index_init: 0.015 [ms]
[OGL LOG][Proc: 0]p_local_coeffs: call_update: 0 [ms]
[OGL LOG][Proc: 0]p_non_local_coeffs: call_update: 0 [ms]
[OGL LOG][Proc: 0]p: update_local_matrix_data: 68.73 [ms]
[OGL LOG][Proc: 0]p: update_non_local_matrix_data: 1.025 [ms]
[OGL LOG][Proc: 0]p: regenerate_distributed_matrix: 187.953 [ms]
[OGL LOG][Proc: 0]p_matrix: call_update: 189.016 [ms]
[OGL LOG][Proc: 0]p_rhs: call_update: 5.607 [ms]
[OGL LOG][Proc: 0]p: init_precond: 0.03 [ms]
[OGL LOG][StoppingCriterion.H:239] Creating stopping criterion with minIter 944 frequency 12
[OGL LOG][Proc: 0]p: generate_solver: 0.027 [ms]
[OGL LOG][Proc: 0]p: solve: 923.757 [ms]
[OGL LOG][Proc: 0]p: copy_x_back: 4.977 [ms]
[OGL LOG][lduLduBase.H:330] 
Statistics:
	Time per iteration: 587 [mu s]
	Time per residual norm calculation: 130.000000 [mu s]
	Time per iteration and DOF: 0.073375 [ns]
	Retrieve results bandwidth 3.214000 [GByte/s]
[OGL LOG][Proc: 0]p: solve_multi_gpu: 1124.58 [ms]
nonecudaGKOCG:  Solving for p, Initial residual = 0.76147, Final residual = 8.94536e-05, No Iterations 1573
[INFO] SolveP: 1205.96 [ms]
time step continuity errors : sum local = 1.28314e-08, global = 1.33758e-22, cumulative = -1.18131e-20
[INFO] ContinuityError: 39.336 [ms]
[INFO] CorrectBoundary: 0.391 [ms]
[INFO] PISOStep: 1884.88 [ms]
[INFO] TimeStep: 6876.35 [ms]
ExecutionTime = 71.01 s  ClockTime = 72 s

Time = 0.00075

Courant Number mean: 0.0244079 max: 0.471873
[INFO] MatrixAssemblyU: 325.728 [ms]
DILUPBiCGStab:  Solving for Ux, Initial residual = 0.054702, Final residual = 0.00165648, No Iterations 5
DILUPBiCGStab:  Solving for Uy, Initial residual = 0.181535, Final residual = 0.00616411, No Iterations 5
DILUPBiCGStab:  Solving for Uz, Initial residual = 0.816974, Final residual = 0.0222887, No Iterations 5
[INFO] MomentumPredictor: 2700.89 [ms]
[INFO] MatrixAssemblyPI: 377.552 [ms]
[INFO] AdjustPhi: 23.74 [ms]
[INFO] ConstrainPressure: 0.002 [ms]
[INFO] MatrixAssemblyPII: 121.394 [ms]
[OGL LOG][Proc: 0]: global_index_init: 0.117 [ms]
[OGL LOG][Proc: 0]p_local_coeffs: call_update: 0 [ms]
[OGL LOG][Proc: 0]p_non_local_coeffs: call_update: 0 [ms]
[OGL LOG][Proc: 0]p: update_local_matrix_data: 79.36 [ms]
[OGL LOG][Proc: 0]p: update_non_local_matrix_data: 1.024 [ms]
[OGL LOG][Proc: 0]p: regenerate_distributed_matrix: 200.295 [ms]
[OGL LOG][Proc: 0]p_matrix: call_update: 204.586 [ms]
[OGL LOG][Proc: 0]p_rhs: call_update: 7.634 [ms]
[OGL LOG][Proc: 0]p: init_precond: 0.029 [ms]
[OGL LOG][StoppingCriterion.H:239] Creating stopping criterion with minIter 943 frequency 12
[OGL LOG][Proc: 0]p: generate_solver: 0.025 [ms]
[OGL LOG][Proc: 0]p: solve: 977.942 [ms]
[OGL LOG][Proc: 0]p: copy_x_back: 4.977 [ms]
[OGL LOG][lduLduBase.H:330] 
Statistics:
	Time per iteration: 616 [mu s]
	Time per residual norm calculation: 127.000000 [mu s]
	Time per iteration and DOF: 0.077000 [ns]
	Retrieve results bandwidth 3.214000 [GByte/s]
[OGL LOG][Proc: 0]p: solve_multi_gpu: 1196.33 [ms]
nonecudaGKOCG:  Solving for p, Initial residual = 0.845117, Final residual = 6.02365e-05, No Iterations 1585
[INFO] SolveP: 1287.9 [ms]
time step continuity errors : sum local = 7.87822e-09, global = -1.84668e-21, cumulative = -1.36598e-20
[INFO] ContinuityError: 39.121 [ms]
[INFO] CorrectBoundary: 0.422 [ms]
[INFO] PISOStep: 1980.69 [ms]
[INFO] MatrixAssemblyPI: 345.912 [ms]
[INFO] AdjustPhi: 17.075 [ms]
[INFO] ConstrainPressure: 0.002 [ms]
[INFO] MatrixAssemblyPII: 112.142 [ms]
[OGL LOG][Proc: 0]: global_index_init: 0.041 [ms]
[OGL LOG][Proc: 0]p_local_coeffs: call_update: 0 [ms]
[OGL LOG][Proc: 0]p_non_local_coeffs: call_update: 0 [ms]
[OGL LOG][Proc: 0]p: update_local_matrix_data: 62.695 [ms]
[OGL LOG][Proc: 0]p: update_non_local_matrix_data: 1.03 [ms]
[OGL LOG][Proc: 0]p: regenerate_distributed_matrix: 184.77 [ms]
[OGL LOG][Proc: 0]p_matrix: call_update: 185.783 [ms]
[OGL LOG][Proc: 0]p_rhs: call_update: 1.819 [ms]
[OGL LOG][Proc: 0]p: init_precond: 0.03 [ms]
[OGL LOG][StoppingCriterion.H:239] Creating stopping criterion with minIter 951 frequency 12
[OGL LOG][Proc: 0]p: generate_solver: 0.038 [ms]
[OGL LOG][Proc: 0]p: solve: 908.731 [ms]
[OGL LOG][Proc: 0]p: copy_x_back: 5.082 [ms]
[OGL LOG][lduLduBase.H:330] 
Statistics:
	Time per iteration: 577 [mu s]
	Time per residual norm calculation: 126.000000 [mu s]
	Time per iteration and DOF: 0.072125 [ns]
	Retrieve results bandwidth 3.148000 [GByte/s]
[OGL LOG][Proc: 0]p: solve_multi_gpu: 1102.67 [ms]
nonecudaGKOCG:  Solving for p, Initial residual = 0.813516, Final residual = 9.74737e-05, No Iterations 1573
[INFO] SolveP: 1178 [ms]
time step continuity errors : sum local = 1.24736e-08, global = 1.35913e-21, cumulative = -1.23007e-20
[INFO] ContinuityError: 39.357 [ms]
[INFO] CorrectBoundary: 0.394 [ms]
[INFO] PISOStep: 1823.56 [ms]
[INFO] TimeStep: 6870.72 [ms]
ExecutionTime = 77.81 s  ClockTime = 79 s

Time = 0.001

Courant Number mean: 0.0292899 max: 0.467811
[INFO] MatrixAssemblyU: 323.254 [ms]
DILUPBiCGStab:  Solving for Ux, Initial residual = 0.0345697, Final residual = 0.00111807, No Iterations 5
DILUPBiCGStab:  Solving for Uy, Initial residual = 0.128623, Final residual = 0.00393429, No Iterations 5
DILUPBiCGStab:  Solving for Uz, Initial residual = 0.60165, Final residual = 0.0141255, No Iterations 5
[INFO] MomentumPredictor: 2680.97 [ms]
[INFO] MatrixAssemblyPI: 376.606 [ms]
[INFO] AdjustPhi: 23.433 [ms]
[INFO] ConstrainPressure: 0.002 [ms]
[INFO] MatrixAssemblyPII: 119.425 [ms]
[OGL LOG][Proc: 0]: global_index_init: 0.055 [ms]
[OGL LOG][Proc: 0]p_local_coeffs: call_update: 0 [ms]
[OGL LOG][Proc: 0]p_non_local_coeffs: call_update: 0 [ms]
[OGL LOG][Proc: 0]p: update_local_matrix_data: 70.586 [ms]
[OGL LOG][Proc: 0]p: update_non_local_matrix_data: 0.992 [ms]
[OGL LOG][Proc: 0]p: regenerate_distributed_matrix: 191.464 [ms]
[OGL LOG][Proc: 0]p_matrix: call_update: 192.419 [ms]
[OGL LOG][Proc: 0]p_rhs: call_update: 1.881 [ms]
[OGL LOG][Proc: 0]p: init_precond: 0.03 [ms]
[OGL LOG][StoppingCriterion.H:239] Creating stopping criterion with minIter 943 frequency 12
[OGL LOG][Proc: 0]p: generate_solver: 0.03 [ms]
[OGL LOG][Proc: 0]p: solve: 582.421 [ms]
[OGL LOG][Proc: 0]p: copy_x_back: 5.139 [ms]
[OGL LOG][lduLduBase.H:330] 
Statistics:
	Time per iteration: 613 [mu s]
	Time per residual norm calculation: 146.000000 [mu s]
	Time per iteration and DOF: 0.076625 [ns]
	Retrieve results bandwidth 3.113000 [GByte/s]
[OGL LOG][Proc: 0]p: solve_multi_gpu: 783.108 [ms]
nonecudaGKOCG:  Solving for p, Initial residual = 0.763838, Final residual = 4.97546e-05, No Iterations 949
[INFO] SolveP: 866.485 [ms]
time step continuity errors : sum local = 6.35571e-09, global = 1.36666e-22, cumulative = -1.2164e-20
[INFO] ContinuityError: 39.277 [ms]
[INFO] CorrectBoundary: 0.391 [ms]
[INFO] PISOStep: 1549.72 [ms]
[INFO] MatrixAssemblyPI: 346.175 [ms]
[INFO] AdjustPhi: 17.148 [ms]
[INFO] ConstrainPressure: 0.002 [ms]
[INFO] MatrixAssemblyPII: 111.936 [ms]
[OGL LOG][Proc: 0]: global_index_init: 0.015 [ms]
[OGL LOG][Proc: 0]p_local_coeffs: call_update: 0 [ms]
[OGL LOG][Proc: 0]p_non_local_coeffs: call_update: 0 [ms]
[OGL LOG][Proc: 0]p: update_local_matrix_data: 64.617 [ms]
[OGL LOG][Proc: 0]p: update_non_local_matrix_data: 1.005 [ms]
[OGL LOG][Proc: 0]p: regenerate_distributed_matrix: 182.94 [ms]
[OGL LOG][Proc: 0]p_matrix: call_update: 183.92 [ms]
[OGL LOG][Proc: 0]p_rhs: call_update: 1.816 [ms]
[OGL LOG][Proc: 0]p: init_precond: 0.034 [ms]
[OGL LOG][StoppingCriterion.H:239] Creating stopping criterion with minIter 569 frequency 9
[OGL LOG][Proc: 0]p: generate_solver: 0.031 [ms]
[OGL LOG][Proc: 0]p: solve: 476.703 [ms]
[OGL LOG][Proc: 0]p: copy_x_back: 5.181 [ms]
[OGL LOG][lduLduBase.H:330] 
Statistics:
	Time per iteration: 622 [mu s]
	Time per residual norm calculation: 126.000000 [mu s]
	Time per iteration and DOF: 0.077750 [ns]
	Retrieve results bandwidth 3.088000 [GByte/s]
[OGL LOG][Proc: 0]p: solve_multi_gpu: 668.878 [ms]
nonecudaGKOCG:  Solving for p, Initial residual = 0.701993, Final residual = 8.45749e-05, No Iterations 766
[INFO] SolveP: 746.123 [ms]
time step continuity errors : sum local = 1.0299e-08, global = 5.12335e-23, cumulative = -1.21128e-20
[INFO] ContinuityError: 39.482 [ms]
[INFO] CorrectBoundary: 0.402 [ms]
[INFO] PISOStep: 1385.68 [ms]
[INFO] TimeStep: 5979.48 [ms]
ExecutionTime = 83.78 s  ClockTime = 85 s

Time = 0.00125

Courant Number mean: 0.033439 max: 0.47282
[INFO] MatrixAssemblyU: 314.567 [ms]
DILUPBiCGStab:  Solving for Ux, Initial residual = 0.0270263, Final residual = 0.000803668, No Iterations 5
DILUPBiCGStab:  Solving for Uy, Initial residual = 0.0807785, Final residual = 0.00307351, No Iterations 5
DILUPBiCGStab:  Solving for Uz, Initial residual = 0.448831, Final residual = 0.0105636, No Iterations 5
[INFO] MomentumPredictor: 2685.86 [ms]
[INFO] MatrixAssemblyPI: 362.931 [ms]
[INFO] AdjustPhi: 17.116 [ms]
[INFO] ConstrainPressure: 0.002 [ms]
[INFO] MatrixAssemblyPII: 112.447 [ms]
[OGL LOG][Proc: 0]: global_index_init: 0.031 [ms]
[OGL LOG][Proc: 0]p_local_coeffs: call_update: 0 [ms]
[OGL LOG][Proc: 0]p_non_local_coeffs: call_update: 0 [ms]
[OGL LOG][Proc: 0]p: update_local_matrix_data: 65.139 [ms]
[OGL LOG][Proc: 0]p: update_non_local_matrix_data: 0.968 [ms]
[OGL LOG][Proc: 0]p: regenerate_distributed_matrix: 182.275 [ms]
[OGL LOG][Proc: 0]p_matrix: call_update: 183.192 [ms]
[OGL LOG][Proc: 0]p_rhs: call_update: 1.891 [ms]
[OGL LOG][Proc: 0]p: init_precond: 0.031 [ms]
[OGL LOG][StoppingCriterion.H:239] Creating stopping criterion with minIter 459 frequency 8
[OGL LOG][Proc: 0]p: generate_solver: 0.026 [ms]
[OGL LOG][Proc: 0]p: solve: 492.653 [ms]
[OGL LOG][Proc: 0]p: copy_x_back: 4.888 [ms]
[OGL LOG][lduLduBase.H:330] 
Statistics:
	Time per iteration: 661 [mu s]
	Time per residual norm calculation: 128.000000 [mu s]
	Time per iteration and DOF: 0.082625 [ns]
	Retrieve results bandwidth 3.273000 [GByte/s]
[OGL LOG][Proc: 0]p: solve_multi_gpu: 683.851 [ms]
nonecudaGKOCG:  Solving for p, Initial residual = 0.769652, Final residual = 9.29377e-05, No Iterations 745
[INFO] SolveP: 762.592 [ms]
time step continuity errors : sum local = 9.30468e-09, global = 2.36936e-22, cumulative = -1.18759e-20
[INFO] ContinuityError: 39.174 [ms]
[INFO] CorrectBoundary: 0.474 [ms]
[INFO] PISOStep: 1436.37 [ms]
[INFO] MatrixAssemblyPI: 366.418 [ms]
[INFO] AdjustPhi: 23.446 [ms]
[INFO] ConstrainPressure: 0.002 [ms]
[INFO] MatrixAssemblyPII: 122.3 [ms]
[OGL LOG][Proc: 0]: global_index_init: 0.217 [ms]
[OGL LOG][Proc: 0]p_local_coeffs: call_update: 0 [ms]
[OGL LOG][Proc: 0]p_non_local_coeffs: call_update: 0 [ms]
[OGL LOG][Proc: 0]p: update_local_matrix_data: 73.084 [ms]
[OGL LOG][Proc: 0]p: update_non_local_matrix_data: 1.018 [ms]
[OGL LOG][Proc: 0]p: regenerate_distributed_matrix: 191.6 [ms]
[OGL LOG][Proc: 0]p_matrix: call_update: 192.799 [ms]
[OGL LOG][Proc: 0]p_rhs: call_update: 5.174 [ms]
[OGL LOG][Proc: 0]p: init_precond: 0.029 [ms]
[OGL LOG][StoppingCriterion.H:239] Creating stopping criterion with minIter 447 frequency 7
[OGL LOG][Proc: 0]p: generate_solver: 0.026 [ms]
[OGL LOG][Proc: 0]p: solve: 482.994 [ms]
[OGL LOG][Proc: 0]p: copy_x_back: 5.229 [ms]
[OGL LOG][lduLduBase.H:330] 
Statistics:
	Time per iteration: 650 [mu s]
	Time per residual norm calculation: 127.000000 [mu s]
	Time per iteration and DOF: 0.081250 [ns]
	Retrieve results bandwidth 3.059000 [GByte/s]
[OGL LOG][Proc: 0]p: solve_multi_gpu: 687.372 [ms]
nonecudaGKOCG:  Solving for p, Initial residual = 0.719471, Final residual = 9.50152e-05, No Iterations 743
[INFO] SolveP: 772.791 [ms]
time step continuity errors : sum local = 9.25783e-09, global = 9.47377e-22, cumulative = -1.09285e-20
[INFO] ContinuityError: 39.207 [ms]
[INFO] CorrectBoundary: 0.421 [ms]
[INFO] PISOStep: 1462.53 [ms]
[INFO] TimeStep: 5939.22 [ms]
ExecutionTime = 89.7 s  ClockTime = 91 s

Time = 0.0015

Courant Number mean: 0.0367439 max: 0.475584
[INFO] MatrixAssemblyU: 322.337 [ms]
DILUPBiCGStab:  Solving for Ux, Initial residual = 0.0203088, Final residual = 0.000578143, No Iterations 5
DILUPBiCGStab:  Solving for Uy, Initial residual = 0.0653835, Final residual = 0.00203102, No Iterations 5
DILUPBiCGStab:  Solving for Uz, Initial residual = 0.325302, Final residual = 0.00753173, No Iterations 5
[INFO] MomentumPredictor: 2697.99 [ms]
[INFO] MatrixAssemblyPI: 379.514 [ms]
[INFO] AdjustPhi: 23.314 [ms]
[INFO] ConstrainPressure: 0.002 [ms]
[INFO] MatrixAssemblyPII: 119.262 [ms]
[OGL LOG][Proc: 0]: global_index_init: 0.015 [ms]
[OGL LOG][Proc: 0]p_local_coeffs: call_update: 0 [ms]
[OGL LOG][Proc: 0]p_non_local_coeffs: call_update: 0 [ms]
[OGL LOG][Proc: 0]p: update_local_matrix_data: 70.422 [ms]
[OGL LOG][Proc: 0]p: update_non_local_matrix_data: 1.041 [ms]
[OGL LOG][Proc: 0]p: regenerate_distributed_matrix: 190.267 [ms]
[OGL LOG][Proc: 0]p_matrix: call_update: 191.558 [ms]
[OGL LOG][Proc: 0]p_rhs: call_update: 3.025 [ms]
[OGL LOG][Proc: 0]p: init_precond: 0.03 [ms]
[OGL LOG][StoppingCriterion.H:239] Creating stopping criterion with minIter 445 frequency 7
[OGL LOG][Proc: 0]p: generate_solver: 0.028 [ms]
[OGL LOG][Proc: 0]p: solve: 493.77 [ms]
[OGL LOG][Proc: 0]p: copy_x_back: 5.014 [ms]
[OGL LOG][lduLduBase.H:330] 
Statistics:
	Time per iteration: 658 [mu s]
	Time per residual norm calculation: 125.000000 [mu s]
	Time per iteration and DOF: 0.082250 [ns]
	Retrieve results bandwidth 3.191000 [GByte/s]
[OGL LOG][Proc: 0]p: solve_multi_gpu: 694.625 [ms]
nonecudaGKOCG:  Solving for p, Initial residual = 0.674175, Final residual = 9.39374e-05, No Iterations 750
[INFO] SolveP: 781.202 [ms]
time step continuity errors : sum local = 9.49596e-09, global = 8.81309e-22, cumulative = -1.00472e-20
[INFO] ContinuityError: 39.031 [ms]
[INFO] CorrectBoundary: 0.404 [ms]
[INFO] PISOStep: 1478.82 [ms]
[INFO] MatrixAssemblyPI: 366.286 [ms]
[INFO] AdjustPhi: 23.503 [ms]
[INFO] ConstrainPressure: 0.003 [ms]
[INFO] MatrixAssemblyPII: 121.01 [ms]
[OGL LOG][Proc: 0]: global_index_init: 0.015 [ms]
[OGL LOG][Proc: 0]p_local_coeffs: call_update: 0 [ms]
[OGL LOG][Proc: 0]p_non_local_coeffs: call_update: 0 [ms]
[OGL LOG][Proc: 0]p: update_local_matrix_data: 72.617 [ms]
[OGL LOG][Proc: 0]p: update_non_local_matrix_data: 0.988 [ms]
[OGL LOG][Proc: 0]p: regenerate_distributed_matrix: 191.251 [ms]
[OGL LOG][Proc: 0]p_matrix: call_update: 192.545 [ms]
[OGL LOG][Proc: 0]p_rhs: call_update: 5.104 [ms]
[OGL LOG][Proc: 0]p: init_precond: 0.03 [ms]
[OGL LOG][StoppingCriterion.H:239] Creating stopping criterion with minIter 450 frequency 7
[OGL LOG][Proc: 0]p: generate_solver: 0.026 [ms]
[OGL LOG][Proc: 0]p: solve: 482.38 [ms]
[OGL LOG][Proc: 0]p: copy_x_back: 6.099 [ms]
[OGL LOG][lduLduBase.H:330] 
Statistics:
	Time per iteration: 649 [mu s]
	Time per residual norm calculation: 132.000000 [mu s]
	Time per iteration and DOF: 0.081125 [ns]
	Retrieve results bandwidth 2.623000 [GByte/s]
[OGL LOG][Proc: 0]p: solve_multi_gpu: 687.765 [ms]
nonecudaGKOCG:  Solving for p, Initial residual = 0.614078, Final residual = 8.7509e-05, No Iterations 743
[INFO] SolveP: 772.16 [ms]
time step continuity errors : sum local = 8.26009e-09, global = 1.35296e-22, cumulative = -9.91188e-21
[INFO] ContinuityError: 39.853 [ms]
[INFO] CorrectBoundary: 0.523 [ms]
[INFO] PISOStep: 1461.96 [ms]
[INFO] TimeStep: 6000.98 [ms]
ExecutionTime = 95.69 s  ClockTime = 97 s

Time = 0.00175

Courant Number mean: 0.0396611 max: 0.477536
[INFO] MatrixAssemblyU: 324.765 [ms]
DILUPBiCGStab:  Solving for Ux, Initial residual = 0.0173434, Final residual = 0.000456513, No Iterations 5
DILUPBiCGStab:  Solving for Uy, Initial residual = 0.0485637, Final residual = 0.0014881, No Iterations 5
DILUPBiCGStab:  Solving for Uz, Initial residual = 0.250604, Final residual = 0.00691142, No Iterations 5
[INFO] MomentumPredictor: 2692.44 [ms]
[INFO] MatrixAssemblyPI: 377.062 [ms]
[INFO] AdjustPhi: 23.353 [ms]
[INFO] ConstrainPressure: 0.002 [ms]
[INFO] MatrixAssemblyPII: 119.271 [ms]
[OGL LOG][Proc: 0]: global_index_init: 0.045 [ms]
[OGL LOG][Proc: 0]p_local_coeffs: call_update: 0 [ms]
[OGL LOG][Proc: 0]p_non_local_coeffs: call_update: 0 [ms]
[OGL LOG][Proc: 0]p: update_local_matrix_data: 70.549 [ms]
[OGL LOG][Proc: 0]p: update_non_local_matrix_data: 1.052 [ms]
[OGL LOG][Proc: 0]p: regenerate_distributed_matrix: 190.777 [ms]
[OGL LOG][Proc: 0]p_matrix: call_update: 192.076 [ms]
[OGL LOG][Proc: 0]p_rhs: call_update: 3.119 [ms]
[OGL LOG][Proc: 0]p: init_precond: 0.029 [ms]
[OGL LOG][StoppingCriterion.H:239] Creating stopping criterion with minIter 445 frequency 8
[OGL LOG][Proc: 0]p: generate_solver: 0.028 [ms]
[OGL LOG][Proc: 0]p: solve: 919.814 [ms]
[OGL LOG][Proc: 0]p: copy_x_back: 4.969 [ms]
[OGL LOG][lduLduBase.H:330] 
Statistics:
	Time per iteration: 604 [mu s]
	Time per residual norm calculation: 125.000000 [mu s]
	Time per iteration and DOF: 0.075500 [ns]
	Retrieve results bandwidth 3.219000 [GByte/s]
[OGL LOG][Proc: 0]p: solve_multi_gpu: 1121.22 [ms]
nonecudaGKOCG:  Solving for p, Initial residual = 0.669389, Final residual = 8.82506e-05, No Iterations 1521
[INFO] SolveP: 1207.07 [ms]
time step continuity errors : sum local = 6.66368e-09, global = -1.42125e-21, cumulative = -1.13331e-20
[INFO] ContinuityError: 38.479 [ms]
[INFO] CorrectBoundary: 0.405 [ms]
[INFO] PISOStep: 1901.36 [ms]
[INFO] MatrixAssemblyPI: 366.35 [ms]
[INFO] AdjustPhi: 23.373 [ms]
[INFO] ConstrainPressure: 0.003 [ms]
[INFO] MatrixAssemblyPII: 121.039 [ms]
[OGL LOG][Proc: 0]: global_index_init: 0.259 [ms]
[OGL LOG][Proc: 0]p_local_coeffs: call_update: 0 [ms]
[OGL LOG][Proc: 0]p_non_local_coeffs: call_update: 0 [ms]
[OGL LOG][Proc: 0]p: update_local_matrix_data: 72.659 [ms]
[OGL LOG][Proc: 0]p: update_non_local_matrix_data: 0.951 [ms]
[OGL LOG][Proc: 0]p: regenerate_distributed_matrix: 190.94 [ms]
[OGL LOG][Proc: 0]p_matrix: call_update: 192.109 [ms]
[OGL LOG][Proc: 0]p_rhs: call_update: 5.187 [ms]
[OGL LOG][Proc: 0]p: init_precond: 0.029 [ms]
[OGL LOG][StoppingCriterion.H:239] Creating stopping criterion with minIter 912 frequency 12
[OGL LOG][Proc: 0]p: generate_solver: 0.032 [ms]
[OGL LOG][Proc: 0]p: solve: 900.326 [ms]
[OGL LOG][Proc: 0]p: copy_x_back: 5.376 [ms]
[OGL LOG][lduLduBase.H:330] 
Statistics:
	Time per iteration: 590 [mu s]
	Time per residual norm calculation: 127.000000 [mu s]
	Time per iteration and DOF: 0.073750 [ns]
	Retrieve results bandwidth 2.976000 [GByte/s]
[OGL LOG][Proc: 0]p: solve_multi_gpu: 1104.25 [ms]
nonecudaGKOCG:  Solving for p, Initial residual = 0.610371, Final residual = 7.69421e-05, No Iterations 1525
[INFO] SolveP: 1190.58 [ms]
time step continuity errors : sum local = 5.78104e-09, global = -1.77982e-22, cumulative = -1.15111e-20
[INFO] ContinuityError: 39.342 [ms]
[INFO] CorrectBoundary: 0.383 [ms]
[INFO] PISOStep: 1881.15 [ms]
[INFO] TimeStep: 6839.82 [ms]
ExecutionTime = 102.51 s  ClockTime = 104 s

Time = 0.002

Courant Number mean: 0.0421872 max: 0.47923
[INFO] MatrixAssemblyU: 322.044 [ms]
DILUPBiCGStab:  Solving for Ux, Initial residual = 0.0142032, Final residual = 0.000349972, No Iterations 5
DILUPBiCGStab:  Solving for Uy, Initial residual = 0.041404, Final residual = 0.00112857, No Iterations 5
DILUPBiCGStab:  Solving for Uz, Initial residual = 0.194889, Final residual = 0.00519503, No Iterations 5
[INFO] MomentumPredictor: 2700.24 [ms]
[INFO] MatrixAssemblyPI: 373.658 [ms]
[INFO] AdjustPhi: 22.832 [ms]
[INFO] ConstrainPressure: 0.002 [ms]
[INFO] MatrixAssemblyPII: 118.824 [ms]
[OGL LOG][Proc: 0]: global_index_init: 0.014 [ms]
[OGL LOG][Proc: 0]p_local_coeffs: call_update: 0 [ms]
[OGL LOG][Proc: 0]p_non_local_coeffs: call_update: 0 [ms]
[OGL LOG][Proc: 0]p: update_local_matrix_data: 70.091 [ms]
[OGL LOG][Proc: 0]p: update_non_local_matrix_data: 1.04 [ms]
[OGL LOG][Proc: 0]p: regenerate_distributed_matrix: 190.087 [ms]
[OGL LOG][Proc: 0]p_matrix: call_update: 191.239 [ms]
[OGL LOG][Proc: 0]p_rhs: call_update: 2.717 [ms]
[OGL LOG][Proc: 0]p: init_precond: 0.036 [ms]
[OGL LOG][StoppingCriterion.H:239] Creating stopping criterion with minIter 915 frequency 12
[OGL LOG][Proc: 0]p: generate_solver: 0.031 [ms]
[OGL LOG][Proc: 0]p: solve: 909.914 [ms]
[OGL LOG][Proc: 0]p: copy_x_back: 4.706 [ms]
[OGL LOG][lduLduBase.H:330] 
Statistics:
	Time per iteration: 596 [mu s]
	Time per residual norm calculation: 126.000000 [mu s]
	Time per iteration and DOF: 0.074500 [ns]
	Retrieve results bandwidth 3.399000 [GByte/s]
[OGL LOG][Proc: 0]p: solve_multi_gpu: 1109.73 [ms]
nonecudaGKOCG:  Solving for p, Initial residual = 0.576927, Final residual = 8.79986e-05, No Iterations 1525
[INFO] SolveP: 1195.39 [ms]
time step continuity errors : sum local = 6.33363e-09, global = -3.88169e-21, cumulative = -1.53928e-20
[INFO] ContinuityError: 38.176 [ms]
[INFO] CorrectBoundary: 0.407 [ms]
[INFO] PISOStep: 1883.72 [ms]
[INFO] MatrixAssemblyPI: 365.853 [ms]
[INFO] AdjustPhi: 22.982 [ms]
[INFO] ConstrainPressure: 0.002 [ms]
[INFO] MatrixAssemblyPII: 119.946 [ms]
[OGL LOG][Proc: 0]: global_index_init: 0.273 [ms]
[OGL LOG][Proc: 0]p_local_coeffs: call_update: 0 [ms]
[OGL LOG][Proc: 0]p_non_local_coeffs: call_update: 0 [ms]
[OGL LOG][Proc: 0]p: update_local_matrix_data: 72.038 [ms]
[OGL LOG][Proc: 0]p: update_non_local_matrix_data: 1.086 [ms]
[OGL LOG][Proc: 0]p: regenerate_distributed_matrix: 190.999 [ms]
[OGL LOG][Proc: 0]p_matrix: call_update: 192.067 [ms]
[OGL LOG][Proc: 0]p_rhs: call_update: 5.189 [ms]
[OGL LOG][Proc: 0]p: init_precond: 0.029 [ms]
[OGL LOG][StoppingCriterion.H:239] Creating stopping criterion with minIter 915 frequency 12
[OGL LOG][Proc: 0]p: generate_solver: 0.027 [ms]
[OGL LOG][Proc: 0]p: solve: 897.049 [ms]
[OGL LOG][Proc: 0]p: copy_x_back: 5.119 [ms]
[OGL LOG][lduLduBase.H:330] 
Statistics:
	Time per iteration: 588 [mu s]
	Time per residual norm calculation: 126.000000 [mu s]
	Time per iteration and DOF: 0.073500 [ns]
	Retrieve results bandwidth 3.125000 [GByte/s]
[OGL LOG][Proc: 0]p: solve_multi_gpu: 1100.64 [ms]
nonecudaGKOCG:  Solving for p, Initial residual = 0.519835, Final residual = 8.48994e-05, No Iterations 1525
[INFO] SolveP: 1185.09 [ms]
time step continuity errors : sum local = 6.09632e-09, global = 1.52706e-21, cumulative = -1.38657e-20
[INFO] ContinuityError: 39.235 [ms]
[INFO] CorrectBoundary: 0.391 [ms]
[INFO] PISOStep: 1870 [ms]
[INFO] TimeStep: 6815.88 [ms]
ExecutionTime = 109.3 s  ClockTime = 110 s

Time = 0.00225

Courant Number mean: 0.0444723 max: 0.480385
[INFO] MatrixAssemblyU: 322.725 [ms]
DILUPBiCGStab:  Solving for Ux, Initial residual = 0.012502, Final residual = 0.00028669, No Iterations 5
DILUPBiCGStab:  Solving for Uy, Initial residual = 0.0332808, Final residual = 0.000787484, No Iterations 5
DILUPBiCGStab:  Solving for Uz, Initial residual = 0.156687, Final residual = 0.00491243, No Iterations 5
[INFO] MomentumPredictor: 2689.33 [ms]
[INFO] MatrixAssemblyPI: 374.642 [ms]
[INFO] AdjustPhi: 22.866 [ms]
[INFO] ConstrainPressure: 0.002 [ms]
[INFO] MatrixAssemblyPII: 118.231 [ms]
[OGL LOG][Proc: 0]: global_index_init: 0.055 [ms]
[OGL LOG][Proc: 0]p_local_coeffs: call_update: 0 [ms]
[OGL LOG][Proc: 0]p_non_local_coeffs: call_update: 0 [ms]
[OGL LOG][Proc: 0]p: update_local_matrix_data: 70.741 [ms]
[OGL LOG][Proc: 0]p: update_non_local_matrix_data: 0.99 [ms]
[OGL LOG][Proc: 0]p: regenerate_distributed_matrix: 189.972 [ms]
[OGL LOG][Proc: 0]p_matrix: call_update: 191.199 [ms]
[OGL LOG][Proc: 0]p_rhs: call_update: 2.827 [ms]
[OGL LOG][Proc: 0]p: init_precond: 0.031 [ms]
[OGL LOG][StoppingCriterion.H:239] Creating stopping criterion with minIter 915 frequency 12
[OGL LOG][Proc: 0]p: generate_solver: 0.028 [ms]
[OGL LOG][Proc: 0]p: solve: 896.51 [ms]
[OGL LOG][Proc: 0]p: copy_x_back: 4.683 [ms]
[OGL LOG][lduLduBase.H:330] 
Statistics:
	Time per iteration: 597 [mu s]
	Time per residual norm calculation: 135.000000 [mu s]
	Time per iteration and DOF: 0.074625 [ns]
	Retrieve results bandwidth 3.416000 [GByte/s]
[OGL LOG][Proc: 0]p: solve_multi_gpu: 1096.32 [ms]
nonecudaGKOCG:  Solving for p, Initial residual = 0.563059, Final residual = 9.7943e-05, No Iterations 1501
[INFO] SolveP: 1182.4 [ms]
time step continuity errors : sum local = 6.11263e-09, global = -1.641e-21, cumulative = -1.55067e-20
[INFO] ContinuityError: 38.247 [ms]
[INFO] CorrectBoundary: 0.417 [ms]
[INFO] PISOStep: 1871.59 [ms]
[INFO] MatrixAssemblyPI: 365.286 [ms]
[INFO] AdjustPhi: 23.216 [ms]
[INFO] ConstrainPressure: 0.002 [ms]
[INFO] MatrixAssemblyPII: 120.235 [ms]
[OGL LOG][Proc: 0]: global_index_init: 0.281 [ms]
[OGL LOG][Proc: 0]p_local_coeffs: call_update: 0 [ms]
[OGL LOG][Proc: 0]p_non_local_coeffs: call_update: 0 [ms]
[OGL LOG][Proc: 0]p: update_local_matrix_data: 72.151 [ms]
[OGL LOG][Proc: 0]p: update_non_local_matrix_data: 0.976 [ms]
[OGL LOG][Proc: 0]p: regenerate_distributed_matrix: 190.706 [ms]
[OGL LOG][Proc: 0]p_matrix: call_update: 191.852 [ms]
[OGL LOG][Proc: 0]p_rhs: call_update: 5.21 [ms]
[OGL LOG][Proc: 0]p: init_precond: 0.03 [ms]
[OGL LOG][StoppingCriterion.H:239] Creating stopping criterion with minIter 900 frequency 12
[OGL LOG][Proc: 0]p: generate_solver: 0.026 [ms]
[OGL LOG][Proc: 0]p: solve: 883.895 [ms]
[OGL LOG][Proc: 0]p: copy_x_back: 5.132 [ms]
[OGL LOG][lduLduBase.H:330] 
Statistics:
	Time per iteration: 588 [mu s]
	Time per residual norm calculation: 125.000000 [mu s]
	Time per iteration and DOF: 0.073500 [ns]
	Retrieve results bandwidth 3.117000 [GByte/s]
[OGL LOG][Proc: 0]p: solve_multi_gpu: 1087.3 [ms]
nonecudaGKOCG:  Solving for p, Initial residual = 0.502848, Final residual = 9.25838e-05, No Iterations 1501
[INFO] SolveP: 1171.88 [ms]
time step continuity errors : sum local = 5.77772e-09, global = -3.29224e-22, cumulative = -1.5836e-20
[INFO] ContinuityError: 39.088 [ms]
[INFO] CorrectBoundary: 0.526 [ms]
[INFO] PISOStep: 1857.06 [ms]
[INFO] TimeStep: 6784.7 [ms]
ExecutionTime = 116.07 s  ClockTime = 117 s

Time = 0.0025

Courant Number mean: 0.046526 max: 0.481483
[INFO] MatrixAssemblyU: 323.091 [ms]
DILUPBiCGStab:  Solving for Ux, Initial residual = 0.0107489, Final residual = 0.00023052, No Iterations 5
DILUPBiCGStab:  Solving for Uy, Initial residual = 0.0291867, Final residual = 0.000635065, No Iterations 5
DILUPBiCGStab:  Solving for Uz, Initial residual = 0.125927, Final residual = 0.00392456, No Iterations 5
[INFO] MomentumPredictor: 2693.89 [ms]
[INFO] MatrixAssemblyPI: 374.386 [ms]
[INFO] AdjustPhi: 22.867 [ms]
[INFO] ConstrainPressure: 0.002 [ms]
[INFO] MatrixAssemblyPII: 118.509 [ms]
[OGL LOG][Proc: 0]: global_index_init: 0.167 [ms]
[OGL LOG][Proc: 0]p_local_coeffs: call_update: 0 [ms]
[OGL LOG][Proc: 0]p_non_local_coeffs: call_update: 0 [ms]
[OGL LOG][Proc: 0]p: update_local_matrix_data: 70.153 [ms]
[OGL LOG][Proc: 0]p: update_non_local_matrix_data: 0.975 [ms]
[OGL LOG][Proc: 0]p: regenerate_distributed_matrix: 190.529 [ms]
[OGL LOG][Proc: 0]p_matrix: call_update: 191.613 [ms]
[OGL LOG][Proc: 0]p_rhs: call_update: 2.746 [ms]
[OGL LOG][Proc: 0]p: init_precond: 0.036 [ms]
[OGL LOG][StoppingCriterion.H:239] Creating stopping criterion with minIter 900 frequency 12
[OGL LOG][Proc: 0]p: generate_solver: 0.027 [ms]
[OGL LOG][Proc: 0]p: solve: 893.905 [ms]
[OGL LOG][Proc: 0]p: copy_x_back: 4.666 [ms]
[OGL LOG][lduLduBase.H:330] 
Statistics:
	Time per iteration: 595 [mu s]
	Time per residual norm calculation: 126.000000 [mu s]
	Time per iteration and DOF: 0.074375 [ns]
	Retrieve results bandwidth 3.429000 [GByte/s]
[OGL LOG][Proc: 0]p: solve_multi_gpu: 1094.05 [ms]
nonecudaGKOCG:  Solving for p, Initial residual = 0.485688, Final residual = 9.38176e-05, No Iterations 1501
[INFO] SolveP: 1179.01 [ms]
time step continuity errors : sum local = 5.68866e-09, global = -1.62193e-21, cumulative = -1.74579e-20
[INFO] ContinuityError: 37.981 [ms]
[INFO] CorrectBoundary: 0.478 [ms]
[INFO] PISOStep: 1867.78 [ms]
[INFO] MatrixAssemblyPI: 365.355 [ms]
[INFO] AdjustPhi: 23.198 [ms]
[INFO] ConstrainPressure: 0.003 [ms]
[INFO] MatrixAssemblyPII: 120.059 [ms]
[OGL LOG][Proc: 0]: global_index_init: 0.192 [ms]
[OGL LOG][Proc: 0]p_local_coeffs: call_update: 0 [ms]
[OGL LOG][Proc: 0]p_non_local_coeffs: call_update: 0 [ms]
[OGL LOG][Proc: 0]p: update_local_matrix_data: 72.541 [ms]
[OGL LOG][Proc: 0]p: update_non_local_matrix_data: 1.039 [ms]
[OGL LOG][Proc: 0]p: regenerate_distributed_matrix: 192.019 [ms]
[OGL LOG][Proc: 0]p_matrix: call_update: 192.963 [ms]
[OGL LOG][Proc: 0]p_rhs: call_update: 5.187 [ms]
[OGL LOG][Proc: 0]p: init_precond: 0.029 [ms]
[OGL LOG][StoppingCriterion.H:239] Creating stopping criterion with minIter 900 frequency 12
[OGL LOG][Proc: 0]p: generate_solver: 0.026 [ms]
[OGL LOG][Proc: 0]p: solve: 885.554 [ms]
[OGL LOG][Proc: 0]p: copy_x_back: 5.295 [ms]
[OGL LOG][lduLduBase.H:330] 
Statistics:
	Time per iteration: 589 [mu s]
	Time per residual norm calculation: 126.000000 [mu s]
	Time per iteration and DOF: 0.073625 [ns]
	Retrieve results bandwidth 3.021000 [GByte/s]
[OGL LOG][Proc: 0]p: solve_multi_gpu: 1090.23 [ms]
nonecudaGKOCG:  Solving for p, Initial residual = 0.433723, Final residual = 9.50181e-05, No Iterations 1501
[INFO] SolveP: 1175.23 [ms]
time step continuity errors : sum local = 5.73663e-09, global = -1.27315e-21, cumulative = -1.8731e-20
[INFO] ContinuityError: 39.08 [ms]
[INFO] CorrectBoundary: 0.57 [ms]
[INFO] PISOStep: 1860.22 [ms]
[INFO] TimeStep: 6784.93 [ms]
ExecutionTime = 122.84 s  ClockTime = 124 s

Time = 0.00275

Courant Number mean: 0.0484126 max: 0.482259
[INFO] MatrixAssemblyU: 322.218 [ms]
DILUPBiCGStab:  Solving for Ux, Initial residual = 0.00963679, Final residual = 0.000193713, No Iterations 5
DILUPBiCGStab:  Solving for Uy, Initial residual = 0.0246771, Final residual = 0.000447387, No Iterations 5
DILUPBiCGStab:  Solving for Uz, Initial residual = 0.105405, Final residual = 0.0037649, No Iterations 5
[INFO] MomentumPredictor: 2684.33 [ms]
[INFO] MatrixAssemblyPI: 373.773 [ms]
[INFO] AdjustPhi: 22.339 [ms]
[INFO] ConstrainPressure: 0.002 [ms]
[INFO] MatrixAssemblyPII: 117.532 [ms]
[OGL LOG][Proc: 0]: global_index_init: 0.244 [ms]
[OGL LOG][Proc: 0]p_local_coeffs: call_update: 0 [ms]
[OGL LOG][Proc: 0]p_non_local_coeffs: call_update: 0 [ms]
[OGL LOG][Proc: 0]p: update_local_matrix_data: 69.56 [ms]
[OGL LOG][Proc: 0]p: update_non_local_matrix_data: 1.064 [ms]
[OGL LOG][Proc: 0]p: regenerate_distributed_matrix: 189.906 [ms]
[OGL LOG][Proc: 0]p_matrix: call_update: 191.113 [ms]
[OGL LOG][Proc: 0]p_rhs: call_update: 2.715 [ms]
[OGL LOG][Proc: 0]p: init_precond: 0.034 [ms]
[OGL LOG][StoppingCriterion.H:239] Creating stopping criterion with minIter 900 frequency 12
[OGL LOG][Proc: 0]p: generate_solver: 0.031 [ms]
[OGL LOG][Proc: 0]p: solve: 890.931 [ms]
[OGL LOG][Proc: 0]p: copy_x_back: 4.56 [ms]
[OGL LOG][lduLduBase.H:330] 
Statistics:
	Time per iteration: 598 [mu s]
	Time per residual norm calculation: 128.000000 [mu s]
	Time per iteration and DOF: 0.074750 [ns]
	Retrieve results bandwidth 3.508000 [GByte/s]
[OGL LOG][Proc: 0]p: solve_multi_gpu: 1090.43 [ms]
nonecudaGKOCG:  Solving for p, Initial residual = 0.460901, Final residual = 9.02722e-05, No Iterations 1489
[INFO] SolveP: 1175.49 [ms]
time step continuity errors : sum local = 4.95593e-09, global = 5.29096e-22, cumulative = -1.82019e-20
[INFO] ContinuityError: 38.097 [ms]
[INFO] CorrectBoundary: 0.651 [ms]
[INFO] PISOStep: 1862.85 [ms]
[INFO] MatrixAssemblyPI: 364.313 [ms]
[INFO] AdjustPhi: 22.404 [ms]
[INFO] ConstrainPressure: 0.002 [ms]
[INFO] MatrixAssemblyPII: 119.162 [ms]
[OGL LOG][Proc: 0]: global_index_init: 0.407 [ms]
[OGL LOG][Proc: 0]p_local_coeffs: call_update: 0 [ms]
[OGL LOG][Proc: 0]p_non_local_coeffs: call_update: 0 [ms]
[OGL LOG][Proc: 0]p: update_local_matrix_data: 72.07 [ms]
[OGL LOG][Proc: 0]p: update_non_local_matrix_data: 0.997 [ms]
[OGL LOG][Proc: 0]p: regenerate_distributed_matrix: 190.874 [ms]
[OGL LOG][Proc: 0]p_matrix: call_update: 191.911 [ms]
[OGL LOG][Proc: 0]p_rhs: call_update: 5.247 [ms]
[OGL LOG][Proc: 0]p: init_precond: 0.03 [ms]
[OGL LOG][StoppingCriterion.H:239] Creating stopping criterion with minIter 893 frequency 12
[OGL LOG][Proc: 0]p: generate_solver: 0.026 [ms]
[OGL LOG][Proc: 0]p: solve: 878.333 [ms]
[OGL LOG][Proc: 0]p: copy_x_back: 5.196 [ms]
[OGL LOG][lduLduBase.H:330] 
Statistics:
	Time per iteration: 589 [mu s]
	Time per residual norm calculation: 130.000000 [mu s]
	Time per iteration and DOF: 0.073625 [ns]
	Retrieve results bandwidth 3.079000 [GByte/s]
[OGL LOG][Proc: 0]p: solve_multi_gpu: 1081.92 [ms]
nonecudaGKOCG:  Solving for p, Initial residual = 0.407076, Final residual = 8.68412e-05, No Iterations 1489
[INFO] SolveP: 1166.33 [ms]
time step continuity errors : sum local = 4.77378e-09, global = -1.88169e-21, cumulative = -2.00836e-20
[INFO] ContinuityError: 39.222 [ms]
[INFO] CorrectBoundary: 0.479 [ms]
[INFO] PISOStep: 1848.39 [ms]
[INFO] TimeStep: 6757.52 [ms]
ExecutionTime = 129.59 s  ClockTime = 131 s

Time = 0.003

Courant Number mean: 0.050144 max: 0.483046
[INFO] MatrixAssemblyU: 322.994 [ms]
DILUPBiCGStab:  Solving for Ux, Initial residual = 0.00854529, Final residual = 0.000161713, No Iterations 5
DILUPBiCGStab:  Solving for Uy, Initial residual = 0.0220602, Final residual = 0.000365396, No Iterations 5
DILUPBiCGStab:  Solving for Uz, Initial residual = 0.087652, Final residual = 0.00310729, No Iterations 5
[INFO] MomentumPredictor: 2686.69 [ms]
[INFO] MatrixAssemblyPI: 374.549 [ms]
[INFO] AdjustPhi: 22.406 [ms]
[INFO] ConstrainPressure: 0.002 [ms]
[INFO] MatrixAssemblyPII: 117.334 [ms]
[OGL LOG][Proc: 0]: global_index_init: 0.191 [ms]
[OGL LOG][Proc: 0]p_local_coeffs: call_update: 0 [ms]
[OGL LOG][Proc: 0]p_non_local_coeffs: call_update: 0 [ms]
[OGL LOG][Proc: 0]p: update_local_matrix_data: 69.794 [ms]
[OGL LOG][Proc: 0]p: update_non_local_matrix_data: 1.033 [ms]
[OGL LOG][Proc: 0]p: regenerate_distributed_matrix: 189.831 [ms]
[OGL LOG][Proc: 0]p_matrix: call_update: 191.116 [ms]
[OGL LOG][Proc: 0]p_rhs: call_update: 2.721 [ms]
[OGL LOG][Proc: 0]p: init_precond: 0.041 [ms]
[OGL LOG][StoppingCriterion.H:239] Creating stopping criterion with minIter 893 frequency 12
[OGL LOG][Proc: 0]p: generate_solver: 0.035 [ms]
[OGL LOG][Proc: 0]p: solve: 885.186 [ms]
[OGL LOG][Proc: 0]p: copy_x_back: 4.488 [ms]
[OGL LOG][lduLduBase.H:330] 
Statistics:
	Time per iteration: 594 [mu s]
	Time per residual norm calculation: 125.000000 [mu s]
	Time per iteration and DOF: 0.074250 [ns]
	Retrieve results bandwidth 3.565000 [GByte/s]
[OGL LOG][Proc: 0]p: solve_multi_gpu: 1084.63 [ms]
nonecudaGKOCG:  Solving for p, Initial residual = 0.403338, Final residual = 9.09367e-05, No Iterations 1489
[INFO] SolveP: 1170.78 [ms]
time step continuity errors : sum local = 4.8527e-09, global = -1.07827e-21, cumulative = -2.11619e-20
[INFO] ContinuityError: 38.049 [ms]
[INFO] CorrectBoundary: 0.46 [ms]
[INFO] PISOStep: 1857.07 [ms]
[INFO] MatrixAssemblyPI: 363.273 [ms]
[INFO] AdjustPhi: 22.244 [ms]
[INFO] ConstrainPressure: 0.003 [ms]
[INFO] MatrixAssemblyPII: 119.392 [ms]
[OGL LOG][Proc: 0]: global_index_init: 0.403 [ms]
[OGL LOG][Proc: 0]p_local_coeffs: call_update: 0 [ms]
[OGL LOG][Proc: 0]p_non_local_coeffs: call_update: 0 [ms]
[OGL LOG][Proc: 0]p: update_local_matrix_data: 72.273 [ms]
[OGL LOG][Proc: 0]p: update_non_local_matrix_data: 1.04 [ms]
[OGL LOG][Proc: 0]p: regenerate_distributed_matrix: 191.072 [ms]
[OGL LOG][Proc: 0]p_matrix: call_update: 192.113 [ms]
[OGL LOG][Proc: 0]p_rhs: call_update: 5.187 [ms]
[OGL LOG][Proc: 0]p: init_precond: 0.028 [ms]
[OGL LOG][StoppingCriterion.H:239] Creating stopping criterion with minIter 893 frequency 12
[OGL LOG][Proc: 0]p: generate_solver: 0.028 [ms]
[OGL LOG][Proc: 0]p: solve: 878.395 [ms]
[OGL LOG][Proc: 0]p: copy_x_back: 5.138 [ms]
[OGL LOG][lduLduBase.H:330] 
Statistics:
	Time per iteration: 589 [mu s]
	Time per residual norm calculation: 126.000000 [mu s]
	Time per iteration and DOF: 0.073625 [ns]
	Retrieve results bandwidth 3.114000 [GByte/s]
[OGL LOG][Proc: 0]p: solve_multi_gpu: 1082.03 [ms]
nonecudaGKOCG:  Solving for p, Initial residual = 0.357434, Final residual = 8.90295e-05, No Iterations 1489
[INFO] SolveP: 1166.96 [ms]
time step continuity errors : sum local = 4.72969e-09, global = -2.68641e-22, cumulative = -2.14305e-20
[INFO] ContinuityError: 39.099 [ms]
[INFO] CorrectBoundary: 0.419 [ms]
[INFO] PISOStep: 1848.79 [ms]
[INFO] TimeStep: 6755.43 [ms]
ExecutionTime = 136.33 s  ClockTime = 137 s

Time = 0.00325

Courant Number mean: 0.051752 max: 0.483611
[INFO] MatrixAssemblyU: 323.957 [ms]
DILUPBiCGStab:  Solving for Ux, Initial residual = 0.00776353, Final residual = 0.000138591, No Iterations 5
DILUPBiCGStab:  Solving for Uy, Initial residual = 0.019303, Final residual = 0.000273686, No Iterations 5
DILUPBiCGStab:  Solving for Uz, Initial residual = 0.0749787, Final residual = 0.00293498, No Iterations 5
[INFO] MomentumPredictor: 2694.96 [ms]
[INFO] MatrixAssemblyPI: 374.136 [ms]
[INFO] AdjustPhi: 22.407 [ms]
[INFO] ConstrainPressure: 0.002 [ms]
[INFO] MatrixAssemblyPII: 117.852 [ms]
[OGL LOG][Proc: 0]: global_index_init: 0.141 [ms]
[OGL LOG][Proc: 0]p_local_coeffs: call_update: 0 [ms]
[OGL LOG][Proc: 0]p_non_local_coeffs: call_update: 0 [ms]
[OGL LOG][Proc: 0]p: update_local_matrix_data: 69.405 [ms]
[OGL LOG][Proc: 0]p: update_non_local_matrix_data: 0.994 [ms]
[OGL LOG][Proc: 0]p: regenerate_distributed_matrix: 189.85 [ms]
[OGL LOG][Proc: 0]p_matrix: call_update: 191.061 [ms]
[OGL LOG][Proc: 0]p_rhs: call_update: 2.754 [ms]
[OGL LOG][Proc: 0]p: init_precond: 0.032 [ms]
[OGL LOG][StoppingCriterion.H:239] Creating stopping criterion with minIter 893 frequency 12
[OGL LOG][Proc: 0]p: generate_solver: 0.029 [ms]
[OGL LOG][Proc: 0]p: solve: 888.932 [ms]
[OGL LOG][Proc: 0]p: copy_x_back: 4.501 [ms]
[OGL LOG][lduLduBase.H:330] 
Statistics:
	Time per iteration: 596 [mu s]
	Time per residual norm calculation: 128.000000 [mu s]
	Time per iteration and DOF: 0.074500 [ns]
	Retrieve results bandwidth 3.554000 [GByte/s]
[OGL LOG][Proc: 0]p: solve_multi_gpu: 1088.38 [ms]
nonecudaGKOCG:  Solving for p, Initial residual = 0.372848, Final residual = 7.63105e-05, No Iterations 1489
[INFO] SolveP: 1172.96 [ms]
time step continuity errors : sum local = 3.81681e-09, global = 6.63748e-22, cumulative = -2.07668e-20
[INFO] ContinuityError: 38.072 [ms]
[INFO] CorrectBoundary: 0.744 [ms]
[INFO] PISOStep: 1860.68 [ms]
[INFO] MatrixAssemblyPI: 363.961 [ms]
[INFO] AdjustPhi: 22.462 [ms]
[INFO] ConstrainPressure: 0.002 [ms]
[INFO] MatrixAssemblyPII: 119.944 [ms]
[OGL LOG][Proc: 0]: global_index_init: 0.302 [ms]
[OGL LOG][Proc: 0]p_local_coeffs: call_update: 0 [ms]
[OGL LOG][Proc: 0]p_non_local_coeffs: call_update: 0 [ms]
[OGL LOG][Proc: 0]p: update_local_matrix_data: 72.357 [ms]
[OGL LOG][Proc: 0]p: update_non_local_matrix_data: 1.083 [ms]
[OGL LOG][Proc: 0]p: regenerate_distributed_matrix: 191.287 [ms]
[OGL LOG][Proc: 0]p_matrix: call_update: 192.31 [ms]
[OGL LOG][Proc: 0]p_rhs: call_update: 5.205 [ms]
[OGL LOG][Proc: 0]p: init_precond: 0.03 [ms]
[OGL LOG][StoppingCriterion.H:239] Creating stopping criterion with minIter 893 frequency 12
[OGL LOG][Proc: 0]p: generate_solver: 0.026 [ms]
[OGL LOG][Proc: 0]p: solve: 880.413 [ms]
[OGL LOG][Proc: 0]p: copy_x_back: 5.614 [ms]
[OGL LOG][lduLduBase.H:330] 
Statistics:
	Time per iteration: 591 [mu s]
	Time per residual norm calculation: 134.000000 [mu s]
	Time per iteration and DOF: 0.073875 [ns]
	Retrieve results bandwidth 2.850000 [GByte/s]
[OGL LOG][Proc: 0]p: solve_multi_gpu: 1085.13 [ms]
nonecudaGKOCG:  Solving for p, Initial residual = 0.327519, Final residual = 7.59801e-05, No Iterations 1489
[INFO] SolveP: 1169.82 [ms]
time step continuity errors : sum local = 3.80606e-09, global = 2.93924e-23, cumulative = -2.07374e-20
[INFO] ContinuityError: 39.917 [ms]
[INFO] CorrectBoundary: 0.52 [ms]
[INFO] PISOStep: 1854.46 [ms]
[INFO] TimeStep: 6773.72 [ms]
ExecutionTime = 143.08 s  ClockTime = 144 s

Time = 0.0035

Courant Number mean: 0.0532453 max: 0.484205
[INFO] MatrixAssemblyU: 324.861 [ms]
DILUPBiCGStab:  Solving for Ux, Initial residual = 0.00702916, Final residual = 0.000118953, No Iterations 5
DILUPBiCGStab:  Solving for Uy, Initial residual = 0.0175134, Final residual = 0.000222336, No Iterations 5
DILUPBiCGStab:  Solving for Uz, Initial residual = 0.0643747, Final residual = 0.00248284, No Iterations 5
[INFO] MomentumPredictor: 2715.92 [ms]
[INFO] MatrixAssemblyPI: 375.134 [ms]
[INFO] AdjustPhi: 22.313 [ms]
[INFO] ConstrainPressure: 0.002 [ms]
[INFO] MatrixAssemblyPII: 118.361 [ms]
[OGL LOG][Proc: 0]: global_index_init: 0.179 [ms]
[OGL LOG][Proc: 0]p_local_coeffs: call_update: 0 [ms]
[OGL LOG][Proc: 0]p_non_local_coeffs: call_update: 0 [ms]
[OGL LOG][Proc: 0]p: update_local_matrix_data: 70.03 [ms]
[OGL LOG][Proc: 0]p: update_non_local_matrix_data: 1.127 [ms]
[OGL LOG][Proc: 0]p: regenerate_distributed_matrix: 190.155 [ms]
[OGL LOG][Proc: 0]p_matrix: call_update: 191.526 [ms]
[OGL LOG][Proc: 0]p_rhs: call_update: 2.779 [ms]
[OGL LOG][Proc: 0]p: init_precond: 0.031 [ms]
[OGL LOG][StoppingCriterion.H:239] Creating stopping criterion with minIter 893 frequency 12
[OGL LOG][Proc: 0]p: generate_solver: 0.028 [ms]
[OGL LOG][Proc: 0]p: solve: 851.031 [ms]
[OGL LOG][Proc: 0]p: copy_x_back: 4.513 [ms]
[OGL LOG][lduLduBase.H:330] 
Statistics:
	Time per iteration: 595 [mu s]
	Time per residual norm calculation: 128.000000 [mu s]
	Time per iteration and DOF: 0.074375 [ns]
	Retrieve results bandwidth 3.545000 [GByte/s]
[OGL LOG][Proc: 0]p: solve_multi_gpu: 1050.99 [ms]
nonecudaGKOCG:  Solving for p, Initial residual = 0.330876, Final residual = 9.0765e-05, No Iterations 1429
[INFO] SolveP: 1136.4 [ms]
time step continuity errors : sum local = 4.3937e-09, global = -1.36955e-21, cumulative = -2.21069e-20
[INFO] ContinuityError: 38.084 [ms]
[INFO] CorrectBoundary: 0.418 [ms]
[INFO] PISOStep: 1825.12 [ms]
[INFO] MatrixAssemblyPI: 364.078 [ms]
[INFO] AdjustPhi: 22.186 [ms]
[INFO] ConstrainPressure: 0.002 [ms]
[INFO] MatrixAssemblyPII: 118.921 [ms]
[OGL LOG][Proc: 0]: global_index_init: 0.391 [ms]
[OGL LOG][Proc: 0]p_local_coeffs: call_update: 0 [ms]
[OGL LOG][Proc: 0]p_non_local_coeffs: call_update: 0 [ms]
[OGL LOG][Proc: 0]p: update_local_matrix_data: 71.952 [ms]
[OGL LOG][Proc: 0]p: update_non_local_matrix_data: 1.023 [ms]
[OGL LOG][Proc: 0]p: regenerate_distributed_matrix: 192.257 [ms]
[OGL LOG][Proc: 0]p_matrix: call_update: 193.301 [ms]
[OGL LOG][Proc: 0]p_rhs: call_update: 5.422 [ms]
[OGL LOG][Proc: 0]p: init_precond: 0.028 [ms]
[OGL LOG][StoppingCriterion.H:239] Creating stopping criterion with minIter 857 frequency 11
[OGL LOG][Proc: 0]p: generate_solver: 0.026 [ms]
[OGL LOG][Proc: 0]p: solve: 860.621 [ms]
[OGL LOG][Proc: 0]p: copy_x_back: 5.085 [ms]
[OGL LOG][lduLduBase.H:330] 
Statistics:
	Time per iteration: 592 [mu s]
	Time per residual norm calculation: 125.000000 [mu s]
	Time per iteration and DOF: 0.074000 [ns]
	Retrieve results bandwidth 3.146000 [GByte/s]
[OGL LOG][Proc: 0]p: solve_multi_gpu: 1065.5 [ms]
nonecudaGKOCG:  Solving for p, Initial residual = 0.292122, Final residual = 9.56816e-05, No Iterations 1453
[INFO] SolveP: 1151.31 [ms]
time step continuity errors : sum local = 4.61322e-09, global = -2.44551e-21, cumulative = -2.45525e-20
[INFO] ContinuityError: 39.116 [ms]
[INFO] CorrectBoundary: 0.386 [ms]
[INFO] PISOStep: 1835.62 [ms]
[INFO] TimeStep: 6741.28 [ms]
ExecutionTime = 149.81 s  ClockTime = 151 s

Time = 0.00375

Courant Number mean: 0.0546444 max: 0.484644
[INFO] MatrixAssemblyU: 323.258 [ms]
DILUPBiCGStab:  Solving for Ux, Initial residual = 0.00645188, Final residual = 0.000103505, No Iterations 5
DILUPBiCGStab:  Solving for Uy, Initial residual = 0.0156929, Final residual = 0.000179665, No Iterations 5
DILUPBiCGStab:  Solving for Uz, Initial residual = 0.0560557, Final residual = 0.00230882, No Iterations 5
[INFO] MomentumPredictor: 2694.24 [ms]
[INFO] MatrixAssemblyPI: 374.313 [ms]
[INFO] AdjustPhi: 22.243 [ms]
[INFO] ConstrainPressure: 0.002 [ms]
[INFO] MatrixAssemblyPII: 117.723 [ms]
[OGL LOG][Proc: 0]: global_index_init: 0.176 [ms]
[OGL LOG][Proc: 0]p_local_coeffs: call_update: 0 [ms]
[OGL LOG][Proc: 0]p_non_local_coeffs: call_update: 0 [ms]
[OGL LOG][Proc: 0]p: update_local_matrix_data: 69.517 [ms]
[OGL LOG][Proc: 0]p: update_non_local_matrix_data: 0.992 [ms]
[OGL LOG][Proc: 0]p: regenerate_distributed_matrix: 189.495 [ms]
[OGL LOG][Proc: 0]p_matrix: call_update: 190.727 [ms]
[OGL LOG][Proc: 0]p_rhs: call_update: 2.708 [ms]
[OGL LOG][Proc: 0]p: init_precond: 0.037 [ms]
[OGL LOG][StoppingCriterion.H:239] Creating stopping criterion with minIter 871 frequency 12
[OGL LOG][Proc: 0]p: generate_solver: 0.028 [ms]
[OGL LOG][Proc: 0]p: solve: 558.074 [ms]
[OGL LOG][Proc: 0]p: copy_x_back: 4.496 [ms]
[OGL LOG][lduLduBase.H:330] 
Statistics:
	Time per iteration: 636 [mu s]
	Time per residual norm calculation: 139.000000 [mu s]
	Time per iteration and DOF: 0.079500 [ns]
	Retrieve results bandwidth 3.558000 [GByte/s]
[OGL LOG][Proc: 0]p: solve_multi_gpu: 757.166 [ms]
nonecudaGKOCG:  Solving for p, Initial residual = 0.299177, Final residual = 6.13905e-05, No Iterations 877
[INFO] SolveP: 841.989 [ms]
time step continuity errors : sum local = 3.06799e-09, global = 3.95806e-22, cumulative = -2.41566e-20
[INFO] ContinuityError: 38.078 [ms]
[INFO] CorrectBoundary: 0.419 [ms]
[INFO] PISOStep: 1529.33 [ms]
[INFO] MatrixAssemblyPI: 364.114 [ms]
[INFO] AdjustPhi: 22.431 [ms]
[INFO] ConstrainPressure: 0.002 [ms]
[INFO] MatrixAssemblyPII: 119.062 [ms]
[OGL LOG][Proc: 0]: global_index_init: 0.415 [ms]
[OGL LOG][Proc: 0]p_local_coeffs: call_update: 0 [ms]
[OGL LOG][Proc: 0]p_non_local_coeffs: call_update: 0 [ms]
[OGL LOG][Proc: 0]p: update_local_matrix_data: 71.952 [ms]
[OGL LOG][Proc: 0]p: update_non_local_matrix_data: 0.998 [ms]
[OGL LOG][Proc: 0]p: regenerate_distributed_matrix: 191.072 [ms]
[OGL LOG][Proc: 0]p_matrix: call_update: 192.136 [ms]
[OGL LOG][Proc: 0]p_rhs: call_update: 5.223 [ms]
[OGL LOG][Proc: 0]p: init_precond: 0.03 [ms]
[OGL LOG][StoppingCriterion.H:239] Creating stopping criterion with minIter 526 frequency 9
[OGL LOG][Proc: 0]p: generate_solver: 0.026 [ms]
[OGL LOG][Proc: 0]p: solve: 452.445 [ms]
[OGL LOG][Proc: 0]p: copy_x_back: 5.066 [ms]
[OGL LOG][lduLduBase.H:330] 
Statistics:
	Time per iteration: 651 [mu s]
	Time per residual norm calculation: 126.000000 [mu s]
	Time per iteration and DOF: 0.081375 [ns]
	Retrieve results bandwidth 3.158000 [GByte/s]
[OGL LOG][Proc: 0]p: solve_multi_gpu: 656.108 [ms]
nonecudaGKOCG:  Solving for p, Initial residual = 0.261979, Final residual = 9.07766e-05, No Iterations 694
[INFO] SolveP: 740.63 [ms]
time step continuity errors : sum local = 4.30567e-09, global = -4.80514e-21, cumulative = -2.89618e-20
[INFO] ContinuityError: 39.075 [ms]
[INFO] CorrectBoundary: 0.783 [ms]
[INFO] PISOStep: 1422.3 [ms]
[INFO] TimeStep: 6009.11 [ms]
ExecutionTime = 155.81 s  ClockTime = 157 s

Time = 0.004

Courant Number mean: 0.0559556 max: 0.485107
[INFO] MatrixAssemblyU: 321.383 [ms]
DILUPBiCGStab:  Solving for Ux, Initial residual = 0.00593192, Final residual = 9.06972e-05, No Iterations 5
DILUPBiCGStab:  Solving for Uy, Initial residual = 0.0144061, Final residual = 0.000146673, No Iterations 5
DILUPBiCGStab:  Solving for Uz, Initial residual = 0.0491266, Final residual = 0.00196131, No Iterations 5
[INFO] MomentumPredictor: 2694.02 [ms]
[INFO] MatrixAssemblyPI: 373.413 [ms]
[INFO] AdjustPhi: 22.401 [ms]
[INFO] ConstrainPressure: 0.002 [ms]
[INFO] MatrixAssemblyPII: 117.38 [ms]
[OGL LOG][Proc: 0]: global_index_init: 0.152 [ms]
[OGL LOG][Proc: 0]p_local_coeffs: call_update: 0 [ms]
[OGL LOG][Proc: 0]p_non_local_coeffs: call_update: 0 [ms]
[OGL LOG][Proc: 0]p: update_local_matrix_data: 70.186 [ms]
[OGL LOG][Proc: 0]p: update_non_local_matrix_data: 1.006 [ms]
[OGL LOG][Proc: 0]p: regenerate_distributed_matrix: 190.084 [ms]
[OGL LOG][Proc: 0]p_matrix: call_update: 191.311 [ms]
[OGL LOG][Proc: 0]p_rhs: call_update: 2.717 [ms]
[OGL LOG][Proc: 0]p: init_precond: 0.037 [ms]
[OGL LOG][StoppingCriterion.H:239] Creating stopping criterion with minIter 416 frequency 7
[OGL LOG][Proc: 0]p: generate_solver: 0.036 [ms]
[OGL LOG][Proc: 0]p: solve: 480.037 [ms]
[OGL LOG][Proc: 0]p: copy_x_back: 4.508 [ms]
[OGL LOG][lduLduBase.H:330] 
Statistics:
	Time per iteration: 658 [mu s]
	Time per residual norm calculation: 137.000000 [mu s]
	Time per iteration and DOF: 0.082250 [ns]
	Retrieve results bandwidth 3.549000 [GByte/s]
[OGL LOG][Proc: 0]p: solve_multi_gpu: 679.734 [ms]
nonecudaGKOCG:  Solving for p, Initial residual = 0.268723, Final residual = 9.81204e-05, No Iterations 729
[INFO] SolveP: 765.107 [ms]
time step continuity errors : sum local = 4.92352e-09, global = -2.90521e-21, cumulative = -3.1867e-20
[INFO] ContinuityError: 38.07 [ms]
[INFO] CorrectBoundary: 0.396 [ms]
[INFO] PISOStep: 1451.8 [ms]
[INFO] MatrixAssemblyPI: 364.074 [ms]
[INFO] AdjustPhi: 22.368 [ms]
[INFO] ConstrainPressure: 0.003 [ms]
[INFO] MatrixAssemblyPII: 119.174 [ms]
[OGL LOG][Proc: 0]: global_index_init: 0.401 [ms]
[OGL LOG][Proc: 0]p_local_coeffs: call_update: 0 [ms]
[OGL LOG][Proc: 0]p_non_local_coeffs: call_update: 0 [ms]
[OGL LOG][Proc: 0]p: update_local_matrix_data: 72.315 [ms]
[OGL LOG][Proc: 0]p: update_non_local_matrix_data: 1.004 [ms]
[OGL LOG][Proc: 0]p: regenerate_distributed_matrix: 190.97 [ms]
[OGL LOG][Proc: 0]p_matrix: call_update: 191.998 [ms]
[OGL LOG][Proc: 0]p_rhs: call_update: 5.151 [ms]
[OGL LOG][Proc: 0]p: init_precond: 0.03 [ms]
[OGL LOG][StoppingCriterion.H:239] Creating stopping criterion with minIter 437 frequency 8
[OGL LOG][Proc: 0]p: generate_solver: 0.025 [ms]
[OGL LOG][Proc: 0]p: solve: 465.684 [ms]
[OGL LOG][Proc: 0]p: copy_x_back: 5.069 [ms]
[OGL LOG][lduLduBase.H:330] 
Statistics:
	Time per iteration: 653 [mu s]
	Time per residual norm calculation: 127.000000 [mu s]
	Time per iteration and DOF: 0.081625 [ns]
	Retrieve results bandwidth 3.156000 [GByte/s]
[OGL LOG][Proc: 0]p: solve_multi_gpu: 669.137 [ms]
nonecudaGKOCG:  Solving for p, Initial residual = 0.236317, Final residual = 9.58352e-05, No Iterations 713
[INFO] SolveP: 753.913 [ms]
time step continuity errors : sum local = 4.43639e-09, global = -2.05253e-21, cumulative = -3.39195e-20
[INFO] ContinuityError: 39.415 [ms]
[INFO] CorrectBoundary: 0.452 [ms]
[INFO] PISOStep: 1436.44 [ms]
[INFO] TimeStep: 5943.63 [ms]
ExecutionTime = 161.74 s  ClockTime = 163 s

Time = 0.00425

Courant Number mean: 0.0571912 max: 0.485464
[INFO] MatrixAssemblyU: 327.982 [ms]
DILUPBiCGStab:  Solving for Ux, Initial residual = 0.0054844, Final residual = 7.97341e-05, No Iterations 5
DILUPBiCGStab:  Solving for Uy, Initial residual = 0.0131613, Final residual = 0.000126311, No Iterations 5
DILUPBiCGStab:  Solving for Uz, Initial residual = 0.0441495, Final residual = 0.00181173, No Iterations 5
[INFO] MomentumPredictor: 2711.44 [ms]
[INFO] MatrixAssemblyPI: 374.396 [ms]
[INFO] AdjustPhi: 22.292 [ms]
[INFO] ConstrainPressure: 0.002 [ms]
[INFO] MatrixAssemblyPII: 117.539 [ms]
[OGL LOG][Proc: 0]: global_index_init: 0.186 [ms]
[OGL LOG][Proc: 0]p_local_coeffs: call_update: 0 [ms]
[OGL LOG][Proc: 0]p_non_local_coeffs: call_update: 0 [ms]
[OGL LOG][Proc: 0]p: update_local_matrix_data: 69.665 [ms]
[OGL LOG][Proc: 0]p: update_non_local_matrix_data: 1.014 [ms]
[OGL LOG][Proc: 0]p: regenerate_distributed_matrix: 189.863 [ms]
[OGL LOG][Proc: 0]p_matrix: call_update: 191.112 [ms]
[OGL LOG][Proc: 0]p_rhs: call_update: 2.696 [ms]
[OGL LOG][Proc: 0]p: init_precond: 0.034 [ms]
[OGL LOG][StoppingCriterion.H:239] Creating stopping criterion with minIter 427 frequency 7
[OGL LOG][Proc: 0]p: generate_solver: 0.028 [ms]
[OGL LOG][Proc: 0]p: solve: 893.461 [ms]
[OGL LOG][Proc: 0]p: copy_x_back: 4.529 [ms]
[OGL LOG][lduLduBase.H:330] 
Statistics:
	Time per iteration: 604 [mu s]
	Time per residual norm calculation: 138.000000 [mu s]
	Time per iteration and DOF: 0.075500 [ns]
	Retrieve results bandwidth 3.532000 [GByte/s]
[OGL LOG][Proc: 0]p: solve_multi_gpu: 1092.94 [ms]
nonecudaGKOCG:  Solving for p, Initial residual = 0.240241, Final residual = 9.82965e-05, No Iterations 1478
[INFO] SolveP: 1177.94 [ms]
time step continuity errors : sum local = 4.33034e-09, global = -1.92872e-21, cumulative = -3.58483e-20
[INFO] ContinuityError: 38.657 [ms]
[INFO] CorrectBoundary: 0.432 [ms]
[INFO] PISOStep: 1866.34 [ms]
[INFO] MatrixAssemblyPI: 365.199 [ms]
[INFO] AdjustPhi: 22.32 [ms]
[INFO] ConstrainPressure: 0.002 [ms]
[INFO] MatrixAssemblyPII: 119.08 [ms]
[OGL LOG][Proc: 0]: global_index_init: 0.416 [ms]
[OGL LOG][Proc: 0]p_local_coeffs: call_update: 0 [ms]
[OGL LOG][Proc: 0]p_non_local_coeffs: call_update: 0 [ms]
[OGL LOG][Proc: 0]p: update_local_matrix_data: 71.963 [ms]
[OGL LOG][Proc: 0]p: update_non_local_matrix_data: 1.036 [ms]
[OGL LOG][Proc: 0]p: regenerate_distributed_matrix: 191.25 [ms]
[OGL LOG][Proc: 0]p_matrix: call_update: 192.273 [ms]
[OGL LOG][Proc: 0]p_rhs: call_update: 5.174 [ms]
[OGL LOG][Proc: 0]p: init_precond: 0.028 [ms]
[OGL LOG][StoppingCriterion.H:239] Creating stopping criterion with minIter 886 frequency 12
[OGL LOG][Proc: 0]p: generate_solver: 0.026 [ms]
[OGL LOG][Proc: 0]p: solve: 872.696 [ms]
[OGL LOG][Proc: 0]p: copy_x_back: 5.151 [ms]
[OGL LOG][lduLduBase.H:330] 
Statistics:
	Time per iteration: 590 [mu s]
	Time per residual norm calculation: 147.000000 [mu s]
	Time per iteration and DOF: 0.073750 [ns]
	Retrieve results bandwidth 3.106000 [GByte/s]
[OGL LOG][Proc: 0]p: solve_multi_gpu: 1076.52 [ms]
nonecudaGKOCG:  Solving for p, Initial residual = 0.209673, Final residual = 9.66084e-05, No Iterations 1477
[INFO] SolveP: 1160.91 [ms]
time step continuity errors : sum local = 4.26054e-09, global = -1.50863e-21, cumulative = -3.73569e-20
[INFO] ContinuityError: 39.171 [ms]
[INFO] CorrectBoundary: 0.682 [ms]
[INFO] PISOStep: 1843.08 [ms]
[INFO] TimeStep: 6788.65 [ms]
ExecutionTime = 168.5 s  ClockTime = 170 s

Time = 0.0045

Courant Number mean: 0.0583577 max: 0.485835
[INFO] MatrixAssemblyU: 322.721 [ms]
DILUPBiCGStab:  Solving for Ux, Initial residual = 0.00510167, Final residual = 7.08991e-05, No Iterations 5
DILUPBiCGStab:  Solving for Uy, Initial residual = 0.0121935, Final residual = 0.000105097, No Iterations 5
DILUPBiCGStab:  Solving for Uz, Initial residual = 0.0395735, Final residual = 0.00152743, No Iterations 5
[INFO] MomentumPredictor: 2683.89 [ms]
[INFO] MatrixAssemblyPI: 376.425 [ms]
[INFO] AdjustPhi: 22.321 [ms]
[INFO] ConstrainPressure: 0.002 [ms]
[INFO] MatrixAssemblyPII: 117.993 [ms]
[OGL LOG][Proc: 0]: global_index_init: 0.173 [ms]
[OGL LOG][Proc: 0]p_local_coeffs: call_update: 0 [ms]
[OGL LOG][Proc: 0]p_non_local_coeffs: call_update: 0 [ms]
[OGL LOG][Proc: 0]p: update_local_matrix_data: 70.085 [ms]
[OGL LOG][Proc: 0]p: update_non_local_matrix_data: 0.995 [ms]
[OGL LOG][Proc: 0]p: regenerate_distributed_matrix: 189.892 [ms]
[OGL LOG][Proc: 0]p_matrix: call_update: 191.173 [ms]
[OGL LOG][Proc: 0]p_rhs: call_update: 2.725 [ms]
[OGL LOG][Proc: 0]p: init_precond: 0.035 [ms]
[OGL LOG][StoppingCriterion.H:239] Creating stopping criterion with minIter 886 frequency 12
[OGL LOG][Proc: 0]p: generate_solver: 0.03 [ms]
[OGL LOG][Proc: 0]p: solve: 878.225 [ms]
[OGL LOG][Proc: 0]p: copy_x_back: 4.535 [ms]
[OGL LOG][lduLduBase.H:330] 
Statistics:
	Time per iteration: 594 [mu s]
	Time per residual norm calculation: 128.000000 [mu s]
	Time per iteration and DOF: 0.074250 [ns]
	Retrieve results bandwidth 3.528000 [GByte/s]
[OGL LOG][Proc: 0]p: solve_multi_gpu: 1077.81 [ms]
nonecudaGKOCG:  Solving for p, Initial residual = 0.21727, Final residual = 9.32883e-05, No Iterations 1477
[INFO] SolveP: 1163.23 [ms]
time step continuity errors : sum local = 3.96066e-09, global = -3.86017e-21, cumulative = -4.1217e-20
[INFO] ContinuityError: 38.665 [ms]
[INFO] CorrectBoundary: 0.565 [ms]
[INFO] PISOStep: 1853.79 [ms]
[INFO] MatrixAssemblyPI: 365.341 [ms]
[INFO] AdjustPhi: 22.658 [ms]
[INFO] ConstrainPressure: 0.002 [ms]
[INFO] MatrixAssemblyPII: 119.805 [ms]
[OGL LOG][Proc: 0]: global_index_init: 0.518 [ms]
[OGL LOG][Proc: 0]p_local_coeffs: call_update: 0 [ms]
[OGL LOG][Proc: 0]p_non_local_coeffs: call_update: 0 [ms]
[OGL LOG][Proc: 0]p: update_local_matrix_data: 71.634 [ms]
[OGL LOG][Proc: 0]p: update_non_local_matrix_data: 0.988 [ms]
[OGL LOG][Proc: 0]p: regenerate_distributed_matrix: 191.027 [ms]
[OGL LOG][Proc: 0]p_matrix: call_update: 192.147 [ms]
[OGL LOG][Proc: 0]p_rhs: call_update: 5.204 [ms]
[OGL LOG][Proc: 0]p: init_precond: 0.035 [ms]
[OGL LOG][StoppingCriterion.H:239] Creating stopping criterion with minIter 886 frequency 12
[OGL LOG][Proc: 0]p: generate_solver: 0.027 [ms]
[OGL LOG][Proc: 0]p: solve: 872.461 [ms]
[OGL LOG][Proc: 0]p: copy_x_back: 5.127 [ms]
[OGL LOG][lduLduBase.H:330] 
Statistics:
	Time per iteration: 590 [mu s]
	Time per residual norm calculation: 127.000000 [mu s]
	Time per iteration and DOF: 0.073750 [ns]
	Retrieve results bandwidth 3.120000 [GByte/s]
[OGL LOG][Proc: 0]p: solve_multi_gpu: 1076.17 [ms]
nonecudaGKOCG:  Solving for p, Initial residual = 0.190386, Final residual = 9.0253e-05, No Iterations 1477
[INFO] SolveP: 1160.33 [ms]
time step continuity errors : sum local = 3.82282e-09, global = 7.90297e-22, cumulative = -4.04268e-20
[INFO] ContinuityError: 39.173 [ms]
[INFO] CorrectBoundary: 0.643 [ms]
[INFO] PISOStep: 1844.6 [ms]
[INFO] TimeStep: 6744.81 [ms]
ExecutionTime = 175.22 s  ClockTime = 176 s

Time = 0.00475

Courant Number mean: 0.0594621 max: 0.486132
[INFO] MatrixAssemblyU: 322.003 [ms]
DILUPBiCGStab:  Solving for Ux, Initial residual = 0.00475408, Final residual = 6.27904e-05, No Iterations 5
DILUPBiCGStab:  Solving for Uy, Initial residual = 0.0112418, Final residual = 9.43345e-05, No Iterations 5
DILUPBiCGStab:  Solving for Uz, Initial residual = 0.0346437, Final residual = 0.00132565, No Iterations 5
[INFO] MomentumPredictor: 2688.04 [ms]
[INFO] MatrixAssemblyPI: 373.5 [ms]
[INFO] AdjustPhi: 22.406 [ms]
[INFO] ConstrainPressure: 0.002 [ms]
[INFO] MatrixAssemblyPII: 117.473 [ms]
[OGL LOG][Proc: 0]: global_index_init: 0.164 [ms]
[OGL LOG][Proc: 0]p_local_coeffs: call_update: 0 [ms]
[OGL LOG][Proc: 0]p_non_local_coeffs: call_update: 0 [ms]
[OGL LOG][Proc: 0]p: update_local_matrix_data: 69.793 [ms]
[OGL LOG][Proc: 0]p: update_non_local_matrix_data: 1.033 [ms]
[OGL LOG][Proc: 0]p: regenerate_distributed_matrix: 189.618 [ms]
[OGL LOG][Proc: 0]p_matrix: call_update: 190.675 [ms]
[OGL LOG][Proc: 0]p_rhs: call_update: 2.801 [ms]
[OGL LOG][Proc: 0]p: init_precond: 0.035 [ms]
[OGL LOG][StoppingCriterion.H:239] Creating stopping criterion with minIter 886 frequency 12
[OGL LOG][Proc: 0]p: generate_solver: 0.03 [ms]
[OGL LOG][Proc: 0]p: solve: 882.389 [ms]
[OGL LOG][Proc: 0]p: copy_x_back: 4.463 [ms]
[OGL LOG][lduLduBase.H:330] 
Statistics:
	Time per iteration: 597 [mu s]
	Time per residual norm calculation: 128.000000 [mu s]
	Time per iteration and DOF: 0.074625 [ns]
	Retrieve results bandwidth 3.585000 [GByte/s]
[OGL LOG][Proc: 0]p: solve_multi_gpu: 1081.47 [ms]
nonecudaGKOCG:  Solving for p, Initial residual = 0.192976, Final residual = 7.4224e-05, No Iterations 1477
[INFO] SolveP: 1165.79 [ms]
time step continuity errors : sum local = 3.12926e-09, global = -1.83193e-21, cumulative = -4.22587e-20
[INFO] ContinuityError: 39.436 [ms]
[INFO] CorrectBoundary: 0.416 [ms]
[INFO] PISOStep: 1848.83 [ms]
[INFO] MatrixAssemblyPI: 363.788 [ms]
[INFO] AdjustPhi: 22.352 [ms]
[INFO] ConstrainPressure: 0.002 [ms]
[INFO] MatrixAssemblyPII: 117.824 [ms]
[OGL LOG][Proc: 0]: global_index_init: 0.244 [ms]
[OGL LOG][Proc: 0]p_local_coeffs: call_update: 0 [ms]
[OGL LOG][Proc: 0]p_non_local_coeffs: call_update: 0 [ms]
[OGL LOG][Proc: 0]p: update_local_matrix_data: 72.225 [ms]
[OGL LOG][Proc: 0]p: update_non_local_matrix_data: 1.045 [ms]
[OGL LOG][Proc: 0]p: regenerate_distributed_matrix: 191.362 [ms]
[OGL LOG][Proc: 0]p_matrix: call_update: 192.325 [ms]
[OGL LOG][Proc: 0]p_rhs: call_update: 4.857 [ms]
[OGL LOG][Proc: 0]p: init_precond: 0.03 [ms]
[OGL LOG][StoppingCriterion.H:239] Creating stopping criterion with minIter 886 frequency 12
[OGL LOG][Proc: 0]p: generate_solver: 0.026 [ms]
[OGL LOG][Proc: 0]p: solve: 875.612 [ms]
[OGL LOG][Proc: 0]p: copy_x_back: 5.224 [ms]
[OGL LOG][lduLduBase.H:330] 
Statistics:
	Time per iteration: 592 [mu s]
	Time per residual norm calculation: 140.000000 [mu s]
	Time per iteration and DOF: 0.074000 [ns]
	Retrieve results bandwidth 3.062000 [GByte/s]
[OGL LOG][Proc: 0]p: solve_multi_gpu: 1079.25 [ms]
nonecudaGKOCG:  Solving for p, Initial residual = 0.168143, Final residual = 7.44079e-05, No Iterations 1477
[INFO] SolveP: 1164.07 [ms]
time step continuity errors : sum local = 3.13888e-09, global = 7.81214e-22, cumulative = -4.14775e-20
[INFO] ContinuityError: 39.185 [ms]
[INFO] CorrectBoundary: 0.414 [ms]
[INFO] PISOStep: 1837.93 [ms]
[INFO] TimeStep: 6736.55 [ms]
ExecutionTime = 181.94 s  ClockTime = 183 s

Time = 0.005

Courant Number mean: 0.06051 max: 0.486437
[INFO] MatrixAssemblyU: 319.86 [ms]
DILUPBiCGStab:  Solving for Ux, Initial residual = 0.00445049, Final residual = 5.63002e-05, No Iterations 5
DILUPBiCGStab:  Solving for Uy, Initial residual = 0.0105096, Final residual = 8.0019e-05, No Iterations 5
DILUPBiCGStab:  Solving for Uz, Initial residual = 0.0314628, Final residual = 0.00113268, No Iterations 5
[INFO] MomentumPredictor: 2676.23 [ms]
[INFO] MatrixAssemblyPI: 358.077 [ms]
[INFO] AdjustPhi: 17.127 [ms]
[INFO] ConstrainPressure: 0.002 [ms]
[INFO] MatrixAssemblyPII: 112.739 [ms]
[OGL LOG][Proc: 0]: global_index_init: 0.018 [ms]
[OGL LOG][Proc: 0]p_local_coeffs: call_update: 0 [ms]
[OGL LOG][Proc: 0]p_non_local_coeffs: call_update: 0 [ms]
[OGL LOG][Proc: 0]p: update_local_matrix_data: 64.713 [ms]
[OGL LOG][Proc: 0]p: update_non_local_matrix_data: 1.035 [ms]
[OGL LOG][Proc: 0]p: regenerate_distributed_matrix: 186.428 [ms]
[OGL LOG][Proc: 0]p_matrix: call_update: 187.351 [ms]
[OGL LOG][Proc: 0]p_rhs: call_update: 2.231 [ms]
[OGL LOG][Proc: 0]p: init_precond: 0.032 [ms]
[OGL LOG][StoppingCriterion.H:239] Creating stopping criterion with minIter 886 frequency 12
[OGL LOG][Proc: 0]p: generate_solver: 0.031 [ms]
[OGL LOG][Proc: 0]p: solve: 870.181 [ms]
[OGL LOG][Proc: 0]p: copy_x_back: 5.27 [ms]
[OGL LOG][lduLduBase.H:330] 
Statistics:
	Time per iteration: 589 [mu s]
	Time per residual norm calculation: 138.000000 [mu s]
	Time per iteration and DOF: 0.073625 [ns]
	Retrieve results bandwidth 3.036000 [GByte/s]
[OGL LOG][Proc: 0]p: solve_multi_gpu: 1066.48 [ms]
nonecudaGKOCG:  Solving for p, Initial residual = 0.174606, Final residual = 6.68672e-05, No Iterations 1477
[INFO] SolveP: 1143.48 [ms]
time step continuity errors : sum local = 2.72297e-09, global = -6.84435e-23, cumulative = -4.15459e-20
[INFO] ContinuityError: 39.669 [ms]
[INFO] CorrectBoundary: 0.384 [ms]
[INFO] PISOStep: 1796.7 [ms]
[INFO] MatrixAssemblyPI: 347.514 [ms]
[INFO] AdjustPhi: 17.196 [ms]
[INFO] ConstrainPressure: 0.003 [ms]
[INFO] MatrixAssemblyPII: 112.264 [ms]
[OGL LOG][Proc: 0]: global_index_init: 0.014 [ms]
[OGL LOG][Proc: 0]p_local_coeffs: call_update: 0 [ms]
[OGL LOG][Proc: 0]p_non_local_coeffs: call_update: 0 [ms]
[OGL LOG][Proc: 0]p: update_local_matrix_data: 69.098 [ms]
[OGL LOG][Proc: 0]p: update_non_local_matrix_data: 1.017 [ms]
[OGL LOG][Proc: 0]p: regenerate_distributed_matrix: 191.743 [ms]
[OGL LOG][Proc: 0]p_matrix: call_update: 192.742 [ms]
[OGL LOG][Proc: 0]p_rhs: call_update: 4.914 [ms]
[OGL LOG][Proc: 0]p: init_precond: 0.03 [ms]
[OGL LOG][StoppingCriterion.H:239] Creating stopping criterion with minIter 886 frequency 12
[OGL LOG][Proc: 0]p: generate_solver: 0.026 [ms]
[OGL LOG][Proc: 0]p: solve: 874.562 [ms]
[OGL LOG][Proc: 0]p: copy_x_back: 5.067 [ms]
[OGL LOG][lduLduBase.H:330] 
Statistics:
	Time per iteration: 592 [mu s]
	Time per residual norm calculation: 128.000000 [mu s]
	Time per iteration and DOF: 0.074000 [ns]
	Retrieve results bandwidth 3.157000 [GByte/s]
[OGL LOG][Proc: 0]p: solve_multi_gpu: 1078.51 [ms]
nonecudaGKOCG:  Solving for p, Initial residual = 0.15266, Final residual = 6.72206e-05, No Iterations 1477
[INFO] SolveP: 1160.36 [ms]
time step continuity errors : sum local = 2.73279e-09, global = 1.23235e-21, cumulative = -4.03136e-20
[INFO] ContinuityError: 39.205 [ms]
[INFO] CorrectBoundary: 0.386 [ms]
[INFO] PISOStep: 1807.65 [ms]
[INFO] TimeStep: 6640.56 [ms]
ExecutionTime = 188.57 s  ClockTime = 190 s

End

Finalising parallel run
