/*---------------------------------------------------------------------------*\
| =========                 |                                                 |
| \\      /  F ield         | OpenFOAM: The Open Source CFD Toolbox           |
|  \\    /   O peration     | Version:  2306                                  |
|   \\  /    A nd           | Website:  www.openfoam.com                      |
|    \\/     M anipulation  |                                                 |
\*---------------------------------------------------------------------------*/
Build  : c423ebec-20231012 OPENFOAM=2306 version=v2306
Arch   : "LSB;label=32;scalar=64"
Exec   : icoFoam -parallel -case /hkfs/work/workspace/scratch/eq4036-l3d/workspace/6296b84222e8a9cc75b38a0641eb7308/case
Date   : Dec 30 2023
Time   : 09:52:33
Host   : hkn0714.localdomain
PID    : 455263
I/O    : uncollated
Case   : /hkfs/work/workspace/scratch/eq4036-l3d/workspace/6296b84222e8a9cc75b38a0641eb7308/case
nProcs : 8
Hosts  :
(
    (hkn0714.localdomain 8)
)
Pstream initialized with:
    floatTransfer      : false
    nProcsSimpleSum    : 0
    nonBlockingExchange: 0 (tuning: 0)
    exchange algorithm : -1
    commsType          : nonBlocking
    polling iterations : 0
trapFpe: Floating point exception trapping enabled (FOAM_SIGFPE).
fileModificationChecking : Monitoring run-time modified files using timeStampMaster (fileModificationSkew 5, maxFileModificationPolls 20)
allowSystemOperations : Allowing user-supplied system call operations

// * * * * * * * * * * * * * * * * * * * * * * * * * * * * * * * * * * * * * //
Create time

--> FOAM Warning : 
    From void* Foam::dlLibraryTable::openLibrary(const Foam::fileName&, bool)
    in file db/dynamicLibrary/dlLibraryTable/dlLibraryTable.C at line 188
    Could not load "libpetscFoam.so"
libpetscFoam.so: cannot open shared object file: No such file or directory
Create mesh for time = 0


PISO: Operating solver in PISO mode

Reading transportProperties

Reading field p

Reading field U

Reading/calculating face flux field phi


Starting time loop

Time = 0.00025

Courant Number mean: 8.24341e-18 max: 2.08167e-14
[INFO] MatrixAssemblyU: 211.949 [ms]
DILUPBiCGStab:  Solving for Ux, Initial residual = 1, Final residual = 0.00959752, No Iterations 5
DILUPBiCGStab:  Solving for Uy:  solution singularity
DILUPBiCGStab:  Solving for Uz:  solution singularity
[INFO] MomentumPredictor: 764.816 [ms]
[INFO] MatrixAssemblyPI: 199.967 [ms]
[INFO] AdjustPhi: 10.078 [ms]
[INFO] ConstrainPressure: 0.005 [ms]
[INFO] MatrixAssemblyPII: 56.939 [ms]
[OGL LOG][lduLduBase.H:119] Initialising OGL
	OGL commit:  a2fc0ff+
	Branch: feat/on_device_permute 
	Build type: Release
	Ginkgo version: 1.7.0 ( develop)
	Ginkgo commit: sparse-communicator
	MPI is GPU aware: 1
	Forces host buffer based communication: 0
	CPU ranks per GPU: 1
	Matrix format: Ell
	End OGL_INFO
[OGL LOG][Proc: 0]: global_index_init: 0.624 [ms]
[OGL LOG][Proc: 0]p_local_cols: call_init: 0.85 [ms]
[OGL LOG][Proc: 0]p_local_rows: call_init: 0.532 [ms]
[OGL LOG][Proc: 0]p_local_ldu_map: call_init: 0.315 [ms]
[OGL LOG][Proc: 0]p_local_coeffs: call_init: 3.503 [ms]
[OGL LOG][Proc: 0]p_non_local_cols: call_init: 0.384 [ms]
[OGL LOG][Proc: 0]p_non_local_rows: call_init: 0.219 [ms]
[OGL LOG][Proc: 0]p_non_local_ldu_map: call_init: 0.215 [ms]
[OGL LOG][Proc: 0]p_non_local_coeffs: call_init: 0.211 [ms]
[OGL LOG][Proc: 0]p: init_local_sparsity_pattern: 300.68 [ms]
[OGL LOG][Proc: 0]p: init_non_local_sparsity_pattern: 1.415 [ms]
[OGL LOG][Proc: 0]p: update_local_matrix_data: 75.205 [ms]
[OGL LOG][Proc: 0]p: update_non_local_matrix_data: 0.189 [ms]
[OGL LOG][Proc: 0]device_partition: call_init: 0.141 [ms]
[OGL LOG][Proc: 0]p_matrix: call_init: 108.164 [ms]
[OGL LOG][Proc: 0]p_rhs: call_init: 1.279 [ms]
[OGL LOG][Proc: 0]p_solution: call_init: 2.644 [ms]
[OGL LOG][Preconditioner.H:121] Generate preconditioner BJ MaxBlockSize 1
[OGL LOG][Proc: 0]p: init_precond: 14.987 [ms]
[OGL LOG][StoppingCriterion.H:237] Creating stopping criterion with minIter 0 frequency 1
[OGL LOG][Proc: 0]p: generate_solver: 0.009 [ms]
[OGL LOG][Proc: 0]p: solve: 7597.21 [ms]
[OGL LOG][Proc: 0]p: copy_x_back: 3.45 [ms]
[OGL LOG][lduLduBase.H:330] 
Statistics:
	Time per iteration: 4757 [mu s]
	Time per residual norm calculation: 3629.000000 [mu s]
	Time per iteration and DOF: 0.594625 [ns]
	Retrieve results bandwidth 2.318000 [GByte/s]
[OGL LOG][Proc: 0]p: solve_multi_gpu: 7730.02 [ms]
BJcudaGKOCG:  Solving for p, Initial residual = 1, Final residual = 9.91262e-05, No Iterations 1597
[INFO] SolveP: 9537.86 [ms]
time step continuity errors : sum local = 7.61708e-09, global = -6.38325e-22, cumulative = -6.38325e-22
[INFO] ContinuityError: 23.945 [ms]
[INFO] CorrectBoundary: 0.807 [ms]
[INFO] PISOStep: 9902.73 [ms]
[INFO] MatrixAssemblyPI: 190.241 [ms]
[INFO] AdjustPhi: 9.405 [ms]
[INFO] ConstrainPressure: 0.002 [ms]
[INFO] MatrixAssemblyPII: 56.19 [ms]
[OGL LOG][Proc: 0]: global_index_init: 0.016 [ms]
[OGL LOG][Proc: 0]p_local_coeffs: call_update: 0.001 [ms]
[OGL LOG][Proc: 0]p_non_local_coeffs: call_update: 0 [ms]
[OGL LOG][Proc: 0]p: update_local_matrix_data: 32.854 [ms]
[OGL LOG][Proc: 0]p: update_non_local_matrix_data: 0.258 [ms]
[OGL LOG][Proc: 0]p: regenerate_distributed_matrix: 111.253 [ms]
[OGL LOG][Proc: 0]p_matrix: call_update: 112.292 [ms]
[OGL LOG][Proc: 0]p_rhs: call_update: 1.007 [ms]
[OGL LOG][Preconditioner.H:121] Generate preconditioner BJ MaxBlockSize 1
[OGL LOG][Proc: 0]p: init_precond: 1.707 [ms]
[OGL LOG][StoppingCriterion.H:237] Creating stopping criterion with minIter 958 frequency 25
[OGL LOG][Proc: 0]p: generate_solver: 0.001 [ms]
[OGL LOG][Proc: 0]p: solve: 5593.99 [ms]
[OGL LOG][Proc: 0]p: copy_x_back: 3.382 [ms]
[OGL LOG][lduLduBase.H:330] 
Statistics:
	Time per iteration: 3494 [mu s]
	Time per residual norm calculation: 1260.000000 [mu s]
	Time per iteration and DOF: 0.436750 [ns]
	Retrieve results bandwidth 2.365000 [GByte/s]
[OGL LOG][Proc: 0]p: solve_multi_gpu: 5717.08 [ms]
BJcudaGKOCG:  Solving for p, Initial residual = 0.786526, Final residual = 6.6723e-05, No Iterations 1601
[INFO] SolveP: 5758.15 [ms]
time step continuity errors : sum local = 6.40747e-09, global = 1.10792e-22, cumulative = -5.27533e-22
[INFO] ContinuityError: 25.102 [ms]
[INFO] CorrectBoundary: 1.028 [ms]
[INFO] PISOStep: 6113.55 [ms]
[INFO] TimeStep: 17020.4 [ms]
ExecutionTime = 17.04 s  ClockTime = 18 s

Time = 0.0005

Courant Number mean: 0.0159725 max: 0.41252
[INFO] MatrixAssemblyU: 169.284 [ms]
DILUPBiCGStab:  Solving for Ux, Initial residual = 0.129596, Final residual = 0.00510252, No Iterations 5
DILUPBiCGStab:  Solving for Uy, Initial residual = 0.426763, Final residual = 0.0132344, No Iterations 5
DILUPBiCGStab:  Solving for Uz, Initial residual = 0.993468, Final residual = 0.0333269, No Iterations 5
[INFO] MomentumPredictor: 1458.84 [ms]
[INFO] MatrixAssemblyPI: 196.177 [ms]
[INFO] AdjustPhi: 9.428 [ms]
[INFO] ConstrainPressure: 0.002 [ms]
[INFO] MatrixAssemblyPII: 56.338 [ms]
[OGL LOG][Proc: 0]: global_index_init: 0.134 [ms]
[OGL LOG][Proc: 0]p_local_coeffs: call_update: 0 [ms]
[OGL LOG][Proc: 0]p_non_local_coeffs: call_update: 0 [ms]
[OGL LOG][Proc: 0]p: update_local_matrix_data: 32.221 [ms]
[OGL LOG][Proc: 0]p: update_non_local_matrix_data: 0.226 [ms]
[OGL LOG][Proc: 0]p: regenerate_distributed_matrix: 110.961 [ms]
[OGL LOG][Proc: 0]p_matrix: call_update: 111.85 [ms]
[OGL LOG][Proc: 0]p_rhs: call_update: 0.911 [ms]
[OGL LOG][Preconditioner.H:121] Generate preconditioner BJ MaxBlockSize 1
[OGL LOG][Proc: 0]p: init_precond: 1.327 [ms]
[OGL LOG][StoppingCriterion.H:237] Creating stopping criterion with minIter 960 frequency 17
[OGL LOG][Proc: 0]p: generate_solver: 0.001 [ms]
[OGL LOG][Proc: 0]p: solve: 5529.09 [ms]
[OGL LOG][Proc: 0]p: copy_x_back: 4.297 [ms]
[OGL LOG][lduLduBase.H:330] 
Statistics:
	Time per iteration: 3532 [mu s]
	Time per residual norm calculation: 1410.000000 [mu s]
	Time per iteration and DOF: 0.441500 [ns]
	Retrieve results bandwidth 1.861000 [GByte/s]
[OGL LOG][Proc: 0]p: solve_multi_gpu: 5652.42 [ms]
BJcudaGKOCG:  Solving for p, Initial residual = 0.824103, Final residual = 9.99369e-05, No Iterations 1565
[INFO] SolveP: 5692.28 [ms]
time step continuity errors : sum local = 1.46407e-08, global = -1.26927e-21, cumulative = -1.7968e-21
[INFO] ContinuityError: 28.995 [ms]
[INFO] CorrectBoundary: 1.977 [ms]
[INFO] PISOStep: 6055.16 [ms]
[INFO] MatrixAssemblyPI: 193.475 [ms]
[INFO] AdjustPhi: 9.555 [ms]
[INFO] ConstrainPressure: 0.002 [ms]
[INFO] MatrixAssemblyPII: 59.113 [ms]
[OGL LOG][Proc: 0]: global_index_init: 0.011 [ms]
[OGL LOG][Proc: 0]p_local_coeffs: call_update: 0 [ms]
[OGL LOG][Proc: 0]p_non_local_coeffs: call_update: 0 [ms]
[OGL LOG][Proc: 0]p: update_local_matrix_data: 31.914 [ms]
[OGL LOG][Proc: 0]p: update_non_local_matrix_data: 0.229 [ms]
[OGL LOG][Proc: 0]p: regenerate_distributed_matrix: 112.638 [ms]
[OGL LOG][Proc: 0]p_matrix: call_update: 113.654 [ms]
[OGL LOG][Proc: 0]p_rhs: call_update: 2.451 [ms]
[OGL LOG][Preconditioner.H:121] Generate preconditioner BJ MaxBlockSize 1
[OGL LOG][Proc: 0]p: init_precond: 1.785 [ms]
[OGL LOG][StoppingCriterion.H:237] Creating stopping criterion with minIter 939 frequency 17
[OGL LOG][Proc: 0]p: generate_solver: 0.001 [ms]
[OGL LOG][Proc: 0]p: solve: 5482.03 [ms]
[OGL LOG][Proc: 0]p: copy_x_back: 3.377 [ms]
[OGL LOG][lduLduBase.H:330] 
Statistics:
	Time per iteration: 3502 [mu s]
	Time per residual norm calculation: 1255.000000 [mu s]
	Time per iteration and DOF: 0.437750 [ns]
	Retrieve results bandwidth 2.368000 [GByte/s]
[OGL LOG][Proc: 0]p: solve_multi_gpu: 5609.33 [ms]
BJcudaGKOCG:  Solving for p, Initial residual = 0.767384, Final residual = 9.06245e-05, No Iterations 1565
[INFO] SolveP: 5649.19 [ms]
time step continuity errors : sum local = 1.35156e-08, global = -1.14525e-21, cumulative = -2.94205e-21
[INFO] ContinuityError: 24.156 [ms]
[INFO] CorrectBoundary: 0.723 [ms]
[INFO] PISOStep: 6005.34 [ms]
[INFO] TimeStep: 13712.2 [ms]
ExecutionTime = 30.74 s  ClockTime = 32 s

Time = 0.00075

Courant Number mean: 0.0243584 max: 0.471979
[INFO] MatrixAssemblyU: 169.814 [ms]
DILUPBiCGStab:  Solving for Ux, Initial residual = 0.0547582, Final residual = 0.00175939, No Iterations 5
DILUPBiCGStab:  Solving for Uy, Initial residual = 0.18208, Final residual = 0.00707536, No Iterations 5
DILUPBiCGStab:  Solving for Uz, Initial residual = 0.815462, Final residual = 0.0252626, No Iterations 5
[INFO] MomentumPredictor: 1455.42 [ms]
[INFO] MatrixAssemblyPI: 193.688 [ms]
[INFO] AdjustPhi: 9.459 [ms]
[INFO] ConstrainPressure: 0.002 [ms]
[INFO] MatrixAssemblyPII: 56.109 [ms]
[OGL LOG][Proc: 0]: global_index_init: 0.016 [ms]
[OGL LOG][Proc: 0]p_local_coeffs: call_update: 0 [ms]
[OGL LOG][Proc: 0]p_non_local_coeffs: call_update: 0 [ms]
[OGL LOG][Proc: 0]p: update_local_matrix_data: 32.411 [ms]
[OGL LOG][Proc: 0]p: update_non_local_matrix_data: 0.237 [ms]
[OGL LOG][Proc: 0]p: regenerate_distributed_matrix: 107.531 [ms]
[OGL LOG][Proc: 0]p_matrix: call_update: 108.622 [ms]
[OGL LOG][Proc: 0]p_rhs: call_update: 2.989 [ms]
[OGL LOG][Preconditioner.H:121] Generate preconditioner BJ MaxBlockSize 1
[OGL LOG][Proc: 0]p: init_precond: 1.357 [ms]
[OGL LOG][StoppingCriterion.H:237] Creating stopping criterion with minIter 939 frequency 17
[OGL LOG][Proc: 0]p: generate_solver: 0.001 [ms]
[OGL LOG][Proc: 0]p: solve: 5521.05 [ms]
[OGL LOG][Proc: 0]p: copy_x_back: 3.301 [ms]
[OGL LOG][lduLduBase.H:330] 
Statistics:
	Time per iteration: 3527 [mu s]
	Time per residual norm calculation: 1255.000000 [mu s]
	Time per iteration and DOF: 0.440875 [ns]
	Retrieve results bandwidth 2.423000 [GByte/s]
[OGL LOG][Proc: 0]p: solve_multi_gpu: 5639.54 [ms]
BJcudaGKOCG:  Solving for p, Initial residual = 0.848681, Final residual = 9.64069e-05, No Iterations 1565
[INFO] SolveP: 5680.35 [ms]
time step continuity errors : sum local = 1.29162e-08, global = -2.16153e-22, cumulative = -3.1582e-21
[INFO] ContinuityError: 25.158 [ms]
[INFO] CorrectBoundary: 0.372 [ms]
[INFO] PISOStep: 6033.79 [ms]
[INFO] MatrixAssemblyPI: 189.037 [ms]
[INFO] AdjustPhi: 11.403 [ms]
[INFO] ConstrainPressure: 0.002 [ms]
[INFO] MatrixAssemblyPII: 59.617 [ms]
[OGL LOG][Proc: 0]: global_index_init: 0.016 [ms]
[OGL LOG][Proc: 0]p_local_coeffs: call_update: 0 [ms]
[OGL LOG][Proc: 0]p_non_local_coeffs: call_update: 0 [ms]
[OGL LOG][Proc: 0]p: update_local_matrix_data: 31.493 [ms]
[OGL LOG][Proc: 0]p: update_non_local_matrix_data: 0.168 [ms]
[OGL LOG][Proc: 0]p: regenerate_distributed_matrix: 112.013 [ms]
[OGL LOG][Proc: 0]p_matrix: call_update: 112.653 [ms]
[OGL LOG][Proc: 0]p_rhs: call_update: 1.856 [ms]
[OGL LOG][Preconditioner.H:121] Generate preconditioner BJ MaxBlockSize 1
[OGL LOG][Proc: 0]p: init_precond: 1.852 [ms]
[OGL LOG][StoppingCriterion.H:237] Creating stopping criterion with minIter 939 frequency 17
[OGL LOG][Proc: 0]p: generate_solver: 0.001 [ms]
[OGL LOG][Proc: 0]p: solve: 5485.94 [ms]
[OGL LOG][Proc: 0]p: copy_x_back: 3.941 [ms]
[OGL LOG][lduLduBase.H:330] 
Statistics:
	Time per iteration: 3505 [mu s]
	Time per residual norm calculation: 1259.000000 [mu s]
	Time per iteration and DOF: 0.438125 [ns]
	Retrieve results bandwidth 2.029000 [GByte/s]
[OGL LOG][Proc: 0]p: solve_multi_gpu: 5612.39 [ms]
BJcudaGKOCG:  Solving for p, Initial residual = 0.815331, Final residual = 8.89294e-05, No Iterations 1565
[INFO] SolveP: 5651.23 [ms]
time step continuity errors : sum local = 1.16576e-08, global = -7.2556e-22, cumulative = -3.88376e-21
[INFO] ContinuityError: 24.477 [ms]
[INFO] CorrectBoundary: 0.79 [ms]
[INFO] PISOStep: 6004.29 [ms]
[INFO] TimeStep: 13687 [ms]
ExecutionTime = 44.41 s  ClockTime = 45 s

Time = 0.001

Courant Number mean: 0.029233 max: 0.467776
[INFO] MatrixAssemblyU: 172.167 [ms]
DILUPBiCGStab:  Solving for Ux, Initial residual = 0.0346509, Final residual = 0.00116377, No Iterations 5
DILUPBiCGStab:  Solving for Uy, Initial residual = 0.129013, Final residual = 0.00438847, No Iterations 5
DILUPBiCGStab:  Solving for Uz, Initial residual = 0.601234, Final residual = 0.0148447, No Iterations 5
[INFO] MomentumPredictor: 1450.69 [ms]
[INFO] MatrixAssemblyPI: 193.647 [ms]
[INFO] AdjustPhi: 9.956 [ms]
[INFO] ConstrainPressure: 0.002 [ms]
[INFO] MatrixAssemblyPII: 56.115 [ms]
[OGL LOG][Proc: 0]: global_index_init: 0.01 [ms]
[OGL LOG][Proc: 0]p_local_coeffs: call_update: 0 [ms]
[OGL LOG][Proc: 0]p_non_local_coeffs: call_update: 0 [ms]
[OGL LOG][Proc: 0]p: update_local_matrix_data: 32.397 [ms]
[OGL LOG][Proc: 0]p: update_non_local_matrix_data: 0.234 [ms]
[OGL LOG][Proc: 0]p: regenerate_distributed_matrix: 107.352 [ms]
[OGL LOG][Proc: 0]p_matrix: call_update: 108.692 [ms]
[OGL LOG][Proc: 0]p_rhs: call_update: 1.039 [ms]
[OGL LOG][Preconditioner.H:121] Generate preconditioner BJ MaxBlockSize 1
[OGL LOG][Proc: 0]p: init_precond: 1.263 [ms]
[OGL LOG][StoppingCriterion.H:237] Creating stopping criterion with minIter 939 frequency 17
[OGL LOG][Proc: 0]p: generate_solver: 0.001 [ms]
[OGL LOG][Proc: 0]p: solve: 3359.79 [ms]
[OGL LOG][Proc: 0]p: copy_x_back: 3.251 [ms]
[OGL LOG][lduLduBase.H:330] 
Statistics:
	Time per iteration: 3525 [mu s]
	Time per residual norm calculation: 1260.000000 [mu s]
	Time per iteration and DOF: 0.440625 [ns]
	Retrieve results bandwidth 2.460000 [GByte/s]
[OGL LOG][Proc: 0]p: solve_multi_gpu: 3477.71 [ms]
BJcudaGKOCG:  Solving for p, Initial residual = 0.769359, Final residual = 5.27014e-05, No Iterations 953
[INFO] SolveP: 3517.34 [ms]
time step continuity errors : sum local = 6.8814e-09, global = 1.45325e-22, cumulative = -3.73844e-21
[INFO] ContinuityError: 23.931 [ms]
[INFO] CorrectBoundary: 0.418 [ms]
[INFO] PISOStep: 3869.54 [ms]
[INFO] MatrixAssemblyPI: 187.685 [ms]
[INFO] AdjustPhi: 11.571 [ms]
[INFO] ConstrainPressure: 0.002 [ms]
[INFO] MatrixAssemblyPII: 58.479 [ms]
[OGL LOG][Proc: 0]: global_index_init: 0.013 [ms]
[OGL LOG][Proc: 0]p_local_coeffs: call_update: 0 [ms]
[OGL LOG][Proc: 0]p_non_local_coeffs: call_update: 0 [ms]
[OGL LOG][Proc: 0]p: update_local_matrix_data: 33.079 [ms]
[OGL LOG][Proc: 0]p: update_non_local_matrix_data: 0.17 [ms]
[OGL LOG][Proc: 0]p: regenerate_distributed_matrix: 112.564 [ms]
[OGL LOG][Proc: 0]p_matrix: call_update: 113.384 [ms]
[OGL LOG][Proc: 0]p_rhs: call_update: 2.223 [ms]
[OGL LOG][Preconditioner.H:121] Generate preconditioner BJ MaxBlockSize 1
[OGL LOG][Proc: 0]p: init_precond: 1.786 [ms]
[OGL LOG][StoppingCriterion.H:237] Creating stopping criterion with minIter 571 frequency 13
[OGL LOG][Proc: 0]p: generate_solver: 0.001 [ms]
[OGL LOG][Proc: 0]p: solve: 2715.29 [ms]
[OGL LOG][Proc: 0]p: copy_x_back: 2.999 [ms]
[OGL LOG][lduLduBase.H:330] 
Statistics:
	Time per iteration: 3535 [mu s]
	Time per residual norm calculation: 1250.000000 [mu s]
	Time per iteration and DOF: 0.441875 [ns]
	Retrieve results bandwidth 2.667000 [GByte/s]
[OGL LOG][Proc: 0]p: solve_multi_gpu: 2839.69 [ms]
BJcudaGKOCG:  Solving for p, Initial residual = 0.706673, Final residual = 7.07443e-05, No Iterations 768
[INFO] SolveP: 2880.26 [ms]
time step continuity errors : sum local = 8.85606e-09, global = -1.74147e-21, cumulative = -5.47991e-21
[INFO] ContinuityError: 22.97 [ms]
[INFO] CorrectBoundary: 0.762 [ms]
[INFO] PISOStep: 3228.36 [ms]
[INFO] TimeStep: 8744.14 [ms]
ExecutionTime = 53.13 s  ClockTime = 54 s

Time = 0.00125

Courant Number mean: 0.0333806 max: 0.472901
[INFO] MatrixAssemblyU: 171.111 [ms]
DILUPBiCGStab:  Solving for Ux, Initial residual = 0.0270929, Final residual = 0.000842209, No Iterations 5
DILUPBiCGStab:  Solving for Uy, Initial residual = 0.0811964, Final residual = 0.00325903, No Iterations 5
DILUPBiCGStab:  Solving for Uz, Initial residual = 0.447955, Final residual = 0.0108784, No Iterations 5
[INFO] MomentumPredictor: 1452.33 [ms]
[INFO] MatrixAssemblyPI: 195.422 [ms]
[INFO] AdjustPhi: 9.351 [ms]
[INFO] ConstrainPressure: 0.002 [ms]
[INFO] MatrixAssemblyPII: 56.175 [ms]
[OGL LOG][Proc: 0]: global_index_init: 0.01 [ms]
[OGL LOG][Proc: 0]p_local_coeffs: call_update: 0 [ms]
[OGL LOG][Proc: 0]p_non_local_coeffs: call_update: 0 [ms]
[OGL LOG][Proc: 0]p: update_local_matrix_data: 32.41 [ms]
[OGL LOG][Proc: 0]p: update_non_local_matrix_data: 0.164 [ms]
[OGL LOG][Proc: 0]p: regenerate_distributed_matrix: 107.256 [ms]
[OGL LOG][Proc: 0]p_matrix: call_update: 107.921 [ms]
[OGL LOG][Proc: 0]p_rhs: call_update: 2.607 [ms]
[OGL LOG][Preconditioner.H:121] Generate preconditioner BJ MaxBlockSize 1
[OGL LOG][Proc: 0]p: init_precond: 1.279 [ms]
[OGL LOG][StoppingCriterion.H:237] Creating stopping criterion with minIter 460 frequency 12
[OGL LOG][Proc: 0]p: generate_solver: 0.001 [ms]
[OGL LOG][Proc: 0]p: solve: 2685.79 [ms]
[OGL LOG][Proc: 0]p: copy_x_back: 3.001 [ms]
[OGL LOG][lduLduBase.H:330] 
Statistics:
	Time per iteration: 3605 [mu s]
	Time per residual norm calculation: 1263.000000 [mu s]
	Time per iteration and DOF: 0.450625 [ns]
	Retrieve results bandwidth 2.665000 [GByte/s]
[OGL LOG][Proc: 0]p: solve_multi_gpu: 2802.97 [ms]
BJcudaGKOCG:  Solving for p, Initial residual = 0.774785, Final residual = 8.18932e-05, No Iterations 745
[INFO] SolveP: 2842.38 [ms]
time step continuity errors : sum local = 8.45157e-09, global = -1.94742e-21, cumulative = -7.42733e-21
[INFO] ContinuityError: 25.224 [ms]
[INFO] CorrectBoundary: 1.958 [ms]
[INFO] PISOStep: 3197.43 [ms]
[INFO] MatrixAssemblyPI: 187.226 [ms]
[INFO] AdjustPhi: 10.185 [ms]
[INFO] ConstrainPressure: 0.003 [ms]
[INFO] MatrixAssemblyPII: 58.429 [ms]
[OGL LOG][Proc: 0]: global_index_init: 0.062 [ms]
[OGL LOG][Proc: 0]p_local_coeffs: call_update: 0 [ms]
[OGL LOG][Proc: 0]p_non_local_coeffs: call_update: 0 [ms]
[OGL LOG][Proc: 0]p: update_local_matrix_data: 31.861 [ms]
[OGL LOG][Proc: 0]p: update_non_local_matrix_data: 0.245 [ms]
[OGL LOG][Proc: 0]p: regenerate_distributed_matrix: 111.763 [ms]
[OGL LOG][Proc: 0]p_matrix: call_update: 112.676 [ms]
[OGL LOG][Proc: 0]p_rhs: call_update: 2.728 [ms]
[OGL LOG][Preconditioner.H:121] Generate preconditioner BJ MaxBlockSize 1
[OGL LOG][Proc: 0]p: init_precond: 1.855 [ms]
[OGL LOG][StoppingCriterion.H:237] Creating stopping criterion with minIter 447 frequency 12
[OGL LOG][Proc: 0]p: generate_solver: 0.001 [ms]
[OGL LOG][Proc: 0]p: solve: 2638.77 [ms]
[OGL LOG][Proc: 0]p: copy_x_back: 2.98 [ms]
[OGL LOG][lduLduBase.H:330] 
Statistics:
	Time per iteration: 3541 [mu s]
	Time per residual norm calculation: 1257.000000 [mu s]
	Time per iteration and DOF: 0.442625 [ns]
	Retrieve results bandwidth 2.684000 [GByte/s]
[OGL LOG][Proc: 0]p: solve_multi_gpu: 2763.5 [ms]
BJcudaGKOCG:  Solving for p, Initial residual = 0.723596, Final residual = 7.50966e-05, No Iterations 745
[INFO] SolveP: 2803.1 [ms]
time step continuity errors : sum local = 7.51212e-09, global = -5.77763e-22, cumulative = -8.00509e-21
[INFO] ContinuityError: 24.071 [ms]
[INFO] CorrectBoundary: 0.501 [ms]
[INFO] PISOStep: 3149.41 [ms]
[INFO] TimeStep: 7992.96 [ms]
ExecutionTime = 61.12 s  ClockTime = 62 s

Time = 0.0015

Courant Number mean: 0.036686 max: 0.475571
[INFO] MatrixAssemblyU: 167.902 [ms]
DILUPBiCGStab:  Solving for Ux, Initial residual = 0.0203809, Final residual = 0.0006034, No Iterations 5
DILUPBiCGStab:  Solving for Uy, Initial residual = 0.06567, Final residual = 0.0022417, No Iterations 5
DILUPBiCGStab:  Solving for Uz, Initial residual = 0.325728, Final residual = 0.00778258, No Iterations 5
[INFO] MomentumPredictor: 1456.6 [ms]
[INFO] MatrixAssemblyPI: 195.488 [ms]
[INFO] AdjustPhi: 11.901 [ms]
[INFO] ConstrainPressure: 0.002 [ms]
[INFO] MatrixAssemblyPII: 56.418 [ms]
[OGL LOG][Proc: 0]: global_index_init: 0.036 [ms]
[OGL LOG][Proc: 0]p_local_coeffs: call_update: 0 [ms]
[OGL LOG][Proc: 0]p_non_local_coeffs: call_update: 0 [ms]
[OGL LOG][Proc: 0]p: update_local_matrix_data: 31.952 [ms]
[OGL LOG][Proc: 0]p: update_non_local_matrix_data: 0.161 [ms]
[OGL LOG][Proc: 0]p: regenerate_distributed_matrix: 106.909 [ms]
[OGL LOG][Proc: 0]p_matrix: call_update: 108.221 [ms]
[OGL LOG][Proc: 0]p_rhs: call_update: 1.062 [ms]
[OGL LOG][Preconditioner.H:121] Generate preconditioner BJ MaxBlockSize 1
[OGL LOG][Proc: 0]p: init_precond: 1.911 [ms]
[OGL LOG][StoppingCriterion.H:237] Creating stopping criterion with minIter 447 frequency 12
[OGL LOG][Proc: 0]p: generate_solver: 0.001 [ms]
[OGL LOG][Proc: 0]p: solve: 2674.04 [ms]
[OGL LOG][Proc: 0]p: copy_x_back: 3.281 [ms]
[OGL LOG][lduLduBase.H:330] 
Statistics:
	Time per iteration: 3589 [mu s]
	Time per residual norm calculation: 1256.000000 [mu s]
	Time per iteration and DOF: 0.448625 [ns]
	Retrieve results bandwidth 2.438000 [GByte/s]
[OGL LOG][Proc: 0]p: solve_multi_gpu: 2794.28 [ms]
BJcudaGKOCG:  Solving for p, Initial residual = 0.681289, Final residual = 9.79383e-05, No Iterations 745
[INFO] SolveP: 2833.6 [ms]
time step continuity errors : sum local = 1.01617e-08, global = -5.45526e-22, cumulative = -8.55061e-21
[INFO] ContinuityError: 24.876 [ms]
[INFO] CorrectBoundary: 0.542 [ms]
[INFO] PISOStep: 3190.89 [ms]
[INFO] MatrixAssemblyPI: 187.874 [ms]
[INFO] AdjustPhi: 9.361 [ms]
[INFO] ConstrainPressure: 0.002 [ms]
[INFO] MatrixAssemblyPII: 58.745 [ms]
[OGL LOG][Proc: 0]: global_index_init: 0.131 [ms]
[OGL LOG][Proc: 0]p_local_coeffs: call_update: 0 [ms]
[OGL LOG][Proc: 0]p_non_local_coeffs: call_update: 0 [ms]
[OGL LOG][Proc: 0]p: update_local_matrix_data: 32.719 [ms]
[OGL LOG][Proc: 0]p: update_non_local_matrix_data: 0.167 [ms]
[OGL LOG][Proc: 0]p: regenerate_distributed_matrix: 111.362 [ms]
[OGL LOG][Proc: 0]p_matrix: call_update: 112.508 [ms]
[OGL LOG][Proc: 0]p_rhs: call_update: 2.138 [ms]
[OGL LOG][Preconditioner.H:121] Generate preconditioner BJ MaxBlockSize 1
[OGL LOG][Proc: 0]p: init_precond: 1.397 [ms]
[OGL LOG][StoppingCriterion.H:237] Creating stopping criterion with minIter 447 frequency 12
[OGL LOG][Proc: 0]p: generate_solver: 0.001 [ms]
[OGL LOG][Proc: 0]p: solve: 2645.53 [ms]
[OGL LOG][Proc: 0]p: copy_x_back: 2.986 [ms]
[OGL LOG][lduLduBase.H:330] 
Statistics:
	Time per iteration: 3551 [mu s]
	Time per residual norm calculation: 1255.000000 [mu s]
	Time per iteration and DOF: 0.443875 [ns]
	Retrieve results bandwidth 2.679000 [GByte/s]
[OGL LOG][Proc: 0]p: solve_multi_gpu: 2767.62 [ms]
BJcudaGKOCG:  Solving for p, Initial residual = 0.620506, Final residual = 7.41766e-05, No Iterations 745
[INFO] SolveP: 2807.75 [ms]
time step continuity errors : sum local = 7.23741e-09, global = -1.21141e-21, cumulative = -9.76202e-21
[INFO] ContinuityError: 23.654 [ms]
[INFO] CorrectBoundary: 1.117 [ms]
[INFO] PISOStep: 3154.53 [ms]
[INFO] TimeStep: 7992.87 [ms]
ExecutionTime = 69.09 s  ClockTime = 70 s

Time = 0.00175

Courant Number mean: 0.039604 max: 0.477516
[INFO] MatrixAssemblyU: 167.666 [ms]
DILUPBiCGStab:  Solving for Ux, Initial residual = 0.0173936, Final residual = 0.000478431, No Iterations 5
DILUPBiCGStab:  Solving for Uy, Initial residual = 0.048859, Final residual = 0.00163381, No Iterations 5
DILUPBiCGStab:  Solving for Uz, Initial residual = 0.252566, Final residual = 0.00730439, No Iterations 5
[INFO] MomentumPredictor: 1460.91 [ms]
[INFO] MatrixAssemblyPI: 193.852 [ms]
[INFO] AdjustPhi: 9.399 [ms]
[INFO] ConstrainPressure: 0.003 [ms]
[INFO] MatrixAssemblyPII: 55.776 [ms]
[OGL LOG][Proc: 0]: global_index_init: 0.012 [ms]
[OGL LOG][Proc: 0]p_local_coeffs: call_update: 0 [ms]
[OGL LOG][Proc: 0]p_non_local_coeffs: call_update: 0 [ms]
[OGL LOG][Proc: 0]p: update_local_matrix_data: 33.415 [ms]
[OGL LOG][Proc: 0]p: update_non_local_matrix_data: 0.231 [ms]
[OGL LOG][Proc: 0]p: regenerate_distributed_matrix: 107.246 [ms]
[OGL LOG][Proc: 0]p_matrix: call_update: 108.243 [ms]
[OGL LOG][Proc: 0]p_rhs: call_update: 2.291 [ms]
[OGL LOG][Preconditioner.H:121] Generate preconditioner BJ MaxBlockSize 1
[OGL LOG][Proc: 0]p: init_precond: 1.392 [ms]
[OGL LOG][StoppingCriterion.H:237] Creating stopping criterion with minIter 447 frequency 12
[OGL LOG][Proc: 0]p: generate_solver: 0.001 [ms]
[OGL LOG][Proc: 0]p: solve: 5412.89 [ms]
[OGL LOG][Proc: 0]p: copy_x_back: 3.053 [ms]
[OGL LOG][lduLduBase.H:330] 
Statistics:
	Time per iteration: 3577 [mu s]
	Time per residual norm calculation: 1259.000000 [mu s]
	Time per iteration and DOF: 0.447125 [ns]
	Retrieve results bandwidth 2.620000 [GByte/s]
[OGL LOG][Proc: 0]p: solve_multi_gpu: 5528.91 [ms]
BJcudaGKOCG:  Solving for p, Initial residual = 0.677198, Final residual = 8.42506e-05, No Iterations 1513
[INFO] SolveP: 5570.18 [ms]
time step continuity errors : sum local = 6.51561e-09, global = -2.17954e-21, cumulative = -1.19416e-20
[INFO] ContinuityError: 24.87 [ms]
[INFO] CorrectBoundary: 0.447 [ms]
[INFO] PISOStep: 5922.18 [ms]
[INFO] MatrixAssemblyPI: 187.936 [ms]
[INFO] AdjustPhi: 9.794 [ms]
[INFO] ConstrainPressure: 0.002 [ms]
[INFO] MatrixAssemblyPII: 58.623 [ms]
[OGL LOG][Proc: 0]: global_index_init: 0.106 [ms]
[OGL LOG][Proc: 0]p_local_coeffs: call_update: 0 [ms]
[OGL LOG][Proc: 0]p_non_local_coeffs: call_update: 0 [ms]
[OGL LOG][Proc: 0]p: update_local_matrix_data: 31.755 [ms]
[OGL LOG][Proc: 0]p: update_non_local_matrix_data: 0.163 [ms]
[OGL LOG][Proc: 0]p: regenerate_distributed_matrix: 110.862 [ms]
[OGL LOG][Proc: 0]p_matrix: call_update: 112.025 [ms]
[OGL LOG][Proc: 0]p_rhs: call_update: 1.11 [ms]
[OGL LOG][Preconditioner.H:121] Generate preconditioner BJ MaxBlockSize 1
[OGL LOG][Proc: 0]p: init_precond: 1.772 [ms]
[OGL LOG][StoppingCriterion.H:237] Creating stopping criterion with minIter 907 frequency 17
[OGL LOG][Proc: 0]p: generate_solver: 0.001 [ms]
[OGL LOG][Proc: 0]p: solve: 5302.8 [ms]
[OGL LOG][Proc: 0]p: copy_x_back: 3.235 [ms]
[OGL LOG][lduLduBase.H:330] 
Statistics:
	Time per iteration: 3502 [mu s]
	Time per residual norm calculation: 1259.000000 [mu s]
	Time per iteration and DOF: 0.437750 [ns]
	Retrieve results bandwidth 2.472000 [GByte/s]
[OGL LOG][Proc: 0]p: solve_multi_gpu: 5425.22 [ms]
BJcudaGKOCG:  Solving for p, Initial residual = 0.61734, Final residual = 7.54072e-05, No Iterations 1514
[INFO] SolveP: 5464.61 [ms]
time step continuity errors : sum local = 5.80159e-09, global = -2.5033e-21, cumulative = -1.44449e-20
[INFO] ContinuityError: 22.675 [ms]
[INFO] CorrectBoundary: 0.39 [ms]
[INFO] PISOStep: 5812.2 [ms]
[INFO] TimeStep: 13385.7 [ms]
ExecutionTime = 82.46 s  ClockTime = 83 s

Time = 0.002

Courant Number mean: 0.0421309 max: 0.47922
[INFO] MatrixAssemblyU: 169.573 [ms]
DILUPBiCGStab:  Solving for Ux, Initial residual = 0.0142563, Final residual = 0.000366459, No Iterations 5
DILUPBiCGStab:  Solving for Uy, Initial residual = 0.0416203, Final residual = 0.00126871, No Iterations 5
DILUPBiCGStab:  Solving for Uz, Initial residual = 0.19672, Final residual = 0.00549275, No Iterations 5
[INFO] MomentumPredictor: 1449.5 [ms]
[INFO] MatrixAssemblyPI: 192.973 [ms]
[INFO] AdjustPhi: 9.373 [ms]
[INFO] ConstrainPressure: 0.002 [ms]
[INFO] MatrixAssemblyPII: 55.98 [ms]
[OGL LOG][Proc: 0]: global_index_init: 0.015 [ms]
[OGL LOG][Proc: 0]p_local_coeffs: call_update: 0 [ms]
[OGL LOG][Proc: 0]p_non_local_coeffs: call_update: 0 [ms]
[OGL LOG][Proc: 0]p: update_local_matrix_data: 32.5 [ms]
[OGL LOG][Proc: 0]p: update_non_local_matrix_data: 0.159 [ms]
[OGL LOG][Proc: 0]p: regenerate_distributed_matrix: 107.858 [ms]
[OGL LOG][Proc: 0]p_matrix: call_update: 108.952 [ms]
[OGL LOG][Proc: 0]p_rhs: call_update: 1.051 [ms]
[OGL LOG][Preconditioner.H:121] Generate preconditioner BJ MaxBlockSize 1
[OGL LOG][Proc: 0]p: init_precond: 1.218 [ms]
[OGL LOG][StoppingCriterion.H:237] Creating stopping criterion with minIter 908 frequency 17
[OGL LOG][Proc: 0]p: generate_solver: 0.001 [ms]
[OGL LOG][Proc: 0]p: solve: 5338.69 [ms]
[OGL LOG][Proc: 0]p: copy_x_back: 2.93 [ms]
[OGL LOG][lduLduBase.H:330] 
Statistics:
	Time per iteration: 3526 [mu s]
	Time per residual norm calculation: 1255.000000 [mu s]
	Time per iteration and DOF: 0.440750 [ns]
	Retrieve results bandwidth 2.730000 [GByte/s]
[OGL LOG][Proc: 0]p: solve_multi_gpu: 5455.05 [ms]
BJcudaGKOCG:  Solving for p, Initial residual = 0.585987, Final residual = 8.84979e-05, No Iterations 1514
[INFO] SolveP: 5495.11 [ms]
time step continuity errors : sum local = 6.51458e-09, global = -3.30821e-21, cumulative = -1.77531e-20
[INFO] ContinuityError: 23.836 [ms]
[INFO] CorrectBoundary: 0.479 [ms]
[INFO] PISOStep: 5845.02 [ms]
[INFO] MatrixAssemblyPI: 187.686 [ms]
[INFO] AdjustPhi: 10.79 [ms]
[INFO] ConstrainPressure: 0.002 [ms]
[INFO] MatrixAssemblyPII: 58.562 [ms]
[OGL LOG][Proc: 0]: global_index_init: 0.101 [ms]
[OGL LOG][Proc: 0]p_local_coeffs: call_update: 0 [ms]
[OGL LOG][Proc: 0]p_non_local_coeffs: call_update: 0 [ms]
[OGL LOG][Proc: 0]p: update_local_matrix_data: 33.692 [ms]
[OGL LOG][Proc: 0]p: update_non_local_matrix_data: 0.165 [ms]
[OGL LOG][Proc: 0]p: regenerate_distributed_matrix: 111.641 [ms]
[OGL LOG][Proc: 0]p_matrix: call_update: 113.215 [ms]
[OGL LOG][Proc: 0]p_rhs: call_update: 1.052 [ms]
[OGL LOG][Preconditioner.H:121] Generate preconditioner BJ MaxBlockSize 1
[OGL LOG][Proc: 0]p: init_precond: 1.364 [ms]
[OGL LOG][StoppingCriterion.H:237] Creating stopping criterion with minIter 908 frequency 17
[OGL LOG][Proc: 0]p: generate_solver: 0.001 [ms]
[OGL LOG][Proc: 0]p: solve: 5300.76 [ms]
[OGL LOG][Proc: 0]p: copy_x_back: 3.065 [ms]
[OGL LOG][lduLduBase.H:330] 
Statistics:
	Time per iteration: 3501 [mu s]
	Time per residual norm calculation: 1266.000000 [mu s]
	Time per iteration and DOF: 0.437625 [ns]
	Retrieve results bandwidth 2.610000 [GByte/s]
[OGL LOG][Proc: 0]p: solve_multi_gpu: 5421.86 [ms]
BJcudaGKOCG:  Solving for p, Initial residual = 0.528121, Final residual = 8.1651e-05, No Iterations 1514
[INFO] SolveP: 5462.94 [ms]
time step continuity errors : sum local = 5.9963e-09, global = -3.11697e-21, cumulative = -2.087e-20
[INFO] ContinuityError: 24.348 [ms]
[INFO] CorrectBoundary: 1.146 [ms]
[INFO] PISOStep: 5812.89 [ms]
[INFO] TimeStep: 13300.1 [ms]
ExecutionTime = 95.74 s  ClockTime = 97 s

Time = 0.00225

Courant Number mean: 0.0444171 max: 0.48037
[INFO] MatrixAssemblyU: 168.836 [ms]
DILUPBiCGStab:  Solving for Ux, Initial residual = 0.0125413, Final residual = 0.0003014, No Iterations 5
DILUPBiCGStab:  Solving for Uy, Initial residual = 0.0334852, Final residual = 0.000894093, No Iterations 5
DILUPBiCGStab:  Solving for Uz, Initial residual = 0.158378, Final residual = 0.00518574, No Iterations 5
[INFO] MomentumPredictor: 1451.86 [ms]
[INFO] MatrixAssemblyPI: 192.843 [ms]
[INFO] AdjustPhi: 9.506 [ms]
[INFO] ConstrainPressure: 0.002 [ms]
[INFO] MatrixAssemblyPII: 56.324 [ms]
[OGL LOG][Proc: 0]: global_index_init: 0.014 [ms]
[OGL LOG][Proc: 0]p_local_coeffs: call_update: 0 [ms]
[OGL LOG][Proc: 0]p_non_local_coeffs: call_update: 0 [ms]
[OGL LOG][Proc: 0]p: update_local_matrix_data: 32.572 [ms]
[OGL LOG][Proc: 0]p: update_non_local_matrix_data: 0.239 [ms]
[OGL LOG][Proc: 0]p: regenerate_distributed_matrix: 108.04 [ms]
[OGL LOG][Proc: 0]p_matrix: call_update: 109.335 [ms]
[OGL LOG][Proc: 0]p_rhs: call_update: 1.319 [ms]
[OGL LOG][Preconditioner.H:121] Generate preconditioner BJ MaxBlockSize 1
[OGL LOG][Proc: 0]p: init_precond: 1.253 [ms]
[OGL LOG][StoppingCriterion.H:237] Creating stopping criterion with minIter 908 frequency 17
[OGL LOG][Proc: 0]p: generate_solver: 0.001 [ms]
[OGL LOG][Proc: 0]p: solve: 5270.75 [ms]
[OGL LOG][Proc: 0]p: copy_x_back: 3.002 [ms]
[OGL LOG][lduLduBase.H:330] 
Statistics:
	Time per iteration: 3520 [mu s]
	Time per residual norm calculation: 1254.000000 [mu s]
	Time per iteration and DOF: 0.440000 [ns]
	Retrieve results bandwidth 2.664000 [GByte/s]
[OGL LOG][Proc: 0]p: solve_multi_gpu: 5388.25 [ms]
BJcudaGKOCG:  Solving for p, Initial residual = 0.572956, Final residual = 8.98985e-05, No Iterations 1497
[INFO] SolveP: 5428.93 [ms]
time step continuity errors : sum local = 5.73557e-09, global = -3.59422e-21, cumulative = -2.44642e-20
[INFO] ContinuityError: 24.382 [ms]
[INFO] CorrectBoundary: 3.339 [ms]
[INFO] PISOStep: 5780.38 [ms]
[INFO] MatrixAssemblyPI: 188.249 [ms]
[INFO] AdjustPhi: 9.502 [ms]
[INFO] ConstrainPressure: 0.002 [ms]
[INFO] MatrixAssemblyPII: 58.254 [ms]
[OGL LOG][Proc: 0]: global_index_init: 0.074 [ms]
[OGL LOG][Proc: 0]p_local_coeffs: call_update: 0 [ms]
[OGL LOG][Proc: 0]p_non_local_coeffs: call_update: 0 [ms]
[OGL LOG][Proc: 0]p: update_local_matrix_data: 32.226 [ms]
[OGL LOG][Proc: 0]p: update_non_local_matrix_data: 0.165 [ms]
[OGL LOG][Proc: 0]p: regenerate_distributed_matrix: 112.081 [ms]
[OGL LOG][Proc: 0]p_matrix: call_update: 112.919 [ms]
[OGL LOG][Proc: 0]p_rhs: call_update: 1.005 [ms]
[OGL LOG][Preconditioner.H:121] Generate preconditioner BJ MaxBlockSize 1
[OGL LOG][Proc: 0]p: init_precond: 1.751 [ms]
[OGL LOG][StoppingCriterion.H:237] Creating stopping criterion with minIter 898 frequency 17
[OGL LOG][Proc: 0]p: generate_solver: 0.001 [ms]
[OGL LOG][Proc: 0]p: solve: 5248.32 [ms]
[OGL LOG][Proc: 0]p: copy_x_back: 3.256 [ms]
[OGL LOG][lduLduBase.H:330] 
Statistics:
	Time per iteration: 3505 [mu s]
	Time per residual norm calculation: 1259.000000 [mu s]
	Time per iteration and DOF: 0.438125 [ns]
	Retrieve results bandwidth 2.457000 [GByte/s]
[OGL LOG][Proc: 0]p: solve_multi_gpu: 5373.33 [ms]
BJcudaGKOCG:  Solving for p, Initial residual = 0.511839, Final residual = 8.37406e-05, No Iterations 1497
[INFO] SolveP: 5412.81 [ms]
time step continuity errors : sum local = 5.34101e-09, global = -6.98729e-22, cumulative = -2.5163e-20
[INFO] ContinuityError: 22.429 [ms]
[INFO] CorrectBoundary: 0.387 [ms]
[INFO] PISOStep: 5759.15 [ms]
[INFO] TimeStep: 13184.3 [ms]
ExecutionTime = 108.9 s  ClockTime = 110 s

Time = 0.0025

Courant Number mean: 0.0464716 max: 0.481475
[INFO] MatrixAssemblyU: 168.29 [ms]
DILUPBiCGStab:  Solving for Ux, Initial residual = 0.0107889, Final residual = 0.000242453, No Iterations 5
DILUPBiCGStab:  Solving for Uy, Initial residual = 0.0293485, Final residual = 0.000733662, No Iterations 5
DILUPBiCGStab:  Solving for Uz, Initial residual = 0.127624, Final residual = 0.00418991, No Iterations 5
[INFO] MomentumPredictor: 1454.86 [ms]
[INFO] MatrixAssemblyPI: 194.968 [ms]
[INFO] AdjustPhi: 9.457 [ms]
[INFO] ConstrainPressure: 0.002 [ms]
[INFO] MatrixAssemblyPII: 56.356 [ms]
[OGL LOG][Proc: 0]: global_index_init: 0.033 [ms]
[OGL LOG][Proc: 0]p_local_coeffs: call_update: 0 [ms]
[OGL LOG][Proc: 0]p_non_local_coeffs: call_update: 0 [ms]
[OGL LOG][Proc: 0]p: update_local_matrix_data: 32.233 [ms]
[OGL LOG][Proc: 0]p: update_non_local_matrix_data: 0.167 [ms]
[OGL LOG][Proc: 0]p: regenerate_distributed_matrix: 107.666 [ms]
[OGL LOG][Proc: 0]p_matrix: call_update: 108.68 [ms]
[OGL LOG][Proc: 0]p_rhs: call_update: 3.062 [ms]
[OGL LOG][Preconditioner.H:121] Generate preconditioner BJ MaxBlockSize 1
[OGL LOG][Proc: 0]p: init_precond: 1.276 [ms]
[OGL LOG][StoppingCriterion.H:237] Creating stopping criterion with minIter 898 frequency 17
[OGL LOG][Proc: 0]p: generate_solver: 0.001 [ms]
[OGL LOG][Proc: 0]p: solve: 5292.27 [ms]
[OGL LOG][Proc: 0]p: copy_x_back: 2.987 [ms]
[OGL LOG][lduLduBase.H:330] 
Statistics:
	Time per iteration: 3535 [mu s]
	Time per residual norm calculation: 1265.000000 [mu s]
	Time per iteration and DOF: 0.441875 [ns]
	Retrieve results bandwidth 2.678000 [GByte/s]
[OGL LOG][Proc: 0]p: solve_multi_gpu: 5412.27 [ms]
BJcudaGKOCG:  Solving for p, Initial residual = 0.496149, Final residual = 9.21718e-05, No Iterations 1497
[INFO] SolveP: 5451.51 [ms]
time step continuity errors : sum local = 5.70831e-09, global = -2.71703e-21, cumulative = -2.788e-20
[INFO] ContinuityError: 23.974 [ms]
[INFO] CorrectBoundary: 0.512 [ms]
[INFO] PISOStep: 5804.74 [ms]
[INFO] MatrixAssemblyPI: 186.677 [ms]
[INFO] AdjustPhi: 11.991 [ms]
[INFO] ConstrainPressure: 0.002 [ms]
[INFO] MatrixAssemblyPII: 59.282 [ms]
[OGL LOG][Proc: 0]: global_index_init: 0.114 [ms]
[OGL LOG][Proc: 0]p_local_coeffs: call_update: 0 [ms]
[OGL LOG][Proc: 0]p_non_local_coeffs: call_update: 0 [ms]
[OGL LOG][Proc: 0]p: update_local_matrix_data: 32.105 [ms]
[OGL LOG][Proc: 0]p: update_non_local_matrix_data: 0.234 [ms]
[OGL LOG][Proc: 0]p: regenerate_distributed_matrix: 111.461 [ms]
[OGL LOG][Proc: 0]p_matrix: call_update: 113.019 [ms]
[OGL LOG][Proc: 0]p_rhs: call_update: 1.043 [ms]
[OGL LOG][Preconditioner.H:121] Generate preconditioner BJ MaxBlockSize 1
[OGL LOG][Proc: 0]p: init_precond: 1.73 [ms]
[OGL LOG][StoppingCriterion.H:237] Creating stopping criterion with minIter 898 frequency 17
[OGL LOG][Proc: 0]p: generate_solver: 0.001 [ms]
[OGL LOG][Proc: 0]p: solve: 5249.79 [ms]
[OGL LOG][Proc: 0]p: copy_x_back: 2.997 [ms]
[OGL LOG][lduLduBase.H:330] 
Statistics:
	Time per iteration: 3506 [mu s]
	Time per residual norm calculation: 1254.000000 [mu s]
	Time per iteration and DOF: 0.438250 [ns]
	Retrieve results bandwidth 2.669000 [GByte/s]
[OGL LOG][Proc: 0]p: solve_multi_gpu: 5370.98 [ms]
BJcudaGKOCG:  Solving for p, Initial residual = 0.443184, Final residual = 8.76436e-05, No Iterations 1497
[INFO] SolveP: 5410.61 [ms]
time step continuity errors : sum local = 5.4044e-09, global = -1.49837e-21, cumulative = -2.93784e-20
[INFO] ContinuityError: 24.402 [ms]
[INFO] CorrectBoundary: 1.074 [ms]
[INFO] PISOStep: 5760.26 [ms]
[INFO] TimeStep: 13212.4 [ms]
ExecutionTime = 122.09 s  ClockTime = 123 s

Time = 0.00275

Courant Number mean: 0.0483595 max: 0.482248
[INFO] MatrixAssemblyU: 168.362 [ms]
DILUPBiCGStab:  Solving for Ux, Initial residual = 0.00966547, Final residual = 0.000204474, No Iterations 5
DILUPBiCGStab:  Solving for Uy, Initial residual = 0.0248277, Final residual = 0.000528925, No Iterations 5
DILUPBiCGStab:  Solving for Uz, Initial residual = 0.106665, Final residual = 0.00396546, No Iterations 5
[INFO] MomentumPredictor: 1459.41 [ms]
[INFO] MatrixAssemblyPI: 193.723 [ms]
[INFO] AdjustPhi: 10.041 [ms]
[INFO] ConstrainPressure: 0.003 [ms]
[INFO] MatrixAssemblyPII: 56.069 [ms]
[OGL LOG][Proc: 0]: global_index_init: 0.011 [ms]
[OGL LOG][Proc: 0]p_local_coeffs: call_update: 0 [ms]
[OGL LOG][Proc: 0]p_non_local_coeffs: call_update: 0 [ms]
[OGL LOG][Proc: 0]p: update_local_matrix_data: 32.208 [ms]
[OGL LOG][Proc: 0]p: update_non_local_matrix_data: 0.174 [ms]
[OGL LOG][Proc: 0]p: regenerate_distributed_matrix: 111.108 [ms]
[OGL LOG][Proc: 0]p_matrix: call_update: 112.222 [ms]
[OGL LOG][Proc: 0]p_rhs: call_update: 2.103 [ms]
[OGL LOG][Preconditioner.H:121] Generate preconditioner BJ MaxBlockSize 1
[OGL LOG][Proc: 0]p: init_precond: 1.281 [ms]
[OGL LOG][StoppingCriterion.H:237] Creating stopping criterion with minIter 898 frequency 17
[OGL LOG][Proc: 0]p: generate_solver: 0.002 [ms]
[OGL LOG][Proc: 0]p: solve: 5230.66 [ms]
[OGL LOG][Proc: 0]p: copy_x_back: 3.335 [ms]
[OGL LOG][lduLduBase.H:330] 
Statistics:
	Time per iteration: 3534 [mu s]
	Time per residual norm calculation: 1254.000000 [mu s]
	Time per iteration and DOF: 0.441750 [ns]
	Retrieve results bandwidth 2.398000 [GByte/s]
[OGL LOG][Proc: 0]p: solve_multi_gpu: 5353.79 [ms]
BJcudaGKOCG:  Solving for p, Initial residual = 0.471764, Final residual = 8.91951e-05, No Iterations 1480
[INFO] SolveP: 5393.1 [ms]
time step continuity errors : sum local = 4.99315e-09, global = -3.02579e-21, cumulative = -3.24042e-20
[INFO] ContinuityError: 23.608 [ms]
[INFO] CorrectBoundary: 0.352 [ms]
[INFO] PISOStep: 5746.36 [ms]
[INFO] MatrixAssemblyPI: 188.035 [ms]
[INFO] AdjustPhi: 9.427 [ms]
[INFO] ConstrainPressure: 0.002 [ms]
[INFO] MatrixAssemblyPII: 58.653 [ms]
[OGL LOG][Proc: 0]: global_index_init: 0.081 [ms]
[OGL LOG][Proc: 0]p_local_coeffs: call_update: 0 [ms]
[OGL LOG][Proc: 0]p_non_local_coeffs: call_update: 0 [ms]
[OGL LOG][Proc: 0]p: update_local_matrix_data: 32.352 [ms]
[OGL LOG][Proc: 0]p: update_non_local_matrix_data: 0.156 [ms]
[OGL LOG][Proc: 0]p: regenerate_distributed_matrix: 110.573 [ms]
[OGL LOG][Proc: 0]p_matrix: call_update: 111.502 [ms]
[OGL LOG][Proc: 0]p_rhs: call_update: 2.457 [ms]
[OGL LOG][Preconditioner.H:121] Generate preconditioner BJ MaxBlockSize 1
[OGL LOG][Proc: 0]p: init_precond: 1.883 [ms]
[OGL LOG][StoppingCriterion.H:237] Creating stopping criterion with minIter 888 frequency 17
[OGL LOG][Proc: 0]p: generate_solver: 0.001 [ms]
[OGL LOG][Proc: 0]p: solve: 5178.01 [ms]
[OGL LOG][Proc: 0]p: copy_x_back: 3.057 [ms]
[OGL LOG][lduLduBase.H:330] 
Statistics:
	Time per iteration: 3498 [mu s]
	Time per residual norm calculation: 1261.000000 [mu s]
	Time per iteration and DOF: 0.437250 [ns]
	Retrieve results bandwidth 2.616000 [GByte/s]
[OGL LOG][Proc: 0]p: solve_multi_gpu: 5301.78 [ms]
BJcudaGKOCG:  Solving for p, Initial residual = 0.417017, Final residual = 8.11687e-05, No Iterations 1480
[INFO] SolveP: 5341.9 [ms]
time step continuity errors : sum local = 4.54879e-09, global = -1.21614e-21, cumulative = -3.36203e-20
[INFO] ContinuityError: 23.633 [ms]
[INFO] CorrectBoundary: 1.906 [ms]
[INFO] PISOStep: 5689.52 [ms]
[INFO] TimeStep: 13087.8 [ms]
ExecutionTime = 135.16 s  ClockTime = 136 s

Time = 0.003

Courant Number mean: 0.0500919 max: 0.483038
[INFO] MatrixAssemblyU: 171.502 [ms]
DILUPBiCGStab:  Solving for Ux, Initial residual = 0.00857659, Final residual = 0.000170911, No Iterations 5
DILUPBiCGStab:  Solving for Uy, Initial residual = 0.0221859, Final residual = 0.000438777, No Iterations 5
DILUPBiCGStab:  Solving for Uz, Initial residual = 0.0890518, Final residual = 0.0033366, No Iterations 5
[INFO] MomentumPredictor: 1451.35 [ms]
[INFO] MatrixAssemblyPI: 193.614 [ms]
[INFO] AdjustPhi: 9.592 [ms]
[INFO] ConstrainPressure: 0.002 [ms]
[INFO] MatrixAssemblyPII: 55.903 [ms]
[OGL LOG][Proc: 0]: global_index_init: 0.011 [ms]
[OGL LOG][Proc: 0]p_local_coeffs: call_update: 0 [ms]
[OGL LOG][Proc: 0]p_non_local_coeffs: call_update: 0 [ms]
[OGL LOG][Proc: 0]p: update_local_matrix_data: 32.732 [ms]
[OGL LOG][Proc: 0]p: update_non_local_matrix_data: 0.168 [ms]
[OGL LOG][Proc: 0]p: regenerate_distributed_matrix: 108.362 [ms]
[OGL LOG][Proc: 0]p_matrix: call_update: 109.884 [ms]
[OGL LOG][Proc: 0]p_rhs: call_update: 1.044 [ms]
[OGL LOG][Preconditioner.H:121] Generate preconditioner BJ MaxBlockSize 1
[OGL LOG][Proc: 0]p: init_precond: 1.248 [ms]
[OGL LOG][StoppingCriterion.H:237] Creating stopping criterion with minIter 888 frequency 17
[OGL LOG][Proc: 0]p: generate_solver: 0.002 [ms]
[OGL LOG][Proc: 0]p: solve: 5113.4 [ms]
[OGL LOG][Proc: 0]p: copy_x_back: 2.876 [ms]
[OGL LOG][lduLduBase.H:330] 
Statistics:
	Time per iteration: 3536 [mu s]
	Time per residual norm calculation: 1260.000000 [mu s]
	Time per iteration and DOF: 0.442000 [ns]
	Retrieve results bandwidth 2.781000 [GByte/s]
[OGL LOG][Proc: 0]p: solve_multi_gpu: 5230.72 [ms]
BJcudaGKOCG:  Solving for p, Initial residual = 0.414522, Final residual = 6.51377e-05, No Iterations 1446
[INFO] SolveP: 5270.42 [ms]
time step continuity errors : sum local = 3.54332e-09, global = -3.34003e-21, cumulative = -3.69603e-20
[INFO] ContinuityError: 24.267 [ms]
[INFO] CorrectBoundary: 0.389 [ms]
[INFO] PISOStep: 5621.32 [ms]
[INFO] MatrixAssemblyPI: 188.205 [ms]
[INFO] AdjustPhi: 9.394 [ms]
[INFO] ConstrainPressure: 0.002 [ms]
[INFO] MatrixAssemblyPII: 58.278 [ms]
[OGL LOG][Proc: 0]: global_index_init: 0.025 [ms]
[OGL LOG][Proc: 0]p_local_coeffs: call_update: 0 [ms]
[OGL LOG][Proc: 0]p_non_local_coeffs: call_update: 0 [ms]
[OGL LOG][Proc: 0]p: update_local_matrix_data: 32.683 [ms]
[OGL LOG][Proc: 0]p: update_non_local_matrix_data: 0.247 [ms]
[OGL LOG][Proc: 0]p: regenerate_distributed_matrix: 113.698 [ms]
[OGL LOG][Proc: 0]p_matrix: call_update: 114.354 [ms]
[OGL LOG][Proc: 0]p_rhs: call_update: 0.947 [ms]
[OGL LOG][Preconditioner.H:121] Generate preconditioner BJ MaxBlockSize 1
[OGL LOG][Proc: 0]p: init_precond: 1.831 [ms]
[OGL LOG][StoppingCriterion.H:237] Creating stopping criterion with minIter 867 frequency 17
[OGL LOG][Proc: 0]p: generate_solver: 0.001 [ms]
[OGL LOG][Proc: 0]p: solve: 5120.44 [ms]
[OGL LOG][Proc: 0]p: copy_x_back: 3.1 [ms]
[OGL LOG][lduLduBase.H:330] 
Statistics:
	Time per iteration: 3499 [mu s]
	Time per residual norm calculation: 1253.000000 [mu s]
	Time per iteration and DOF: 0.437375 [ns]
	Retrieve results bandwidth 2.580000 [GByte/s]
[OGL LOG][Proc: 0]p: solve_multi_gpu: 5243.08 [ms]
BJcudaGKOCG:  Solving for p, Initial residual = 0.367643, Final residual = 9.35638e-05, No Iterations 1463
[INFO] SolveP: 5283.46 [ms]
time step continuity errors : sum local = 5.06659e-09, global = 3.57045e-24, cumulative = -3.69568e-20
[INFO] ContinuityError: 24.2 [ms]
[INFO] CorrectBoundary: 1.137 [ms]
[INFO] PISOStep: 5629.74 [ms]
[INFO] TimeStep: 12898 [ms]
ExecutionTime = 148.04 s  ClockTime = 149 s

Time = 0.00325

Courant Number mean: 0.051701 max: 0.483603
[INFO] MatrixAssemblyU: 168.231 [ms]
DILUPBiCGStab:  Solving for Ux, Initial residual = 0.00778548, Final residual = 0.000146896, No Iterations 5
DILUPBiCGStab:  Solving for Uy, Initial residual = 0.0194172, Final residual = 0.000339016, No Iterations 5
DILUPBiCGStab:  Solving for Uz, Initial residual = 0.0762499, Final residual = 0.00312506, No Iterations 5
[INFO] MomentumPredictor: 1453.05 [ms]
[INFO] MatrixAssemblyPI: 193.844 [ms]
[INFO] AdjustPhi: 9.499 [ms]
[INFO] ConstrainPressure: 0.002 [ms]
[INFO] MatrixAssemblyPII: 56.136 [ms]
[OGL LOG][Proc: 0]: global_index_init: 0.01 [ms]
[OGL LOG][Proc: 0]p_local_coeffs: call_update: 0 [ms]
[OGL LOG][Proc: 0]p_non_local_coeffs: call_update: 0 [ms]
[OGL LOG][Proc: 0]p: update_local_matrix_data: 32.198 [ms]
[OGL LOG][Proc: 0]p: update_non_local_matrix_data: 0.162 [ms]
[OGL LOG][Proc: 0]p: regenerate_distributed_matrix: 108.672 [ms]
[OGL LOG][Proc: 0]p_matrix: call_update: 110.306 [ms]
[OGL LOG][Proc: 0]p_rhs: call_update: 1.055 [ms]
[OGL LOG][Preconditioner.H:121] Generate preconditioner BJ MaxBlockSize 1
[OGL LOG][Proc: 0]p: init_precond: 1.241 [ms]
[OGL LOG][StoppingCriterion.H:237] Creating stopping criterion with minIter 877 frequency 17
[OGL LOG][Proc: 0]p: generate_solver: 0.001 [ms]
[OGL LOG][Proc: 0]p: solve: 5241.75 [ms]
[OGL LOG][Proc: 0]p: copy_x_back: 3.025 [ms]
[OGL LOG][lduLduBase.H:330] 
Statistics:
	Time per iteration: 3541 [mu s]
	Time per residual norm calculation: 1254.000000 [mu s]
	Time per iteration and DOF: 0.442625 [ns]
	Retrieve results bandwidth 2.644000 [GByte/s]
[OGL LOG][Proc: 0]p: solve_multi_gpu: 5359.57 [ms]
BJcudaGKOCG:  Solving for p, Initial residual = 0.383672, Final residual = 9.34291e-05, No Iterations 1480
[INFO] SolveP: 5399.35 [ms]
time step continuity errors : sum local = 4.75086e-09, global = -1.56931e-21, cumulative = -3.85261e-20
[INFO] ContinuityError: 24.128 [ms]
[INFO] CorrectBoundary: 1.119 [ms]
[INFO] PISOStep: 5749.97 [ms]
[INFO] MatrixAssemblyPI: 187.414 [ms]
[INFO] AdjustPhi: 9.378 [ms]
[INFO] ConstrainPressure: 0.002 [ms]
[INFO] MatrixAssemblyPII: 58.294 [ms]
[OGL LOG][Proc: 0]: global_index_init: 0.108 [ms]
[OGL LOG][Proc: 0]p_local_coeffs: call_update: 0 [ms]
[OGL LOG][Proc: 0]p_non_local_coeffs: call_update: 0 [ms]
[OGL LOG][Proc: 0]p: update_local_matrix_data: 31.483 [ms]
[OGL LOG][Proc: 0]p: update_non_local_matrix_data: 0.171 [ms]
[OGL LOG][Proc: 0]p: regenerate_distributed_matrix: 110.2 [ms]
[OGL LOG][Proc: 0]p_matrix: call_update: 111.63 [ms]
[OGL LOG][Proc: 0]p_rhs: call_update: 1.144 [ms]
[OGL LOG][Preconditioner.H:121] Generate preconditioner BJ MaxBlockSize 1
[OGL LOG][Proc: 0]p: init_precond: 1.748 [ms]
[OGL LOG][StoppingCriterion.H:237] Creating stopping criterion with minIter 888 frequency 17
[OGL LOG][Proc: 0]p: generate_solver: 0.001 [ms]
[OGL LOG][Proc: 0]p: solve: 5185.58 [ms]
[OGL LOG][Proc: 0]p: copy_x_back: 3.218 [ms]
[OGL LOG][lduLduBase.H:330] 
Statistics:
	Time per iteration: 3503 [mu s]
	Time per residual norm calculation: 1254.000000 [mu s]
	Time per iteration and DOF: 0.437875 [ns]
	Retrieve results bandwidth 2.486000 [GByte/s]
[OGL LOG][Proc: 0]p: solve_multi_gpu: 5308.07 [ms]
BJcudaGKOCG:  Solving for p, Initial residual = 0.337241, Final residual = 8.4383e-05, No Iterations 1480
[INFO] SolveP: 5347.05 [ms]
time step continuity errors : sum local = 4.29656e-09, global = -1.10283e-21, cumulative = -3.96289e-20
[INFO] ContinuityError: 22.447 [ms]
[INFO] CorrectBoundary: 0.375 [ms]
[INFO] PISOStep: 5692.49 [ms]
[INFO] TimeStep: 13089 [ms]
ExecutionTime = 161.11 s  ClockTime = 162 s

Time = 0.0035

Courant Number mean: 0.0531952 max: 0.484198
[INFO] MatrixAssemblyU: 168.291 [ms]
DILUPBiCGStab:  Solving for Ux, Initial residual = 0.00705361, Final residual = 0.00012629, No Iterations 5
DILUPBiCGStab:  Solving for Uy, Initial residual = 0.0176117, Final residual = 0.000281012, No Iterations 5
DILUPBiCGStab:  Solving for Uz, Initial residual = 0.0653838, Final residual = 0.00267834, No Iterations 5
[INFO] MomentumPredictor: 1458.16 [ms]
[INFO] MatrixAssemblyPI: 193.34 [ms]
[INFO] AdjustPhi: 9.452 [ms]
[INFO] ConstrainPressure: 0.002 [ms]
[INFO] MatrixAssemblyPII: 55.908 [ms]
[OGL LOG][Proc: 0]: global_index_init: 0.017 [ms]
[OGL LOG][Proc: 0]p_local_coeffs: call_update: 0 [ms]
[OGL LOG][Proc: 0]p_non_local_coeffs: call_update: 0 [ms]
[OGL LOG][Proc: 0]p: update_local_matrix_data: 32.451 [ms]
[OGL LOG][Proc: 0]p: update_non_local_matrix_data: 0.164 [ms]
[OGL LOG][Proc: 0]p: regenerate_distributed_matrix: 108.342 [ms]
[OGL LOG][Proc: 0]p_matrix: call_update: 109.646 [ms]
[OGL LOG][Proc: 0]p_rhs: call_update: 1.028 [ms]
[OGL LOG][Preconditioner.H:121] Generate preconditioner BJ MaxBlockSize 1
[OGL LOG][Proc: 0]p: init_precond: 1.301 [ms]
[OGL LOG][StoppingCriterion.H:237] Creating stopping criterion with minIter 888 frequency 17
[OGL LOG][Proc: 0]p: generate_solver: 0.001 [ms]
[OGL LOG][Proc: 0]p: solve: 5213.86 [ms]
[OGL LOG][Proc: 0]p: copy_x_back: 3.073 [ms]
[OGL LOG][lduLduBase.H:330] 
Statistics:
	Time per iteration: 3522 [mu s]
	Time per residual norm calculation: 1256.000000 [mu s]
	Time per iteration and DOF: 0.440250 [ns]
	Retrieve results bandwidth 2.603000 [GByte/s]
[OGL LOG][Proc: 0]p: solve_multi_gpu: 5331.95 [ms]
BJcudaGKOCG:  Solving for p, Initial residual = 0.342034, Final residual = 8.03744e-05, No Iterations 1480
[INFO] SolveP: 5371.8 [ms]
time step continuity errors : sum local = 3.95544e-09, global = -3.60614e-21, cumulative = -4.32351e-20
[INFO] ContinuityError: 23.009 [ms]
[INFO] CorrectBoundary: 0.542 [ms]
[INFO] PISOStep: 5724.89 [ms]
[INFO] MatrixAssemblyPI: 187.967 [ms]
[INFO] AdjustPhi: 9.405 [ms]
[INFO] ConstrainPressure: 0.002 [ms]
[INFO] MatrixAssemblyPII: 58.804 [ms]
[OGL LOG][Proc: 0]: global_index_init: 0.102 [ms]
[OGL LOG][Proc: 0]p_local_coeffs: call_update: 0 [ms]
[OGL LOG][Proc: 0]p_non_local_coeffs: call_update: 0 [ms]
[OGL LOG][Proc: 0]p: update_local_matrix_data: 32.599 [ms]
[OGL LOG][Proc: 0]p: update_non_local_matrix_data: 0.174 [ms]
[OGL LOG][Proc: 0]p: regenerate_distributed_matrix: 113.668 [ms]
[OGL LOG][Proc: 0]p_matrix: call_update: 114.323 [ms]
[OGL LOG][Proc: 0]p_rhs: call_update: 0.961 [ms]
[OGL LOG][Preconditioner.H:121] Generate preconditioner BJ MaxBlockSize 1
[OGL LOG][Proc: 0]p: init_precond: 1.819 [ms]
[OGL LOG][StoppingCriterion.H:237] Creating stopping criterion with minIter 888 frequency 17
[OGL LOG][Proc: 0]p: generate_solver: 0.002 [ms]
[OGL LOG][Proc: 0]p: solve: 5181.31 [ms]
[OGL LOG][Proc: 0]p: copy_x_back: 2.997 [ms]
[OGL LOG][lduLduBase.H:330] 
Statistics:
	Time per iteration: 3500 [mu s]
	Time per residual norm calculation: 1257.000000 [mu s]
	Time per iteration and DOF: 0.437500 [ns]
	Retrieve results bandwidth 2.669000 [GByte/s]
[OGL LOG][Proc: 0]p: solve_multi_gpu: 5304.33 [ms]
BJcudaGKOCG:  Solving for p, Initial residual = 0.302216, Final residual = 7.5183e-05, No Iterations 1480
[INFO] SolveP: 5344.24 [ms]
time step continuity errors : sum local = 3.6851e-09, global = -3.52737e-21, cumulative = -4.67624e-20
[INFO] ContinuityError: 23.161 [ms]
[INFO] CorrectBoundary: 0.385 [ms]
[INFO] PISOStep: 5690.27 [ms]
[INFO] TimeStep: 13065.1 [ms]
ExecutionTime = 174.16 s  ClockTime = 175 s

Time = 0.00375

Courant Number mean: 0.0545956 max: 0.484637
[INFO] MatrixAssemblyU: 169.282 [ms]
DILUPBiCGStab:  Solving for Ux, Initial residual = 0.00646975, Final residual = 0.000110084, No Iterations 5
DILUPBiCGStab:  Solving for Uy, Initial residual = 0.0157816, Final residual = 0.00023442, No Iterations 5
DILUPBiCGStab:  Solving for Uz, Initial residual = 0.0566876, Final residual = 0.00245104, No Iterations 5
[INFO] MomentumPredictor: 1454.83 [ms]
[INFO] MatrixAssemblyPI: 193.991 [ms]
[INFO] AdjustPhi: 9.512 [ms]
[INFO] ConstrainPressure: 0.002 [ms]
[INFO] MatrixAssemblyPII: 56.137 [ms]
[OGL LOG][Proc: 0]: global_index_init: 0.011 [ms]
[OGL LOG][Proc: 0]p_local_coeffs: call_update: 0 [ms]
[OGL LOG][Proc: 0]p_non_local_coeffs: call_update: 0 [ms]
[OGL LOG][Proc: 0]p: update_local_matrix_data: 32.12 [ms]
[OGL LOG][Proc: 0]p: update_non_local_matrix_data: 0.234 [ms]
[OGL LOG][Proc: 0]p: regenerate_distributed_matrix: 109.06 [ms]
[OGL LOG][Proc: 0]p_matrix: call_update: 109.797 [ms]
[OGL LOG][Proc: 0]p_rhs: call_update: 0.983 [ms]
[OGL LOG][Preconditioner.H:121] Generate preconditioner BJ MaxBlockSize 1
[OGL LOG][Proc: 0]p: init_precond: 1.243 [ms]
[OGL LOG][StoppingCriterion.H:237] Creating stopping criterion with minIter 888 frequency 17
[OGL LOG][Proc: 0]p: generate_solver: 0.002 [ms]
[OGL LOG][Proc: 0]p: solve: 5221.71 [ms]
[OGL LOG][Proc: 0]p: copy_x_back: 3.045 [ms]
[OGL LOG][lduLduBase.H:330] 
Statistics:
	Time per iteration: 3528 [mu s]
	Time per residual norm calculation: 1256.000000 [mu s]
	Time per iteration and DOF: 0.441000 [ns]
	Retrieve results bandwidth 2.627000 [GByte/s]
[OGL LOG][Proc: 0]p: solve_multi_gpu: 5340.74 [ms]
BJcudaGKOCG:  Solving for p, Initial residual = 0.309773, Final residual = 6.67746e-05, No Iterations 1480
[INFO] SolveP: 5380.17 [ms]
time step continuity errors : sum local = 3.15519e-09, global = -1.16134e-21, cumulative = -4.79238e-20
[INFO] ContinuityError: 22.953 [ms]
[INFO] CorrectBoundary: 0.398 [ms]
[INFO] PISOStep: 5729.54 [ms]
[INFO] MatrixAssemblyPI: 186.821 [ms]
[INFO] AdjustPhi: 9.39 [ms]
[INFO] ConstrainPressure: 0.002 [ms]
[INFO] MatrixAssemblyPII: 57.91 [ms]
[OGL LOG][Proc: 0]: global_index_init: 0.024 [ms]
[OGL LOG][Proc: 0]p_local_coeffs: call_update: 0 [ms]
[OGL LOG][Proc: 0]p_non_local_coeffs: call_update: 0 [ms]
[OGL LOG][Proc: 0]p: update_local_matrix_data: 32.056 [ms]
[OGL LOG][Proc: 0]p: update_non_local_matrix_data: 0.168 [ms]
[OGL LOG][Proc: 0]p: regenerate_distributed_matrix: 110.13 [ms]
[OGL LOG][Proc: 0]p_matrix: call_update: 111.109 [ms]
[OGL LOG][Proc: 0]p_rhs: call_update: 2.094 [ms]
[OGL LOG][Preconditioner.H:121] Generate preconditioner BJ MaxBlockSize 1
[OGL LOG][Proc: 0]p: init_precond: 1.793 [ms]
[OGL LOG][StoppingCriterion.H:237] Creating stopping criterion with minIter 888 frequency 17
[OGL LOG][Proc: 0]p: generate_solver: 0.001 [ms]
[OGL LOG][Proc: 0]p: solve: 5183.92 [ms]
[OGL LOG][Proc: 0]p: copy_x_back: 3.103 [ms]
[OGL LOG][lduLduBase.H:330] 
Statistics:
	Time per iteration: 3502 [mu s]
	Time per residual norm calculation: 1256.000000 [mu s]
	Time per iteration and DOF: 0.437750 [ns]
	Retrieve results bandwidth 2.578000 [GByte/s]
[OGL LOG][Proc: 0]p: solve_multi_gpu: 5307.5 [ms]
BJcudaGKOCG:  Solving for p, Initial residual = 0.271569, Final residual = 6.22757e-05, No Iterations 1480
[INFO] SolveP: 5347.14 [ms]
time step continuity errors : sum local = 2.94601e-09, global = -4.96736e-21, cumulative = -5.28911e-20
[INFO] ContinuityError: 24.33 [ms]
[INFO] CorrectBoundary: 0.438 [ms]
[INFO] PISOStep: 5692.05 [ms]
[INFO] TimeStep: 13069.8 [ms]
ExecutionTime = 187.2 s  ClockTime = 188 s

Time = 0.004

Courant Number mean: 0.0559077 max: 0.485102
[INFO] MatrixAssemblyU: 167.536 [ms]
DILUPBiCGStab:  Solving for Ux, Initial residual = 0.00594784, Final residual = 9.66569e-05, No Iterations 5
DILUPBiCGStab:  Solving for Uy, Initial residual = 0.0144869, Final residual = 0.000196453, No Iterations 5
DILUPBiCGStab:  Solving for Uz, Initial residual = 0.0499218, Final residual = 0.00213993, No Iterations 5
[INFO] MomentumPredictor: 1454.71 [ms]
[INFO] MatrixAssemblyPI: 192.938 [ms]
[INFO] AdjustPhi: 9.446 [ms]
[INFO] ConstrainPressure: 0.002 [ms]
[INFO] MatrixAssemblyPII: 55.82 [ms]
[OGL LOG][Proc: 0]: global_index_init: 0.039 [ms]
[OGL LOG][Proc: 0]p_local_coeffs: call_update: 0 [ms]
[OGL LOG][Proc: 0]p_non_local_coeffs: call_update: 0 [ms]
[OGL LOG][Proc: 0]p: update_local_matrix_data: 32.146 [ms]
[OGL LOG][Proc: 0]p: update_non_local_matrix_data: 0.175 [ms]
[OGL LOG][Proc: 0]p: regenerate_distributed_matrix: 108.217 [ms]
[OGL LOG][Proc: 0]p_matrix: call_update: 109.225 [ms]
[OGL LOG][Proc: 0]p_rhs: call_update: 2.388 [ms]
[OGL LOG][Preconditioner.H:121] Generate preconditioner BJ MaxBlockSize 1
[OGL LOG][Proc: 0]p: init_precond: 1.29 [ms]
[OGL LOG][StoppingCriterion.H:237] Creating stopping criterion with minIter 888 frequency 17
[OGL LOG][Proc: 0]p: generate_solver: 0.001 [ms]
[OGL LOG][Proc: 0]p: solve: 5221.65 [ms]
[OGL LOG][Proc: 0]p: copy_x_back: 2.963 [ms]
[OGL LOG][lduLduBase.H:330] 
Statistics:
	Time per iteration: 3528 [mu s]
	Time per residual norm calculation: 1257.000000 [mu s]
	Time per iteration and DOF: 0.441000 [ns]
	Retrieve results bandwidth 2.699000 [GByte/s]
[OGL LOG][Proc: 0]p: solve_multi_gpu: 5340.6 [ms]
BJcudaGKOCG:  Solving for p, Initial residual = 0.279354, Final residual = 6.34414e-05, No Iterations 1480
[INFO] SolveP: 5380.59 [ms]
time step continuity errors : sum local = 2.88917e-09, global = -3.91674e-21, cumulative = -5.68079e-20
[INFO] ContinuityError: 24.069 [ms]
[INFO] CorrectBoundary: 1.139 [ms]
[INFO] PISOStep: 5731.01 [ms]
[INFO] MatrixAssemblyPI: 188.446 [ms]
[INFO] AdjustPhi: 9.416 [ms]
[INFO] ConstrainPressure: 0.002 [ms]
[INFO] MatrixAssemblyPII: 58.178 [ms]
[OGL LOG][Proc: 0]: global_index_init: 0.097 [ms]
[OGL LOG][Proc: 0]p_local_coeffs: call_update: 0 [ms]
[OGL LOG][Proc: 0]p_non_local_coeffs: call_update: 0 [ms]
[OGL LOG][Proc: 0]p: update_local_matrix_data: 31.847 [ms]
[OGL LOG][Proc: 0]p: update_non_local_matrix_data: 0.169 [ms]
[OGL LOG][Proc: 0]p: regenerate_distributed_matrix: 110.178 [ms]
[OGL LOG][Proc: 0]p_matrix: call_update: 111.626 [ms]
[OGL LOG][Proc: 0]p_rhs: call_update: 1.074 [ms]
[OGL LOG][Preconditioner.H:121] Generate preconditioner BJ MaxBlockSize 1
[OGL LOG][Proc: 0]p: init_precond: 1.756 [ms]
[OGL LOG][StoppingCriterion.H:237] Creating stopping criterion with minIter 888 frequency 17
[OGL LOG][Proc: 0]p: generate_solver: 0.001 [ms]
[OGL LOG][Proc: 0]p: solve: 5185.51 [ms]
[OGL LOG][Proc: 0]p: copy_x_back: 2.961 [ms]
[OGL LOG][lduLduBase.H:330] 
Statistics:
	Time per iteration: 3503 [mu s]
	Time per residual norm calculation: 1254.000000 [mu s]
	Time per iteration and DOF: 0.437875 [ns]
	Retrieve results bandwidth 2.701000 [GByte/s]
[OGL LOG][Proc: 0]p: solve_multi_gpu: 5306.5 [ms]
BJcudaGKOCG:  Solving for p, Initial residual = 0.246002, Final residual = 5.95542e-05, No Iterations 1480
[INFO] SolveP: 5345.77 [ms]
time step continuity errors : sum local = 2.70331e-09, global = -3.48841e-21, cumulative = -6.02963e-20
[INFO] ContinuityError: 23.417 [ms]
[INFO] CorrectBoundary: 1.142 [ms]
[INFO] PISOStep: 5692.3 [ms]
[INFO] TimeStep: 13070.2 [ms]
ExecutionTime = 200.26 s  ClockTime = 201 s

Time = 0.00425

Courant Number mean: 0.0571444 max: 0.485457
[INFO] MatrixAssemblyU: 168.411 [ms]
DILUPBiCGStab:  Solving for Ux, Initial residual = 0.00550196, Final residual = 8.50773e-05, No Iterations 5
DILUPBiCGStab:  Solving for Uy, Initial residual = 0.0131989, Final residual = 0.000174414, No Iterations 5
DILUPBiCGStab:  Solving for Uz, Initial residual = 0.0437869, Final residual = 0.00191768, No Iterations 5
[INFO] MomentumPredictor: 1453.03 [ms]
[INFO] MatrixAssemblyPI: 194.257 [ms]
[INFO] AdjustPhi: 9.533 [ms]
[INFO] ConstrainPressure: 0.002 [ms]
[INFO] MatrixAssemblyPII: 56.436 [ms]
[OGL LOG][Proc: 0]: global_index_init: 0.016 [ms]
[OGL LOG][Proc: 0]p_local_coeffs: call_update: 0 [ms]
[OGL LOG][Proc: 0]p_non_local_coeffs: call_update: 0 [ms]
[OGL LOG][Proc: 0]p: update_local_matrix_data: 32.501 [ms]
[OGL LOG][Proc: 0]p: update_non_local_matrix_data: 0.153 [ms]
[OGL LOG][Proc: 0]p: regenerate_distributed_matrix: 109.142 [ms]
[OGL LOG][Proc: 0]p_matrix: call_update: 110.508 [ms]
[OGL LOG][Proc: 0]p_rhs: call_update: 1.07 [ms]
[OGL LOG][Preconditioner.H:121] Generate preconditioner BJ MaxBlockSize 1
[OGL LOG][Proc: 0]p: init_precond: 1.264 [ms]
[OGL LOG][StoppingCriterion.H:237] Creating stopping criterion with minIter 888 frequency 17
[OGL LOG][Proc: 0]p: generate_solver: 0.001 [ms]
[OGL LOG][Proc: 0]p: solve: 5168.13 [ms]
[OGL LOG][Proc: 0]p: copy_x_back: 3.377 [ms]
[OGL LOG][lduLduBase.H:330] 
Statistics:
	Time per iteration: 3532 [mu s]
	Time per residual norm calculation: 1254.000000 [mu s]
	Time per iteration and DOF: 0.441500 [ns]
	Retrieve results bandwidth 2.368000 [GByte/s]
[OGL LOG][Proc: 0]p: solve_multi_gpu: 5287.14 [ms]
BJcudaGKOCG:  Solving for p, Initial residual = 0.249492, Final residual = 9.72347e-05, No Iterations 1463
[INFO] SolveP: 5326.9 [ms]
time step continuity errors : sum local = 4.33296e-09, global = -5.28522e-21, cumulative = -6.55815e-20
[INFO] ContinuityError: 23.144 [ms]
[INFO] CorrectBoundary: 0.376 [ms]
[INFO] PISOStep: 5677.1 [ms]
[INFO] MatrixAssemblyPI: 187.111 [ms]
[INFO] AdjustPhi: 11.534 [ms]
[INFO] ConstrainPressure: 0.003 [ms]
[INFO] MatrixAssemblyPII: 57.865 [ms]
[OGL LOG][Proc: 0]: global_index_init: 0.106 [ms]
[OGL LOG][Proc: 0]p_local_coeffs: call_update: 0 [ms]
[OGL LOG][Proc: 0]p_non_local_coeffs: call_update: 0 [ms]
[OGL LOG][Proc: 0]p: update_local_matrix_data: 33.328 [ms]
[OGL LOG][Proc: 0]p: update_non_local_matrix_data: 0.159 [ms]
[OGL LOG][Proc: 0]p: regenerate_distributed_matrix: 111.231 [ms]
[OGL LOG][Proc: 0]p_matrix: call_update: 112.661 [ms]
[OGL LOG][Proc: 0]p_rhs: call_update: 1.077 [ms]
[OGL LOG][Preconditioner.H:121] Generate preconditioner BJ MaxBlockSize 1
[OGL LOG][Proc: 0]p: init_precond: 1.74 [ms]
[OGL LOG][StoppingCriterion.H:237] Creating stopping criterion with minIter 877 frequency 17
[OGL LOG][Proc: 0]p: generate_solver: 0.001 [ms]
[OGL LOG][Proc: 0]p: solve: 3088.95 [ms]
[OGL LOG][Proc: 0]p: copy_x_back: 2.986 [ms]
[OGL LOG][lduLduBase.H:330] 
Statistics:
	Time per iteration: 3490 [mu s]
	Time per residual norm calculation: 1259.000000 [mu s]
	Time per iteration and DOF: 0.436250 [ns]
	Retrieve results bandwidth 2.679000 [GByte/s]
[OGL LOG][Proc: 0]p: solve_multi_gpu: 3209.3 [ms]
BJcudaGKOCG:  Solving for p, Initial residual = 0.21813, Final residual = 8.48727e-05, No Iterations 885
[INFO] SolveP: 3250.29 [ms]
time step continuity errors : sum local = 3.92536e-09, global = -1.67068e-21, cumulative = -6.72522e-20
[INFO] ContinuityError: 23.451 [ms]
[INFO] CorrectBoundary: 0.496 [ms]
[INFO] PISOStep: 3597.31 [ms]
[INFO] TimeStep: 10919.5 [ms]
ExecutionTime = 211.16 s  ClockTime = 212 s

Time = 0.0045

Courant Number mean: 0.0583118 max: 0.48583
[INFO] MatrixAssemblyU: 170.195 [ms]
DILUPBiCGStab:  Solving for Ux, Initial residual = 0.00511571, Final residual = 7.58741e-05, No Iterations 5
DILUPBiCGStab:  Solving for Uy, Initial residual = 0.0122338, Final residual = 0.000149661, No Iterations 5
DILUPBiCGStab:  Solving for Uz, Initial residual = 0.0395793, Final residual = 0.00169177, No Iterations 5
[INFO] MomentumPredictor: 1457.46 [ms]
[INFO] MatrixAssemblyPI: 192.654 [ms]
[INFO] AdjustPhi: 9.424 [ms]
[INFO] ConstrainPressure: 0.002 [ms]
[INFO] MatrixAssemblyPII: 55.702 [ms]
[OGL LOG][Proc: 0]: global_index_init: 0.016 [ms]
[OGL LOG][Proc: 0]p_local_coeffs: call_update: 0 [ms]
[OGL LOG][Proc: 0]p_non_local_coeffs: call_update: 0 [ms]
[OGL LOG][Proc: 0]p: update_local_matrix_data: 32.249 [ms]
[OGL LOG][Proc: 0]p: update_non_local_matrix_data: 0.169 [ms]
[OGL LOG][Proc: 0]p: regenerate_distributed_matrix: 108.496 [ms]
[OGL LOG][Proc: 0]p_matrix: call_update: 109.543 [ms]
[OGL LOG][Proc: 0]p_rhs: call_update: 1.263 [ms]
[OGL LOG][Preconditioner.H:121] Generate preconditioner BJ MaxBlockSize 1
[OGL LOG][Proc: 0]p: init_precond: 1.225 [ms]
[OGL LOG][StoppingCriterion.H:237] Creating stopping criterion with minIter 531 frequency 13
[OGL LOG][Proc: 0]p: generate_solver: 0.002 [ms]
[OGL LOG][Proc: 0]p: solve: 5240 [ms]
[OGL LOG][Proc: 0]p: copy_x_back: 3.123 [ms]
[OGL LOG][lduLduBase.H:330] 
Statistics:
	Time per iteration: 3564 [mu s]
	Time per residual norm calculation: 1257.000000 [mu s]
	Time per iteration and DOF: 0.445500 [ns]
	Retrieve results bandwidth 2.561000 [GByte/s]
[OGL LOG][Proc: 0]p: solve_multi_gpu: 5358.83 [ms]
BJcudaGKOCG:  Solving for p, Initial residual = 0.226381, Final residual = 8.70479e-05, No Iterations 1470
[INFO] SolveP: 5398.21 [ms]
time step continuity errors : sum local = 3.73772e-09, global = -3.3943e-21, cumulative = -7.06465e-20
[INFO] ContinuityError: 22.203 [ms]
[INFO] CorrectBoundary: 0.409 [ms]
[INFO] PISOStep: 5746.4 [ms]
[INFO] MatrixAssemblyPI: 188.478 [ms]
[INFO] AdjustPhi: 9.435 [ms]
[INFO] ConstrainPressure: 0.002 [ms]
[INFO] MatrixAssemblyPII: 57.926 [ms]
[OGL LOG][Proc: 0]: global_index_init: 0.123 [ms]
[OGL LOG][Proc: 0]p_local_coeffs: call_update: 0 [ms]
[OGL LOG][Proc: 0]p_non_local_coeffs: call_update: 0 [ms]
[OGL LOG][Proc: 0]p: update_local_matrix_data: 31.808 [ms]
[OGL LOG][Proc: 0]p: update_non_local_matrix_data: 0.17 [ms]
[OGL LOG][Proc: 0]p: regenerate_distributed_matrix: 112.371 [ms]
[OGL LOG][Proc: 0]p_matrix: call_update: 113.189 [ms]
[OGL LOG][Proc: 0]p_rhs: call_update: 0.99 [ms]
[OGL LOG][Preconditioner.H:121] Generate preconditioner BJ MaxBlockSize 1
[OGL LOG][Proc: 0]p: init_precond: 1.871 [ms]
[OGL LOG][StoppingCriterion.H:237] Creating stopping criterion with minIter 882 frequency 17
[OGL LOG][Proc: 0]p: generate_solver: 0.001 [ms]
[OGL LOG][Proc: 0]p: solve: 5186.19 [ms]
[OGL LOG][Proc: 0]p: copy_x_back: 3.98 [ms]
[OGL LOG][lduLduBase.H:330] 
Statistics:
	Time per iteration: 3504 [mu s]
	Time per residual norm calculation: 1259.000000 [mu s]
	Time per iteration and DOF: 0.438000 [ns]
	Retrieve results bandwidth 2.010000 [GByte/s]
[OGL LOG][Proc: 0]p: solve_multi_gpu: 5309.85 [ms]
BJcudaGKOCG:  Solving for p, Initial residual = 0.198702, Final residual = 5.27553e-05, No Iterations 1480
[INFO] SolveP: 5348.85 [ms]
time step continuity errors : sum local = 2.25978e-09, global = -2.84927e-21, cumulative = -7.34957e-20
[INFO] ContinuityError: 23.176 [ms]
[INFO] CorrectBoundary: 0.368 [ms]
[INFO] PISOStep: 5695.25 [ms]
[INFO] TimeStep: 13093.4 [ms]
ExecutionTime = 224.23 s  ClockTime = 225 s

Time = 0.00475

Courant Number mean: 0.0594174 max: 0.486127
[INFO] MatrixAssemblyU: 169.209 [ms]
DILUPBiCGStab:  Solving for Ux, Initial residual = 0.00476426, Final residual = 6.72741e-05, No Iterations 5
DILUPBiCGStab:  Solving for Uy, Initial residual = 0.011289, Final residual = 0.000137534, No Iterations 5
DILUPBiCGStab:  Solving for Uz, Initial residual = 0.0350751, Final residual = 0.00147362, No Iterations 5
[INFO] MomentumPredictor: 1454.53 [ms]
[INFO] MatrixAssemblyPI: 193.224 [ms]
[INFO] AdjustPhi: 9.391 [ms]
[INFO] ConstrainPressure: 0.002 [ms]
[INFO] MatrixAssemblyPII: 56.232 [ms]
[OGL LOG][Proc: 0]: global_index_init: 0.021 [ms]
[OGL LOG][Proc: 0]p_local_coeffs: call_update: 0 [ms]
[OGL LOG][Proc: 0]p_non_local_coeffs: call_update: 0 [ms]
[OGL LOG][Proc: 0]p: update_local_matrix_data: 32.533 [ms]
[OGL LOG][Proc: 0]p: update_non_local_matrix_data: 0.236 [ms]
[OGL LOG][Proc: 0]p: regenerate_distributed_matrix: 109.001 [ms]
[OGL LOG][Proc: 0]p_matrix: call_update: 110.061 [ms]
[OGL LOG][Proc: 0]p_rhs: call_update: 1.001 [ms]
[OGL LOG][Preconditioner.H:121] Generate preconditioner BJ MaxBlockSize 1
[OGL LOG][Proc: 0]p: init_precond: 1.218 [ms]
[OGL LOG][StoppingCriterion.H:237] Creating stopping criterion with minIter 888 frequency 17
[OGL LOG][Proc: 0]p: generate_solver: 0.002 [ms]
[OGL LOG][Proc: 0]p: solve: 5174.35 [ms]
[OGL LOG][Proc: 0]p: copy_x_back: 2.959 [ms]
[OGL LOG][lduLduBase.H:330] 
Statistics:
	Time per iteration: 3536 [mu s]
	Time per residual norm calculation: 1258.000000 [mu s]
	Time per iteration and DOF: 0.442000 [ns]
	Retrieve results bandwidth 2.703000 [GByte/s]
[OGL LOG][Proc: 0]p: solve_multi_gpu: 5291.28 [ms]
BJcudaGKOCG:  Solving for p, Initial residual = 0.200707, Final residual = 8.82642e-05, No Iterations 1463
[INFO] SolveP: 5330.84 [ms]
time step continuity errors : sum local = 3.75423e-09, global = -4.08355e-21, cumulative = -7.75793e-20
[INFO] ContinuityError: 24.795 [ms]
[INFO] CorrectBoundary: 1.16 [ms]
[INFO] PISOStep: 5681.72 [ms]
[INFO] MatrixAssemblyPI: 186.609 [ms]
[INFO] AdjustPhi: 9.368 [ms]
[INFO] ConstrainPressure: 0.002 [ms]
[INFO] MatrixAssemblyPII: 57.826 [ms]
[OGL LOG][Proc: 0]: global_index_init: 0.091 [ms]
[OGL LOG][Proc: 0]p_local_coeffs: call_update: 0 [ms]
[OGL LOG][Proc: 0]p_non_local_coeffs: call_update: 0 [ms]
[OGL LOG][Proc: 0]p: update_local_matrix_data: 31.259 [ms]
[OGL LOG][Proc: 0]p: update_non_local_matrix_data: 0.173 [ms]
[OGL LOG][Proc: 0]p: regenerate_distributed_matrix: 110.853 [ms]
[OGL LOG][Proc: 0]p_matrix: call_update: 111.969 [ms]
[OGL LOG][Proc: 0]p_rhs: call_update: 1.1 [ms]
[OGL LOG][Preconditioner.H:121] Generate preconditioner BJ MaxBlockSize 1
[OGL LOG][Proc: 0]p: init_precond: 1.42 [ms]
[OGL LOG][StoppingCriterion.H:237] Creating stopping criterion with minIter 877 frequency 17
[OGL LOG][Proc: 0]p: generate_solver: 0.001 [ms]
[OGL LOG][Proc: 0]p: solve: 5130.44 [ms]
[OGL LOG][Proc: 0]p: copy_x_back: 3.166 [ms]
[OGL LOG][lduLduBase.H:330] 
Statistics:
	Time per iteration: 3506 [mu s]
	Time per residual norm calculation: 1254.000000 [mu s]
	Time per iteration and DOF: 0.438250 [ns]
	Retrieve results bandwidth 2.526000 [GByte/s]
[OGL LOG][Proc: 0]p: solve_multi_gpu: 5253.89 [ms]
BJcudaGKOCG:  Solving for p, Initial residual = 0.175082, Final residual = 8.11503e-05, No Iterations 1463
[INFO] SolveP: 5292.56 [ms]
time step continuity errors : sum local = 3.45319e-09, global = -3.63696e-21, cumulative = -8.12163e-20
[INFO] ContinuityError: 23.429 [ms]
[INFO] CorrectBoundary: 1.022 [ms]
[INFO] PISOStep: 5637.32 [ms]
[INFO] TimeStep: 12967.6 [ms]
ExecutionTime = 237.18 s  ClockTime = 238 s

Time = 0.005

Courant Number mean: 0.0604662 max: 0.486433
[INFO] MatrixAssemblyU: 168.27 [ms]
DILUPBiCGStab:  Solving for Ux, Initial residual = 0.00446162, Final residual = 6.06014e-05, No Iterations 5
DILUPBiCGStab:  Solving for Uy, Initial residual = 0.0105521, Final residual = 0.000120764, No Iterations 5
DILUPBiCGStab:  Solving for Uz, Initial residual = 0.0318984, Final residual = 0.00128624, No Iterations 5
[INFO] MomentumPredictor: 1453.12 [ms]
[INFO] MatrixAssemblyPI: 193.607 [ms]
[INFO] AdjustPhi: 9.383 [ms]
[INFO] ConstrainPressure: 0.002 [ms]
[INFO] MatrixAssemblyPII: 56.114 [ms]
[OGL LOG][Proc: 0]: global_index_init: 0.016 [ms]
[OGL LOG][Proc: 0]p_local_coeffs: call_update: 0 [ms]
[OGL LOG][Proc: 0]p_non_local_coeffs: call_update: 0 [ms]
[OGL LOG][Proc: 0]p: update_local_matrix_data: 32.333 [ms]
[OGL LOG][Proc: 0]p: update_non_local_matrix_data: 0.168 [ms]
[OGL LOG][Proc: 0]p: regenerate_distributed_matrix: 108.853 [ms]
[OGL LOG][Proc: 0]p_matrix: call_update: 110.09 [ms]
[OGL LOG][Proc: 0]p_rhs: call_update: 1.045 [ms]
[OGL LOG][Preconditioner.H:121] Generate preconditioner BJ MaxBlockSize 1
[OGL LOG][Proc: 0]p: init_precond: 1.241 [ms]
[OGL LOG][StoppingCriterion.H:237] Creating stopping criterion with minIter 877 frequency 17
[OGL LOG][Proc: 0]p: generate_solver: 0.001 [ms]
[OGL LOG][Proc: 0]p: solve: 5164.43 [ms]
[OGL LOG][Proc: 0]p: copy_x_back: 3.042 [ms]
[OGL LOG][lduLduBase.H:330] 
Statistics:
	Time per iteration: 3530 [mu s]
	Time per residual norm calculation: 1256.000000 [mu s]
	Time per iteration and DOF: 0.441250 [ns]
	Retrieve results bandwidth 2.629000 [GByte/s]
[OGL LOG][Proc: 0]p: solve_multi_gpu: 5284.2 [ms]
BJcudaGKOCG:  Solving for p, Initial residual = 0.182392, Final residual = 8.16088e-05, No Iterations 1463
[INFO] SolveP: 5323.64 [ms]
time step continuity errors : sum local = 3.3533e-09, global = -5.41304e-22, cumulative = -8.17576e-20
[INFO] ContinuityError: 22.687 [ms]
[INFO] CorrectBoundary: 0.406 [ms]
[INFO] PISOStep: 5672.91 [ms]
[INFO] MatrixAssemblyPI: 187.604 [ms]
[INFO] AdjustPhi: 9.471 [ms]
[INFO] ConstrainPressure: 0.003 [ms]
[INFO] MatrixAssemblyPII: 58.278 [ms]
[OGL LOG][Proc: 0]: global_index_init: 0.072 [ms]
[OGL LOG][Proc: 0]p_local_coeffs: call_update: 0 [ms]
[OGL LOG][Proc: 0]p_non_local_coeffs: call_update: 0 [ms]
[OGL LOG][Proc: 0]p: update_local_matrix_data: 32.364 [ms]
[OGL LOG][Proc: 0]p: update_non_local_matrix_data: 0.164 [ms]
[OGL LOG][Proc: 0]p: regenerate_distributed_matrix: 110.501 [ms]
[OGL LOG][Proc: 0]p_matrix: call_update: 111.826 [ms]
[OGL LOG][Proc: 0]p_rhs: call_update: 1.111 [ms]
[OGL LOG][Preconditioner.H:121] Generate preconditioner BJ MaxBlockSize 1
[OGL LOG][Proc: 0]p: init_precond: 1.737 [ms]
[OGL LOG][StoppingCriterion.H:237] Creating stopping criterion with minIter 877 frequency 17
[OGL LOG][Proc: 0]p: generate_solver: 0.001 [ms]
[OGL LOG][Proc: 0]p: solve: 5127.23 [ms]
[OGL LOG][Proc: 0]p: copy_x_back: 2.926 [ms]
[OGL LOG][lduLduBase.H:330] 
Statistics:
	Time per iteration: 3504 [mu s]
	Time per residual norm calculation: 1256.000000 [mu s]
	Time per iteration and DOF: 0.438000 [ns]
	Retrieve results bandwidth 2.734000 [GByte/s]
[OGL LOG][Proc: 0]p: solve_multi_gpu: 5249.17 [ms]
BJcudaGKOCG:  Solving for p, Initial residual = 0.159767, Final residual = 7.70336e-05, No Iterations 1463
[INFO] SolveP: 5289.62 [ms]
time step continuity errors : sum local = 3.1599e-09, global = -4.70417e-21, cumulative = -8.64617e-20
[INFO] ContinuityError: 23.929 [ms]
[INFO] CorrectBoundary: 0.677 [ms]
[INFO] PISOStep: 5634.55 [ms]
[INFO] TimeStep: 12952.5 [ms]
ExecutionTime = 250.11 s  ClockTime = 251 s

End

Finalising parallel run
