/*---------------------------------------------------------------------------*\
| =========                 |                                                 |
| \\      /  F ield         | OpenFOAM: The Open Source CFD Toolbox           |
|  \\    /   O peration     | Version:  2212                                  |
|   \\  /    A nd           | Website:  www.openfoam.com                      |
|    \\/     M anipulation  |                                                 |
\*---------------------------------------------------------------------------*/
Build  : 5614a57-20230228 OPENFOAM=2212 patch=230110 version=v2212
Arch   : "LSB;label=32;scalar=64"
Exec   : icoFoam -parallel -case /home/greole/data/code/exasim-project/micro_benchmarks/LidDrivenCavity3D/workspace/33c8b36c8b44e23387f89da8ae6a3aec/case
Date   : Jul 01 2023
Time   : 08:58:39
Host   : guyot
PID    : 2126183
I/O    : uncollated
Case   : /home/greole/data/code/exasim-project/micro_benchmarks/LidDrivenCavity3D/workspace/33c8b36c8b44e23387f89da8ae6a3aec/case
nProcs : 64
Hosts  :
(
    (guyot 64)
)
Pstream initialized with:
    floatTransfer      : 0
    nProcsSimpleSum    : 0
    commsType          : nonBlocking
    polling iterations : 0
trapFpe: Floating point exception trapping enabled (FOAM_SIGFPE).
fileModificationChecking : Monitoring run-time modified files using timeStampMaster (fileModificationSkew 5, maxFileModificationPolls 20)
allowSystemOperations : Allowing user-supplied system call operations

// * * * * * * * * * * * * * * * * * * * * * * * * * * * * * * * * * * * * * //
Create time

--> FOAM Warning : 
    From void* Foam::dlLibraryTable::openLibrary(const Foam::fileName&, bool)
    in file db/dynamicLibrary/dlLibraryTable/dlLibraryTable.C at line 188
    Could not load "libpetscFoam.so"
libpetscFoam.so: cannot open shared object file: No such file or directory
Create mesh for time = 0


PISO: Operating solver in PISO mode

Reading transportProperties

Reading field p

Reading field U

Reading/calculating face flux field phi


Starting time loop

Time = 0.000125

Courant Number mean: 8.02505e-18 max: 4.85723e-14
[INFO] MatrixAssemblyU: 1033.53 [ms]
DILUPBiCGStab:  Solving for Ux, Initial residual = 1, Final residual = 0.0222889, No Iterations 5
DILUPBiCGStab:  Solving for Uy:  solution singularity
DILUPBiCGStab:  Solving for Uz:  solution singularity
[INFO] MomentumPredictor: 3533.69 [ms]
[INFO] MatrixAssemblyPI: 1088.67 [ms]
[INFO] AdjustPhi: 50.205 [ms]
[INFO] ConstrainPressure: 0.007 [ms]
[INFO] MatrixAssemblyPII: 296.633 [ms]
[OGL LOG][lduLduBase.H:122] Initialising OGL
	OGL commit:  6548490+
	Branch: gko-1.5.0 
	Build type: Release
	Ginkgo version: 1.5.0 ( develop)
	Ginkgo commit: 4292ffdee
	MPI is GPU aware: 1
	Forces host buffer based communication: 1
	CPU ranks per GPU: 1
	Matrix format: Coo
	End OGL_INFO
[OGL LOG][Proc: 0]: global_index_init: 12.246 [ms]
[OGL LOG][Proc: 0]p_local_cols: call_init: 1.896 [ms]
[OGL LOG][Proc: 0]p_local_rows: call_init: 0.03 [ms]
[OGL LOG][Proc: 0]p_local_ldu_map: call_init: 0.016 [ms]
[OGL LOG][Proc: 0]p_local_coeffs: call_init: 0.021 [ms]
[OGL LOG][Proc: 0]p_non_local_cols: call_init: 0.006 [ms]
[OGL LOG][Proc: 0]p_non_local_rows: call_init: 0.004 [ms]
[OGL LOG][Proc: 0]p_non_local_ldu_map: call_init: 0.003 [ms]
[OGL LOG][Proc: 0]p_non_local_coeffs: call_init: 0.003 [ms]
[OGL LOG][Proc: 0]p: init_local_sparsity_pattern: 363.14 [ms]
[OGL LOG][Proc: 0]p: init_non_local_sparsity_pattern: 44.042 [ms]
[OGL LOG][Proc: 0]p: update_local_matrix_data: 168.562 [ms]
[OGL LOG][Proc: 0]p: update_non_local_matrix_data: 0.635 [ms]
[OGL LOG][Proc: 0]device_partition: call_init: 9.747 [ms]
[OGL LOG][Proc: 0]p_matrix: call_init: 998.948 [ms]
[OGL LOG][Proc: 0]p_rhs: call_init: 20.466 [ms]
[OGL LOG][Proc: 0]p_solution: call_init: 11.087 [ms]
[OGL LOG][Proc: 0]p: init_precond: 0.278 [ms]
[OGL LOG][StoppingCriterion.H:372] Creating stopping criterion with minIter 0 frequency 1
[OGL LOG][Proc: 0]p: generate_solver: 0.066 [ms]
[OGL LOG][Proc: 0]p: solve: 53638.9 [ms]
[OGL LOG][Proc: 0]p: copy_x_back: 2.698 [ms]
[OGL LOG][lduLduBase.H:339] 
Statistics:
	Time per iteration: 16529 [mu s]
	Time per residual norm calculation: 4543.000000 [mu s]
	Time per iteration and DOF: 0.258266 [ns]
	Retrieve results bandwidth 2.965000 [GByte/s]
[OGL LOG][Proc: 0]p: solve_multi_gpu: 54712.8 [ms]
nonecudaGKOCG:  Solving for p, Initial residual = 1, Final residual = 9.91551e-05, No Iterations 3245
[INFO] SolveP: 80236.6 [ms]
time step continuity errors : sum local = 2.82658e-09, global = 1.91197e-22, cumulative = 1.91197e-22
[INFO] ContinuityError: 169.165 [ms]
[INFO] CorrectBoundary: 8.198 [ms]
[INFO] PISOStep: 82148.3 [ms]
[INFO] MatrixAssemblyPI: 1008.38 [ms]
[INFO] AdjustPhi: 72.554 [ms]
[INFO] ConstrainPressure: 0.014 [ms]
[INFO] MatrixAssemblyPII: 297.13 [ms]
[OGL LOG][Proc: 0]: global_index_init: 0.412 [ms]
[OGL LOG][Proc: 0]p_local_coeffs: call_update: 0.005 [ms]
[OGL LOG][Proc: 0]p_non_local_coeffs: call_update: 0 [ms]
[OGL LOG][Proc: 0]p: update_local_matrix_data: 142.088 [ms]
[OGL LOG][Proc: 0]p: update_non_local_matrix_data: 1.009 [ms]
[OGL LOG][Proc: 0]p_matrix: call_update: 46.349 [ms]
[OGL LOG][Proc: 0]p_rhs: call_update: 53.907 [ms]
[OGL LOG][Proc: 0]p: init_precond: 0.083 [ms]
[OGL LOG][StoppingCriterion.H:372] Creating stopping criterion with minIter 1947 frequency 20
[OGL LOG][Proc: 0]p: generate_solver: 0.002 [ms]
[OGL LOG][Proc: 0]p: solve: 38339.5 [ms]
[OGL LOG][Proc: 0]p: copy_x_back: 3.151 [ms]
[OGL LOG][lduLduBase.H:339] 
Statistics:
	Time per iteration: 11829 [mu s]
	Time per residual norm calculation: 4924.000000 [mu s]
	Time per iteration and DOF: 0.184828 [ns]
	Retrieve results bandwidth 2.538000 [GByte/s]
[OGL LOG][Proc: 0]p: solve_multi_gpu: 38469.7 [ms]
nonecudaGKOCG:  Solving for p, Initial residual = 0.830461, Final residual = 8.42058e-05, No Iterations 3241
[INFO] SolveP: 38645.4 [ms]
time step continuity errors : sum local = 2.85094e-09, global = 3.85479e-22, cumulative = 5.76676e-22
[INFO] ContinuityError: 148.778 [ms]
[INFO] CorrectBoundary: 3.186 [ms]
[INFO] PISOStep: 40493.3 [ms]
[INFO] TimeStep: 127318 [ms]
ExecutionTime = 109.34 s  ClockTime = 129 s

Time = 0.00025

Courant Number mean: 0.0108029 max: 0.437609
[INFO] MatrixAssemblyU: 948.989 [ms]
DILUPBiCGStab:  Solving for Ux, Initial residual = 0.108273, Final residual = 0.013914, No Iterations 5
DILUPBiCGStab:  Solving for Uy, Initial residual = 0.485093, Final residual = 0.0551465, No Iterations 5
DILUPBiCGStab:  Solving for Uz, Initial residual = 0.988184, Final residual = 0.124557, No Iterations 5
[INFO] MomentumPredictor: 6934.1 [ms]
[INFO] MatrixAssemblyPI: 1057.4 [ms]
[INFO] AdjustPhi: 51.477 [ms]
[INFO] ConstrainPressure: 0.003 [ms]
[INFO] MatrixAssemblyPII: 296.093 [ms]
[OGL LOG][Proc: 0]: global_index_init: 0.155 [ms]
[OGL LOG][Proc: 0]p_local_coeffs: call_update: 0.001 [ms]
[OGL LOG][Proc: 0]p_non_local_coeffs: call_update: 0 [ms]
[OGL LOG][Proc: 0]p: update_local_matrix_data: 144.3 [ms]
[OGL LOG][Proc: 0]p: update_non_local_matrix_data: 1.041 [ms]
[OGL LOG][Proc: 0]p_matrix: call_update: 58.185 [ms]
[OGL LOG][Proc: 0]p_rhs: call_update: 40.184 [ms]
[OGL LOG][Proc: 0]p: init_precond: 0.061 [ms]
[OGL LOG][StoppingCriterion.H:372] Creating stopping criterion with minIter 1944 frequency 25
[OGL LOG][Proc: 0]p: generate_solver: 0.002 [ms]
[OGL LOG][Proc: 0]p: solve: 37861.7 [ms]
[OGL LOG][Proc: 0]p: copy_x_back: 11.613 [ms]
[OGL LOG][lduLduBase.H:339] 
Statistics:
	Time per iteration: 11828 [mu s]
	Time per residual norm calculation: 4186.000000 [mu s]
	Time per iteration and DOF: 0.184812 [ns]
	Retrieve results bandwidth 0.688000 [GByte/s]
[OGL LOG][Proc: 0]p: solve_multi_gpu: 38008.3 [ms]
nonecudaGKOCG:  Solving for p, Initial residual = 0.915399, Final residual = 7.41249e-05, No Iterations 3201
[INFO] SolveP: 38185.7 [ms]
time step continuity errors : sum local = 5.78965e-09, global = 4.08837e-22, cumulative = 9.85513e-22
[INFO] ContinuityError: 130.702 [ms]
[INFO] CorrectBoundary: 4.942 [ms]
[INFO] PISOStep: 40052.3 [ms]
[INFO] MatrixAssemblyPI: 1027.18 [ms]
[INFO] AdjustPhi: 51.005 [ms]
[INFO] ConstrainPressure: 0.015 [ms]
[INFO] MatrixAssemblyPII: 297.857 [ms]
[OGL LOG][Proc: 0]: global_index_init: 0.676 [ms]
[OGL LOG][Proc: 0]p_local_coeffs: call_update: 0 [ms]
[OGL LOG][Proc: 0]p_non_local_coeffs: call_update: 0 [ms]
[OGL LOG][Proc: 0]p: update_local_matrix_data: 145.147 [ms]
[OGL LOG][Proc: 0]p: update_non_local_matrix_data: 0.974 [ms]
[OGL LOG][Proc: 0]p_matrix: call_update: 71.293 [ms]
[OGL LOG][Proc: 0]p_rhs: call_update: 26.367 [ms]
[OGL LOG][Proc: 0]p: init_precond: 0.061 [ms]
[OGL LOG][StoppingCriterion.H:372] Creating stopping criterion with minIter 1920 frequency 25
[OGL LOG][Proc: 0]p: generate_solver: 0.002 [ms]
[OGL LOG][Proc: 0]p: solve: 37770 [ms]
[OGL LOG][Proc: 0]p: copy_x_back: 5.167 [ms]
[OGL LOG][lduLduBase.H:339] 
Statistics:
	Time per iteration: 11799 [mu s]
	Time per residual norm calculation: 4626.000000 [mu s]
	Time per iteration and DOF: 0.184359 [ns]
	Retrieve results bandwidth 1.548000 [GByte/s]
[OGL LOG][Proc: 0]p: solve_multi_gpu: 37908.4 [ms]
nonecudaGKOCG:  Solving for p, Initial residual = 0.863828, Final residual = 6.90412e-05, No Iterations 3201
[INFO] SolveP: 38090.7 [ms]
time step continuity errors : sum local = 5.49616e-09, global = 7.08606e-22, cumulative = 1.69412e-21
[INFO] ContinuityError: 106.988 [ms]
[INFO] CorrectBoundary: 4.669 [ms]
[INFO] PISOStep: 39925.3 [ms]
[INFO] TimeStep: 87966.2 [ms]
ExecutionTime = 196.83 s  ClockTime = 217 s

Time = 0.000375

Courant Number mean: 0.0168808 max: 0.511648
[INFO] MatrixAssemblyU: 943.4 [ms]
DILUPBiCGStab:  Solving for Ux, Initial residual = 0.0537548, Final residual = 0.0056722, No Iterations 5
DILUPBiCGStab:  Solving for Uy, Initial residual = 0.262784, Final residual = 0.0274796, No Iterations 5
DILUPBiCGStab:  Solving for Uz, Initial residual = 0.868621, Final residual = 0.0891382, No Iterations 5
[INFO] MomentumPredictor: 6935 [ms]
[INFO] MatrixAssemblyPI: 1056.88 [ms]
[INFO] AdjustPhi: 53.499 [ms]
[INFO] ConstrainPressure: 0.003 [ms]
[INFO] MatrixAssemblyPII: 297.98 [ms]
[OGL LOG][Proc: 0]: global_index_init: 0.146 [ms]
[OGL LOG][Proc: 0]p_local_coeffs: call_update: 0 [ms]
[OGL LOG][Proc: 0]p_non_local_coeffs: call_update: 0 [ms]
[OGL LOG][Proc: 0]p: update_local_matrix_data: 145.196 [ms]
[OGL LOG][Proc: 0]p: update_non_local_matrix_data: 0.954 [ms]
[OGL LOG][Proc: 0]p_matrix: call_update: 79.829 [ms]
[OGL LOG][Proc: 0]p_rhs: call_update: 17.05 [ms]
[OGL LOG][Proc: 0]p: init_precond: 0.063 [ms]
[OGL LOG][StoppingCriterion.H:372] Creating stopping criterion with minIter 1920 frequency 25
[OGL LOG][Proc: 0]p: generate_solver: 0.002 [ms]
[OGL LOG][Proc: 0]p: solve: 22782.9 [ms]
[OGL LOG][Proc: 0]p: copy_x_back: 5.442 [ms]
[OGL LOG][lduLduBase.H:339] 
Statistics:
	Time per iteration: 11829 [mu s]
	Time per residual norm calculation: 4911.000000 [mu s]
	Time per iteration and DOF: 0.184828 [ns]
	Retrieve results bandwidth 1.470000 [GByte/s]
[OGL LOG][Proc: 0]p: solve_multi_gpu: 22919.4 [ms]
nonecudaGKOCG:  Solving for p, Initial residual = 0.944447, Final residual = 3.63068e-05, No Iterations 1926
[INFO] SolveP: 23101.5 [ms]
time step continuity errors : sum local = 3.67522e-09, global = -7.61265e-23, cumulative = 1.61799e-21
[INFO] ContinuityError: 116.777 [ms]
[INFO] CorrectBoundary: 7.231 [ms]
[INFO] PISOStep: 24969.6 [ms]
[INFO] MatrixAssemblyPI: 1025.29 [ms]
[INFO] AdjustPhi: 52.439 [ms]
[INFO] ConstrainPressure: 0.014 [ms]
[INFO] MatrixAssemblyPII: 296.951 [ms]
[OGL LOG][Proc: 0]: global_index_init: 0.184 [ms]
[OGL LOG][Proc: 0]p_local_coeffs: call_update: 0.001 [ms]
[OGL LOG][Proc: 0]p_non_local_coeffs: call_update: 0 [ms]
[OGL LOG][Proc: 0]p: update_local_matrix_data: 145.1 [ms]
[OGL LOG][Proc: 0]p: update_non_local_matrix_data: 0.958 [ms]
[OGL LOG][Proc: 0]p_matrix: call_update: 66.473 [ms]
[OGL LOG][Proc: 0]p_rhs: call_update: 29.858 [ms]
[OGL LOG][Proc: 0]p: init_precond: 0.059 [ms]
[OGL LOG][StoppingCriterion.H:372] Creating stopping criterion with minIter 1155 frequency 19
[OGL LOG][Proc: 0]p: generate_solver: 0.002 [ms]
[OGL LOG][Proc: 0]p: solve: 18388.7 [ms]
[OGL LOG][Proc: 0]p: copy_x_back: 5.101 [ms]
[OGL LOG][lduLduBase.H:339] 
Statistics:
	Time per iteration: 11940 [mu s]
	Time per residual norm calculation: 4475.000000 [mu s]
	Time per iteration and DOF: 0.186562 [ns]
	Retrieve results bandwidth 1.568000 [GByte/s]
[OGL LOG][Proc: 0]p: solve_multi_gpu: 18522.8 [ms]
nonecudaGKOCG:  Solving for p, Initial residual = 0.909205, Final residual = 8.51946e-05, No Iterations 1540
[INFO] SolveP: 18698.9 [ms]
time step continuity errors : sum local = 8.10378e-09, global = 8.40419e-22, cumulative = 2.45841e-21
[INFO] ContinuityError: 156.523 [ms]
[INFO] CorrectBoundary: 8.291 [ms]
[INFO] PISOStep: 20536.8 [ms]
[INFO] TimeStep: 53491 [ms]
ExecutionTime = 250.02 s  ClockTime = 271 s

Time = 0.0005

Courant Number mean: 0.0204828 max: 0.477536
[INFO] MatrixAssemblyU: 942.404 [ms]
DILUPBiCGStab:  Solving for Ux, Initial residual = 0.0417779, Final residual = 0.00524833, No Iterations 5
DILUPBiCGStab:  Solving for Uy, Initial residual = 0.214782, Final residual = 0.0252762, No Iterations 5
DILUPBiCGStab:  Solving for Uz, Initial residual = 0.78211, Final residual = 0.0663085, No Iterations 5
[INFO] MomentumPredictor: 6931.01 [ms]
[INFO] MatrixAssemblyPI: 1053.33 [ms]
[INFO] AdjustPhi: 56.992 [ms]
[INFO] ConstrainPressure: 0.003 [ms]
[INFO] MatrixAssemblyPII: 298.094 [ms]
[OGL LOG][Proc: 0]: global_index_init: 0.2 [ms]
[OGL LOG][Proc: 0]p_local_coeffs: call_update: 0.001 [ms]
[OGL LOG][Proc: 0]p_non_local_coeffs: call_update: 0 [ms]
[OGL LOG][Proc: 0]p: update_local_matrix_data: 144.379 [ms]
[OGL LOG][Proc: 0]p: update_non_local_matrix_data: 1.055 [ms]
[OGL LOG][Proc: 0]p_matrix: call_update: 53.07 [ms]
[OGL LOG][Proc: 0]p_rhs: call_update: 45.794 [ms]
[OGL LOG][Proc: 0]p: init_precond: 0.048 [ms]
[OGL LOG][StoppingCriterion.H:372] Creating stopping criterion with minIter 924 frequency 17
[OGL LOG][Proc: 0]p: generate_solver: 0.002 [ms]
[OGL LOG][Proc: 0]p: solve: 18069.3 [ms]
[OGL LOG][Proc: 0]p: copy_x_back: 4.415 [ms]
[OGL LOG][lduLduBase.H:339] 
Statistics:
	Time per iteration: 11934 [mu s]
	Time per residual norm calculation: 4766.000000 [mu s]
	Time per iteration and DOF: 0.186469 [ns]
	Retrieve results bandwidth 1.812000 [GByte/s]
[OGL LOG][Proc: 0]p: solve_multi_gpu: 18200.7 [ms]
nonecudaGKOCG:  Solving for p, Initial residual = 0.941166, Final residual = 9.41117e-05, No Iterations 1514
[INFO] SolveP: 18387.3 [ms]
time step continuity errors : sum local = 1.13051e-08, global = 4.44868e-22, cumulative = 2.90328e-21
[INFO] ContinuityError: 119.685 [ms]
[INFO] CorrectBoundary: 5.661 [ms]
[INFO] PISOStep: 20253.8 [ms]
[INFO] MatrixAssemblyPI: 1020.14 [ms]
[INFO] AdjustPhi: 57.467 [ms]
[INFO] ConstrainPressure: 0.015 [ms]
[INFO] MatrixAssemblyPII: 298.071 [ms]
[OGL LOG][Proc: 0]: global_index_init: 0.137 [ms]
[OGL LOG][Proc: 0]p_local_coeffs: call_update: 0.002 [ms]
[OGL LOG][Proc: 0]p_non_local_coeffs: call_update: 0 [ms]
[OGL LOG][Proc: 0]p: update_local_matrix_data: 145.711 [ms]
[OGL LOG][Proc: 0]p: update_non_local_matrix_data: 0.653 [ms]
[OGL LOG][Proc: 0]p_matrix: call_update: 75.889 [ms]
[OGL LOG][Proc: 0]p_rhs: call_update: 17.915 [ms]
[OGL LOG][Proc: 0]p: init_precond: 0.053 [ms]
[OGL LOG][StoppingCriterion.H:372] Creating stopping criterion with minIter 908 frequency 17
[OGL LOG][Proc: 0]p: generate_solver: 0.003 [ms]
[OGL LOG][Proc: 0]p: solve: 18129.2 [ms]
[OGL LOG][Proc: 0]p: copy_x_back: 2.679 [ms]
[OGL LOG][lduLduBase.H:339] 
Statistics:
	Time per iteration: 11974 [mu s]
	Time per residual norm calculation: 4932.000000 [mu s]
	Time per iteration and DOF: 0.187094 [ns]
	Retrieve results bandwidth 2.986000 [GByte/s]
[OGL LOG][Proc: 0]p: solve_multi_gpu: 18260.3 [ms]
nonecudaGKOCG:  Solving for p, Initial residual = 0.882104, Final residual = 8.60755e-05, No Iterations 1514
[INFO] SolveP: 18443.9 [ms]
time step continuity errors : sum local = 1.02359e-08, global = 8.33494e-22, cumulative = 3.73677e-21
[INFO] ContinuityError: 118.165 [ms]
[INFO] CorrectBoundary: 4.036 [ms]
[INFO] PISOStep: 20277.5 [ms]
[INFO] TimeStep: 48514 [ms]
ExecutionTime = 298.25 s  ClockTime = 319 s

Time = 0.000625

Courant Number mean: 0.0235408 max: 0.556487
[INFO] MatrixAssemblyU: 943.148 [ms]
DILUPBiCGStab:  Solving for Ux, Initial residual = 0.0378398, Final residual = 0.00483161, No Iterations 5
DILUPBiCGStab:  Solving for Uy, Initial residual = 0.186209, Final residual = 0.0209686, No Iterations 5
DILUPBiCGStab:  Solving for Uz, Initial residual = 0.754246, Final residual = 0.0571009, No Iterations 5
[INFO] MomentumPredictor: 6932.53 [ms]
[INFO] MatrixAssemblyPI: 1054.04 [ms]
[INFO] AdjustPhi: 55.053 [ms]
[INFO] ConstrainPressure: 0.003 [ms]
[INFO] MatrixAssemblyPII: 297.977 [ms]
[OGL LOG][Proc: 0]: global_index_init: 0.24 [ms]
[OGL LOG][Proc: 0]p_local_coeffs: call_update: 0.001 [ms]
[OGL LOG][Proc: 0]p_non_local_coeffs: call_update: 0 [ms]
[OGL LOG][Proc: 0]p: update_local_matrix_data: 146.487 [ms]
[OGL LOG][Proc: 0]p: update_non_local_matrix_data: 0.272 [ms]
[OGL LOG][Proc: 0]p_matrix: call_update: 82.36 [ms]
[OGL LOG][Proc: 0]p_rhs: call_update: 15.891 [ms]
[OGL LOG][Proc: 0]p: init_precond: 0.058 [ms]
[OGL LOG][StoppingCriterion.H:372] Creating stopping criterion with minIter 908 frequency 17
[OGL LOG][Proc: 0]p: generate_solver: 0.002 [ms]
[OGL LOG][Proc: 0]p: solve: 37202.7 [ms]
[OGL LOG][Proc: 0]p: copy_x_back: 6.534 [ms]
[OGL LOG][lduLduBase.H:339] 
Statistics:
	Time per iteration: 11954 [mu s]
	Time per residual norm calculation: 4615.000000 [mu s]
	Time per iteration and DOF: 0.186781 [ns]
	Retrieve results bandwidth 1.224000 [GByte/s]
[OGL LOG][Proc: 0]p: solve_multi_gpu: 37338.1 [ms]
nonecudaGKOCG:  Solving for p, Initial residual = 0.956205, Final residual = 9.47845e-05, No Iterations 3112
[INFO] SolveP: 37521.5 [ms]
time step continuity errors : sum local = 1.24668e-08, global = 4.21306e-22, cumulative = 4.15808e-21
[INFO] ContinuityError: 124.719 [ms]
[INFO] CorrectBoundary: 5.797 [ms]
[INFO] PISOStep: 39391.4 [ms]
[INFO] MatrixAssemblyPI: 1020.65 [ms]
[INFO] AdjustPhi: 58.856 [ms]
[INFO] ConstrainPressure: 0.017 [ms]
[INFO] MatrixAssemblyPII: 297.249 [ms]
[OGL LOG][Proc: 0]: global_index_init: 0.119 [ms]
[OGL LOG][Proc: 0]p_local_coeffs: call_update: 0.001 [ms]
[OGL LOG][Proc: 0]p_non_local_coeffs: call_update: 0 [ms]
[OGL LOG][Proc: 0]p: update_local_matrix_data: 145.253 [ms]
[OGL LOG][Proc: 0]p: update_non_local_matrix_data: 0.921 [ms]
[OGL LOG][Proc: 0]p_matrix: call_update: 78.434 [ms]
[OGL LOG][Proc: 0]p_rhs: call_update: 21.911 [ms]
[OGL LOG][Proc: 0]p: init_precond: 0.058 [ms]
[OGL LOG][StoppingCriterion.H:372] Creating stopping criterion with minIter 1867 frequency 24
[OGL LOG][Proc: 0]p: generate_solver: 0.002 [ms]
[OGL LOG][Proc: 0]p: solve: 36603.4 [ms]
[OGL LOG][Proc: 0]p: copy_x_back: 6.889 [ms]
[OGL LOG][lduLduBase.H:339] 
Statistics:
	Time per iteration: 11818 [mu s]
	Time per residual norm calculation: 4166.000000 [mu s]
	Time per iteration and DOF: 0.184656 [ns]
	Retrieve results bandwidth 1.161000 [GByte/s]
[OGL LOG][Proc: 0]p: solve_multi_gpu: 36718.3 [ms]
nonecudaGKOCG:  Solving for p, Initial residual = 0.915069, Final residual = 9.66236e-05, No Iterations 3097
[INFO] SolveP: 36922.3 [ms]
time step continuity errors : sum local = 1.26371e-08, global = 1.15586e-22, cumulative = 4.27367e-21
[INFO] ContinuityError: 206.716 [ms]
[INFO] CorrectBoundary: 7.691 [ms]
[INFO] PISOStep: 38771.4 [ms]
[INFO] TimeStep: 86144.4 [ms]
ExecutionTime = 383.95 s  ClockTime = 405 s

Time = 0.00075

Courant Number mean: 0.0258634 max: 0.483895
[INFO] MatrixAssemblyU: 942.153 [ms]
DILUPBiCGStab:  Solving for Ux, Initial residual = 0.035644, Final residual = 0.00454304, No Iterations 5
DILUPBiCGStab:  Solving for Uy, Initial residual = 0.17287, Final residual = 0.0178525, No Iterations 5
DILUPBiCGStab:  Solving for Uz, Initial residual = 0.697203, Final residual = 0.0477401, No Iterations 5
[INFO] MomentumPredictor: 6935.87 [ms]
[INFO] MatrixAssemblyPI: 1056.5 [ms]
[INFO] AdjustPhi: 52.018 [ms]
[INFO] ConstrainPressure: 0.002 [ms]
[INFO] MatrixAssemblyPII: 297.882 [ms]
[OGL LOG][Proc: 0]: global_index_init: 0.319 [ms]
[OGL LOG][Proc: 0]p_local_coeffs: call_update: 0 [ms]
[OGL LOG][Proc: 0]p_non_local_coeffs: call_update: 0 [ms]
[OGL LOG][Proc: 0]p: update_local_matrix_data: 145.309 [ms]
[OGL LOG][Proc: 0]p: update_non_local_matrix_data: 0.912 [ms]
[OGL LOG][Proc: 0]p_matrix: call_update: 78.005 [ms]
[OGL LOG][Proc: 0]p_rhs: call_update: 19.581 [ms]
[OGL LOG][Proc: 0]p: init_precond: 0.064 [ms]
[OGL LOG][StoppingCriterion.H:372] Creating stopping criterion with minIter 1858 frequency 24
[OGL LOG][Proc: 0]p: generate_solver: 0.002 [ms]
[OGL LOG][Proc: 0]p: solve: 36643.5 [ms]
[OGL LOG][Proc: 0]p: copy_x_back: 4.09 [ms]
[OGL LOG][lduLduBase.H:339] 
Statistics:
	Time per iteration: 11831 [mu s]
	Time per residual norm calculation: 4609.000000 [mu s]
	Time per iteration and DOF: 0.184859 [ns]
	Retrieve results bandwidth 1.955000 [GByte/s]
[OGL LOG][Proc: 0]p: solve_multi_gpu: 36779 [ms]
nonecudaGKOCG:  Solving for p, Initial residual = 0.953178, Final residual = 9.27038e-05, No Iterations 3097
[INFO] SolveP: 36962.3 [ms]
time step continuity errors : sum local = 1.40573e-08, global = 4.73432e-22, cumulative = 4.7471e-21
[INFO] ContinuityError: 113.898 [ms]
[INFO] CorrectBoundary: 5.076 [ms]
[INFO] PISOStep: 38831.8 [ms]
[INFO] MatrixAssemblyPI: 1024.41 [ms]
[INFO] AdjustPhi: 52.438 [ms]
[INFO] ConstrainPressure: 0.017 [ms]
[INFO] MatrixAssemblyPII: 297.888 [ms]
[OGL LOG][Proc: 0]: global_index_init: 0.135 [ms]
[OGL LOG][Proc: 0]p_local_coeffs: call_update: 0.002 [ms]
[OGL LOG][Proc: 0]p_non_local_coeffs: call_update: 0 [ms]
[OGL LOG][Proc: 0]p: update_local_matrix_data: 144.246 [ms]
[OGL LOG][Proc: 0]p: update_non_local_matrix_data: 0.58 [ms]
[OGL LOG][Proc: 0]p_matrix: call_update: 52.419 [ms]
[OGL LOG][Proc: 0]p_rhs: call_update: 43.956 [ms]
[OGL LOG][Proc: 0]p: init_precond: 0.063 [ms]
[OGL LOG][StoppingCriterion.H:372] Creating stopping criterion with minIter 1858 frequency 24
[OGL LOG][Proc: 0]p: generate_solver: 0.002 [ms]
[OGL LOG][Proc: 0]p: solve: 36619 [ms]
[OGL LOG][Proc: 0]p: copy_x_back: 7.515 [ms]
[OGL LOG][lduLduBase.H:339] 
Statistics:
	Time per iteration: 11824 [mu s]
	Time per residual norm calculation: 4771.000000 [mu s]
	Time per iteration and DOF: 0.184750 [ns]
	Retrieve results bandwidth 1.064000 [GByte/s]
[OGL LOG][Proc: 0]p: solve_multi_gpu: 36759 [ms]
nonecudaGKOCG:  Solving for p, Initial residual = 0.892238, Final residual = 8.77163e-05, No Iterations 3097
[INFO] SolveP: 36937 [ms]
time step continuity errors : sum local = 1.35055e-08, global = 8.09816e-22, cumulative = 5.55691e-21
[INFO] ContinuityError: 113.845 [ms]
[INFO] CorrectBoundary: 6.606 [ms]
[INFO] PISOStep: 38772 [ms]
[INFO] TimeStep: 85587.8 [ms]
ExecutionTime = 469.08 s  ClockTime = 491 s

Time = 0.000875

Courant Number mean: 0.0280481 max: 0.612751
[INFO] MatrixAssemblyU: 947.615 [ms]
DILUPBiCGStab:  Solving for Ux, Initial residual = 0.0353418, Final residual = 0.00428678, No Iterations 5
DILUPBiCGStab:  Solving for Uy, Initial residual = 0.178205, Final residual = 0.016959, No Iterations 5
DILUPBiCGStab:  Solving for Uz, Initial residual = 0.695584, Final residual = 0.0431555, No Iterations 5
[INFO] MomentumPredictor: 6929.32 [ms]
[INFO] MatrixAssemblyPI: 1057.27 [ms]
[INFO] AdjustPhi: 51.612 [ms]
[INFO] ConstrainPressure: 0.003 [ms]
[INFO] MatrixAssemblyPII: 298.175 [ms]
[OGL LOG][Proc: 0]: global_index_init: 0.341 [ms]
[OGL LOG][Proc: 0]p_local_coeffs: call_update: 0.002 [ms]
[OGL LOG][Proc: 0]p_non_local_coeffs: call_update: 0 [ms]
[OGL LOG][Proc: 0]p: update_local_matrix_data: 146.131 [ms]
[OGL LOG][Proc: 0]p: update_non_local_matrix_data: 0.694 [ms]
[OGL LOG][Proc: 0]p_matrix: call_update: 80.249 [ms]
[OGL LOG][Proc: 0]p_rhs: call_update: 18.315 [ms]
[OGL LOG][Proc: 0]p: init_precond: 0.049 [ms]
[OGL LOG][StoppingCriterion.H:372] Creating stopping criterion with minIter 1858 frequency 24
[OGL LOG][Proc: 0]p: generate_solver: 0.002 [ms]
[OGL LOG][Proc: 0]p: solve: 36667.7 [ms]
[OGL LOG][Proc: 0]p: copy_x_back: 3.972 [ms]
[OGL LOG][lduLduBase.H:339] 
Statistics:
	Time per iteration: 11839 [mu s]
	Time per residual norm calculation: 4332.000000 [mu s]
	Time per iteration and DOF: 0.184984 [ns]
	Retrieve results bandwidth 2.014000 [GByte/s]
[OGL LOG][Proc: 0]p: solve_multi_gpu: 36796.7 [ms]
nonecudaGKOCG:  Solving for p, Initial residual = 0.963674, Final residual = 7.60046e-05, No Iterations 3097
[INFO] SolveP: 36977 [ms]
time step continuity errors : sum local = 1.30154e-08, global = 7.55377e-22, cumulative = 6.31229e-21
[INFO] ContinuityError: 150.257 [ms]
[INFO] CorrectBoundary: 7.625 [ms]
[INFO] PISOStep: 38849.1 [ms]
[INFO] MatrixAssemblyPI: 1022.45 [ms]
[INFO] AdjustPhi: 55.533 [ms]
[INFO] ConstrainPressure: 0.014 [ms]
[INFO] MatrixAssemblyPII: 296.638 [ms]
[OGL LOG][Proc: 0]: global_index_init: 0.145 [ms]
[OGL LOG][Proc: 0]p_local_coeffs: call_update: 0.002 [ms]
[OGL LOG][Proc: 0]p_non_local_coeffs: call_update: 0 [ms]
[OGL LOG][Proc: 0]p: update_local_matrix_data: 144.85 [ms]
[OGL LOG][Proc: 0]p: update_non_local_matrix_data: 0.975 [ms]
[OGL LOG][Proc: 0]p_matrix: call_update: 72.749 [ms]
[OGL LOG][Proc: 0]p_rhs: call_update: 26.435 [ms]
[OGL LOG][Proc: 0]p: init_precond: 0.044 [ms]
[OGL LOG][StoppingCriterion.H:372] Creating stopping criterion with minIter 1858 frequency 24
[OGL LOG][Proc: 0]p: generate_solver: 0.002 [ms]
[OGL LOG][Proc: 0]p: solve: 36608.3 [ms]
[OGL LOG][Proc: 0]p: copy_x_back: 9 [ms]
[OGL LOG][lduLduBase.H:339] 
Statistics:
	Time per iteration: 11820 [mu s]
	Time per residual norm calculation: 4916.000000 [mu s]
	Time per iteration and DOF: 0.184688 [ns]
	Retrieve results bandwidth 0.888000 [GByte/s]
[OGL LOG][Proc: 0]p: solve_multi_gpu: 36753.8 [ms]
nonecudaGKOCG:  Solving for p, Initial residual = 0.917338, Final residual = 7.26366e-05, No Iterations 3097
[INFO] SolveP: 36935.3 [ms]
time step continuity errors : sum local = 1.23959e-08, global = 8.06889e-22, cumulative = 7.11918e-21
[INFO] ContinuityError: 104.88 [ms]
[INFO] CorrectBoundary: 5.638 [ms]
[INFO] PISOStep: 38766.9 [ms]
[INFO] TimeStep: 85598.9 [ms]
ExecutionTime = 554.23 s  ClockTime = 577 s

Time = 0.001

Courant Number mean: 0.0297905 max: 0.492849
[INFO] MatrixAssemblyU: 946.622 [ms]
DILUPBiCGStab:  Solving for Ux, Initial residual = 0.0364585, Final residual = 0.00413831, No Iterations 5
DILUPBiCGStab:  Solving for Uy, Initial residual = 0.171764, Final residual = 0.0146488, No Iterations 5
DILUPBiCGStab:  Solving for Uz, Initial residual = 0.682703, Final residual = 0.0404131, No Iterations 5
[INFO] MomentumPredictor: 6933.86 [ms]
[INFO] MatrixAssemblyPI: 1058.52 [ms]
[INFO] AdjustPhi: 51.324 [ms]
[INFO] ConstrainPressure: 0.003 [ms]
[INFO] MatrixAssemblyPII: 297.854 [ms]
[OGL LOG][Proc: 0]: global_index_init: 0.195 [ms]
[OGL LOG][Proc: 0]p_local_coeffs: call_update: 0.001 [ms]
[OGL LOG][Proc: 0]p_non_local_coeffs: call_update: 0 [ms]
[OGL LOG][Proc: 0]p: update_local_matrix_data: 145.892 [ms]
[OGL LOG][Proc: 0]p: update_non_local_matrix_data: 1.044 [ms]
[OGL LOG][Proc: 0]p_matrix: call_update: 82.921 [ms]
[OGL LOG][Proc: 0]p_rhs: call_update: 13.299 [ms]
[OGL LOG][Proc: 0]p: init_precond: 0.062 [ms]
[OGL LOG][StoppingCriterion.H:372] Creating stopping criterion with minIter 1858 frequency 24
[OGL LOG][Proc: 0]p: generate_solver: 0.002 [ms]
[OGL LOG][Proc: 0]p: solve: 36301 [ms]
[OGL LOG][Proc: 0]p: copy_x_back: 9.385 [ms]
[OGL LOG][lduLduBase.H:339] 
Statistics:
	Time per iteration: 11812 [mu s]
	Time per residual norm calculation: 4173.000000 [mu s]
	Time per iteration and DOF: 0.184562 [ns]
	Retrieve results bandwidth 0.852000 [GByte/s]
[OGL LOG][Proc: 0]p: solve_multi_gpu: 36411.8 [ms]
nonecudaGKOCG:  Solving for p, Initial residual = 0.961724, Final residual = 9.58375e-05, No Iterations 3073
[INFO] SolveP: 36633 [ms]
time step continuity errors : sum local = 1.88491e-08, global = 2.51224e-22, cumulative = 7.3704e-21
[INFO] ContinuityError: 126.845 [ms]
[INFO] CorrectBoundary: 5.594 [ms]
[INFO] PISOStep: 38510.1 [ms]
[INFO] MatrixAssemblyPI: 1025.21 [ms]
[INFO] AdjustPhi: 52.523 [ms]
[INFO] ConstrainPressure: 0.015 [ms]
[INFO] MatrixAssemblyPII: 297.505 [ms]
[OGL LOG][Proc: 0]: global_index_init: 0.156 [ms]
[OGL LOG][Proc: 0]p_local_coeffs: call_update: 0.001 [ms]
[OGL LOG][Proc: 0]p_non_local_coeffs: call_update: 0 [ms]
[OGL LOG][Proc: 0]p: update_local_matrix_data: 145.748 [ms]
[OGL LOG][Proc: 0]p: update_non_local_matrix_data: 0.507 [ms]
[OGL LOG][Proc: 0]p_matrix: call_update: 77.472 [ms]
[OGL LOG][Proc: 0]p_rhs: call_update: 17.309 [ms]
[OGL LOG][Proc: 0]p: init_precond: 0.053 [ms]
[OGL LOG][StoppingCriterion.H:372] Creating stopping criterion with minIter 1843 frequency 24
[OGL LOG][Proc: 0]p: generate_solver: 0.003 [ms]
[OGL LOG][Proc: 0]p: solve: 36232.5 [ms]
[OGL LOG][Proc: 0]p: copy_x_back: 5.865 [ms]
[OGL LOG][lduLduBase.H:339] 
Statistics:
	Time per iteration: 11790 [mu s]
	Time per residual norm calculation: 4319.000000 [mu s]
	Time per iteration and DOF: 0.184219 [ns]
	Retrieve results bandwidth 1.364000 [GByte/s]
[OGL LOG][Proc: 0]p: solve_multi_gpu: 36366.2 [ms]
nonecudaGKOCG:  Solving for p, Initial residual = 0.898786, Final residual = 9.07146e-05, No Iterations 3073
[INFO] SolveP: 36546.5 [ms]
time step continuity errors : sum local = 1.80935e-08, global = 9.32607e-22, cumulative = 8.30301e-21
[INFO] ContinuityError: 110.422 [ms]
[INFO] CorrectBoundary: 5.197 [ms]
[INFO] PISOStep: 38380 [ms]
[INFO] TimeStep: 84876.4 [ms]
ExecutionTime = 638.68 s  ClockTime = 662 s

Time = 0.001125

Courant Number mean: 0.0315868 max: 0.696327
[INFO] MatrixAssemblyU: 938.474 [ms]
DILUPBiCGStab:  Solving for Ux, Initial residual = 0.0377453, Final residual = 0.00389361, No Iterations 5
DILUPBiCGStab:  Solving for Uy, Initial residual = 0.188708, Final residual = 0.0151139, No Iterations 5
DILUPBiCGStab:  Solving for Uz, Initial residual = 0.694111, Final residual = 0.0386189, No Iterations 5
[INFO] MomentumPredictor: 6935.92 [ms]
[INFO] MatrixAssemblyPI: 1057.9 [ms]
[INFO] AdjustPhi: 51.706 [ms]
[INFO] ConstrainPressure: 0.002 [ms]
[INFO] MatrixAssemblyPII: 298.124 [ms]
[OGL LOG][Proc: 0]: global_index_init: 0.153 [ms]
[OGL LOG][Proc: 0]p_local_coeffs: call_update: 0.001 [ms]
[OGL LOG][Proc: 0]p_non_local_coeffs: call_update: 0 [ms]
[OGL LOG][Proc: 0]p: update_local_matrix_data: 145.028 [ms]
[OGL LOG][Proc: 0]p: update_non_local_matrix_data: 1.017 [ms]
[OGL LOG][Proc: 0]p_matrix: call_update: 78.122 [ms]
[OGL LOG][Proc: 0]p_rhs: call_update: 21.369 [ms]
[OGL LOG][Proc: 0]p: init_precond: 0.061 [ms]
[OGL LOG][StoppingCriterion.H:372] Creating stopping criterion with minIter 1843 frequency 24
[OGL LOG][Proc: 0]p: generate_solver: 0.002 [ms]
[OGL LOG][Proc: 0]p: solve: 36347.6 [ms]
[OGL LOG][Proc: 0]p: copy_x_back: 6.562 [ms]
[OGL LOG][lduLduBase.H:339] 
Statistics:
	Time per iteration: 11828 [mu s]
	Time per residual norm calculation: 4761.000000 [mu s]
	Time per iteration and DOF: 0.184812 [ns]
	Retrieve results bandwidth 1.219000 [GByte/s]
[OGL LOG][Proc: 0]p: solve_multi_gpu: 36489.8 [ms]
nonecudaGKOCG:  Solving for p, Initial residual = 0.969213, Final residual = 9.65399e-05, No Iterations 3073
[INFO] SolveP: 36670.2 [ms]
time step continuity errors : sum local = 2.16518e-08, global = 4.19646e-22, cumulative = 8.72266e-21
[INFO] ContinuityError: 111.265 [ms]
[INFO] CorrectBoundary: 7.108 [ms]
[INFO] PISOStep: 38536.5 [ms]
[INFO] MatrixAssemblyPI: 1019.8 [ms]
[INFO] AdjustPhi: 56.528 [ms]
[INFO] ConstrainPressure: 0.013 [ms]
[INFO] MatrixAssemblyPII: 297.533 [ms]
[OGL LOG][Proc: 0]: global_index_init: 0.463 [ms]
[OGL LOG][Proc: 0]p_local_coeffs: call_update: 0.001 [ms]
[OGL LOG][Proc: 0]p_non_local_coeffs: call_update: 0 [ms]
[OGL LOG][Proc: 0]p: update_local_matrix_data: 145.823 [ms]
[OGL LOG][Proc: 0]p: update_non_local_matrix_data: 0.616 [ms]
[OGL LOG][Proc: 0]p_matrix: call_update: 81.772 [ms]
[OGL LOG][Proc: 0]p_rhs: call_update: 16.799 [ms]
[OGL LOG][Proc: 0]p: init_precond: 0.052 [ms]
[OGL LOG][StoppingCriterion.H:372] Creating stopping criterion with minIter 1843 frequency 24
[OGL LOG][Proc: 0]p: generate_solver: 0.002 [ms]
[OGL LOG][Proc: 0]p: solve: 36437.3 [ms]
[OGL LOG][Proc: 0]p: copy_x_back: 11.376 [ms]
[OGL LOG][lduLduBase.H:339] 
Statistics:
	Time per iteration: 11857 [mu s]
	Time per residual norm calculation: 4628.000000 [mu s]
	Time per iteration and DOF: 0.185266 [ns]
	Retrieve results bandwidth 0.703000 [GByte/s]
[OGL LOG][Proc: 0]p: solve_multi_gpu: 36580 [ms]
nonecudaGKOCG:  Solving for p, Initial residual = 0.918454, Final residual = 9.23735e-05, No Iterations 3073
[INFO] SolveP: 36754.4 [ms]
time step continuity errors : sum local = 2.06922e-08, global = 6.19048e-22, cumulative = 9.3417e-21
[INFO] ContinuityError: 176.475 [ms]
[INFO] CorrectBoundary: 5.924 [ms]
[INFO] PISOStep: 38592.8 [ms]
[INFO] TimeStep: 85109.8 [ms]
ExecutionTime = 723.35 s  ClockTime = 747 s

Time = 0.00125

Courant Number mean: 0.0329988 max: 0.509396
[INFO] MatrixAssemblyU: 935.1 [ms]
DILUPBiCGStab:  Solving for Ux, Initial residual = 0.0411212, Final residual = 0.00396726, No Iterations 5
DILUPBiCGStab:  Solving for Uy, Initial residual = 0.187226, Final residual = 0.0133528, No Iterations 5
DILUPBiCGStab:  Solving for Uz, Initial residual = 0.694121, Final residual = 0.0374189, No Iterations 5
[INFO] MomentumPredictor: 6940.44 [ms]
[INFO] MatrixAssemblyPI: 1058.88 [ms]
[INFO] AdjustPhi: 49.829 [ms]
[INFO] ConstrainPressure: 0.002 [ms]
[INFO] MatrixAssemblyPII: 297.268 [ms]
[OGL LOG][Proc: 0]: global_index_init: 0.19 [ms]
[OGL LOG][Proc: 0]p_local_coeffs: call_update: 0.001 [ms]
[OGL LOG][Proc: 0]p_non_local_coeffs: call_update: 0 [ms]
[OGL LOG][Proc: 0]p: update_local_matrix_data: 145.042 [ms]
[OGL LOG][Proc: 0]p: update_non_local_matrix_data: 0.979 [ms]
[OGL LOG][Proc: 0]p_matrix: call_update: 70.821 [ms]
[OGL LOG][Proc: 0]p_rhs: call_update: 26.455 [ms]
[OGL LOG][Proc: 0]p: init_precond: 0.06 [ms]
[OGL LOG][StoppingCriterion.H:372] Creating stopping criterion with minIter 1843 frequency 24
[OGL LOG][Proc: 0]p: generate_solver: 0.002 [ms]
[OGL LOG][Proc: 0]p: solve: 36369 [ms]
[OGL LOG][Proc: 0]p: copy_x_back: 8.744 [ms]
[OGL LOG][lduLduBase.H:339] 
Statistics:
	Time per iteration: 11835 [mu s]
	Time per residual norm calculation: 4011.000000 [mu s]
	Time per iteration and DOF: 0.184922 [ns]
	Retrieve results bandwidth 0.914000 [GByte/s]
[OGL LOG][Proc: 0]p: solve_multi_gpu: 36494.3 [ms]
nonecudaGKOCG:  Solving for p, Initial residual = 0.968459, Final residual = 9.66884e-05, No Iterations 3073
[INFO] SolveP: 36711.7 [ms]
time step continuity errors : sum local = 2.51417e-08, global = 8.53618e-22, cumulative = 1.01953e-20
[INFO] ContinuityError: 105.052 [ms]
[INFO] CorrectBoundary: 6.677 [ms]
[INFO] PISOStep: 38578 [ms]
[INFO] MatrixAssemblyPI: 1021.38 [ms]
[INFO] AdjustPhi: 54.17 [ms]
[INFO] ConstrainPressure: 0.014 [ms]
[INFO] MatrixAssemblyPII: 297.145 [ms]
[OGL LOG][Proc: 0]: global_index_init: 0.227 [ms]
[OGL LOG][Proc: 0]p_local_coeffs: call_update: 0.001 [ms]
[OGL LOG][Proc: 0]p_non_local_coeffs: call_update: 0 [ms]
[OGL LOG][Proc: 0]p: update_local_matrix_data: 145.233 [ms]
[OGL LOG][Proc: 0]p: update_non_local_matrix_data: 0.908 [ms]
[OGL LOG][Proc: 0]p_matrix: call_update: 79.659 [ms]
[OGL LOG][Proc: 0]p_rhs: call_update: 17.221 [ms]
[OGL LOG][Proc: 0]p: init_precond: 0.06 [ms]
[OGL LOG][StoppingCriterion.H:372] Creating stopping criterion with minIter 1843 frequency 24
[OGL LOG][Proc: 0]p: generate_solver: 0.003 [ms]
[OGL LOG][Proc: 0]p: solve: 36349.8 [ms]
[OGL LOG][Proc: 0]p: copy_x_back: 7.262 [ms]
[OGL LOG][lduLduBase.H:339] 
Statistics:
	Time per iteration: 11828 [mu s]
	Time per residual norm calculation: 4325.000000 [mu s]
	Time per iteration and DOF: 0.184812 [ns]
	Retrieve results bandwidth 1.101000 [GByte/s]
[OGL LOG][Proc: 0]p: solve_multi_gpu: 36476.8 [ms]
nonecudaGKOCG:  Solving for p, Initial residual = 0.904074, Final residual = 9.11198e-05, No Iterations 3073
[INFO] SolveP: 36662.5 [ms]
time step continuity errors : sum local = 2.40025e-08, global = 1.00356e-21, cumulative = 1.11989e-20
[INFO] ContinuityError: 226.968 [ms]
[INFO] CorrectBoundary: 6.444 [ms]
[INFO] PISOStep: 38514.3 [ms]
[INFO] TimeStep: 85073.8 [ms]
ExecutionTime = 807.99 s  ClockTime = 832 s

Time = 0.001375

Courant Number mean: 0.0345919 max: 0.825891
[INFO] MatrixAssemblyU: 946.361 [ms]
DILUPBiCGStab:  Solving for Ux, Initial residual = 0.0438759, Final residual = 0.00377837, No Iterations 5
DILUPBiCGStab:  Solving for Uy, Initial residual = 0.210969, Final residual = 0.0144136, No Iterations 5
DILUPBiCGStab:  Solving for Uz, Initial residual = 0.707309, Final residual = 0.0365449, No Iterations 5
[INFO] MomentumPredictor: 6931.69 [ms]
[INFO] MatrixAssemblyPI: 1055.59 [ms]
[INFO] AdjustPhi: 54.003 [ms]
[INFO] ConstrainPressure: 0.003 [ms]
[INFO] MatrixAssemblyPII: 297.377 [ms]
[OGL LOG][Proc: 0]: global_index_init: 0.167 [ms]
[OGL LOG][Proc: 0]p_local_coeffs: call_update: 0.001 [ms]
[OGL LOG][Proc: 0]p_non_local_coeffs: call_update: 0 [ms]
[OGL LOG][Proc: 0]p: update_local_matrix_data: 146.457 [ms]
[OGL LOG][Proc: 0]p: update_non_local_matrix_data: 0.22 [ms]
[OGL LOG][Proc: 0]p_matrix: call_update: 86.259 [ms]
[OGL LOG][Proc: 0]p_rhs: call_update: 12.756 [ms]
[OGL LOG][Proc: 0]p: init_precond: 0.052 [ms]
[OGL LOG][StoppingCriterion.H:372] Creating stopping criterion with minIter 1843 frequency 24
[OGL LOG][Proc: 0]p: generate_solver: 0.002 [ms]
[OGL LOG][Proc: 0]p: solve: 36355.9 [ms]
[OGL LOG][Proc: 0]p: copy_x_back: 8.315 [ms]
[OGL LOG][lduLduBase.H:339] 
Statistics:
	Time per iteration: 11830 [mu s]
	Time per residual norm calculation: 4468.000000 [mu s]
	Time per iteration and DOF: 0.184844 [ns]
	Retrieve results bandwidth 0.962000 [GByte/s]
[OGL LOG][Proc: 0]p: solve_multi_gpu: 36491.4 [ms]
nonecudaGKOCG:  Solving for p, Initial residual = 0.973749, Final residual = 9.32838e-05, No Iterations 3073
[INFO] SolveP: 36677.8 [ms]
time step continuity errors : sum local = 2.8052e-08, global = 9.7058e-23, cumulative = 1.12959e-20
[INFO] ContinuityError: 122.289 [ms]
[INFO] CorrectBoundary: 7.053 [ms]
[INFO] PISOStep: 38548.6 [ms]
[INFO] MatrixAssemblyPI: 1016.86 [ms]
[INFO] AdjustPhi: 59.257 [ms]
[INFO] ConstrainPressure: 0.016 [ms]
[INFO] MatrixAssemblyPII: 297.498 [ms]
[OGL LOG][Proc: 0]: global_index_init: 0.135 [ms]
[OGL LOG][Proc: 0]p_local_coeffs: call_update: 0.001 [ms]
[OGL LOG][Proc: 0]p_non_local_coeffs: call_update: 0 [ms]
[OGL LOG][Proc: 0]p: update_local_matrix_data: 145.971 [ms]
[OGL LOG][Proc: 0]p: update_non_local_matrix_data: 0.566 [ms]
[OGL LOG][Proc: 0]p_matrix: call_update: 87.947 [ms]
[OGL LOG][Proc: 0]p_rhs: call_update: 11.16 [ms]
[OGL LOG][Proc: 0]p: init_precond: 0.066 [ms]
[OGL LOG][StoppingCriterion.H:372] Creating stopping criterion with minIter 1843 frequency 24
[OGL LOG][Proc: 0]p: generate_solver: 0.002 [ms]
[OGL LOG][Proc: 0]p: solve: 36297.7 [ms]
[OGL LOG][Proc: 0]p: copy_x_back: 11.988 [ms]
[OGL LOG][lduLduBase.H:339] 
Statistics:
	Time per iteration: 11811 [mu s]
	Time per residual norm calculation: 4468.000000 [mu s]
	Time per iteration and DOF: 0.184547 [ns]
	Retrieve results bandwidth 0.667000 [GByte/s]
[OGL LOG][Proc: 0]p: solve_multi_gpu: 36440.2 [ms]
nonecudaGKOCG:  Solving for p, Initial residual = 0.919251, Final residual = 8.8741e-05, No Iterations 3073
[INFO] SolveP: 36619.9 [ms]
time step continuity errors : sum local = 2.67046e-08, global = 4.6527e-22, cumulative = 1.17612e-20
[INFO] ContinuityError: 123.765 [ms]
[INFO] CorrectBoundary: 5.512 [ms]
[INFO] PISOStep: 38452.3 [ms]
[INFO] TimeStep: 84984.9 [ms]
ExecutionTime = 892.51 s  ClockTime = 917 s

Time = 0.0015

Courant Number mean: 0.0357912 max: 0.599148
[INFO] MatrixAssemblyU: 943.751 [ms]
DILUPBiCGStab:  Solving for Ux, Initial residual = 0.0493253, Final residual = 0.00399594, No Iterations 5
DILUPBiCGStab:  Solving for Uy, Initial residual = 0.215109, Final residual = 0.0132258, No Iterations 5
DILUPBiCGStab:  Solving for Uz, Initial residual = 0.711048, Final residual = 0.0361012, No Iterations 5
[INFO] MomentumPredictor: 6929.46 [ms]
[INFO] MatrixAssemblyPI: 1056.43 [ms]
[INFO] AdjustPhi: 53.297 [ms]
[INFO] ConstrainPressure: 0.003 [ms]
[INFO] MatrixAssemblyPII: 297.549 [ms]
[OGL LOG][Proc: 0]: global_index_init: 0.371 [ms]
[OGL LOG][Proc: 0]p_local_coeffs: call_update: 0.001 [ms]
[OGL LOG][Proc: 0]p_non_local_coeffs: call_update: 0 [ms]
[OGL LOG][Proc: 0]p: update_local_matrix_data: 145.574 [ms]
[OGL LOG][Proc: 0]p: update_non_local_matrix_data: 0.714 [ms]
[OGL LOG][Proc: 0]p_matrix: call_update: 83.361 [ms]
[OGL LOG][Proc: 0]p_rhs: call_update: 16.896 [ms]
[OGL LOG][Proc: 0]p: init_precond: 0.066 [ms]
[OGL LOG][StoppingCriterion.H:372] Creating stopping criterion with minIter 1843 frequency 24
[OGL LOG][Proc: 0]p: generate_solver: 0.002 [ms]
[OGL LOG][Proc: 0]p: solve: 36389.3 [ms]
[OGL LOG][Proc: 0]p: copy_x_back: 5.44 [ms]
[OGL LOG][lduLduBase.H:339] 
Statistics:
	Time per iteration: 11841 [mu s]
	Time per residual norm calculation: 4178.000000 [mu s]
	Time per iteration and DOF: 0.185016 [ns]
	Retrieve results bandwidth 1.470000 [GByte/s]
[OGL LOG][Proc: 0]p: solve_multi_gpu: 36511.9 [ms]
nonecudaGKOCG:  Solving for p, Initial residual = 0.973917, Final residual = 8.89501e-05, No Iterations 3073
[INFO] SolveP: 36719.1 [ms]
time step continuity errors : sum local = 3.12928e-08, global = 1.14658e-21, cumulative = 1.29078e-20
[INFO] ContinuityError: 113.426 [ms]
[INFO] CorrectBoundary: 6.391 [ms]
[INFO] PISOStep: 38586.1 [ms]
[INFO] MatrixAssemblyPI: 1019.8 [ms]
[INFO] AdjustPhi: 57.71 [ms]
[INFO] ConstrainPressure: 0.015 [ms]
[INFO] MatrixAssemblyPII: 296.729 [ms]
[OGL LOG][Proc: 0]: global_index_init: 0.176 [ms]
[OGL LOG][Proc: 0]p_local_coeffs: call_update: 0.001 [ms]
[OGL LOG][Proc: 0]p_non_local_coeffs: call_update: 0 [ms]
[OGL LOG][Proc: 0]p: update_local_matrix_data: 144.022 [ms]
[OGL LOG][Proc: 0]p: update_non_local_matrix_data: 1.044 [ms]
[OGL LOG][Proc: 0]p_matrix: call_update: 19.766 [ms]
[OGL LOG][Proc: 0]p_rhs: call_update: 75.539 [ms]
[OGL LOG][Proc: 0]p: init_precond: 0.06 [ms]
[OGL LOG][StoppingCriterion.H:372] Creating stopping criterion with minIter 1843 frequency 24
[OGL LOG][Proc: 0]p: generate_solver: 0.002 [ms]
[OGL LOG][Proc: 0]p: solve: 36370.5 [ms]
[OGL LOG][Proc: 0]p: copy_x_back: 15.214 [ms]
[OGL LOG][lduLduBase.H:339] 
Statistics:
	Time per iteration: 11835 [mu s]
	Time per residual norm calculation: 4017.000000 [mu s]
	Time per iteration and DOF: 0.184922 [ns]
	Retrieve results bandwidth 0.525000 [GByte/s]
[OGL LOG][Proc: 0]p: solve_multi_gpu: 36501.5 [ms]
nonecudaGKOCG:  Solving for p, Initial residual = 0.908732, Final residual = 8.58156e-05, No Iterations 3073
[INFO] SolveP: 36698.3 [ms]
time step continuity errors : sum local = 3.0549e-08, global = 9.22358e-22, cumulative = 1.38301e-20
[INFO] ContinuityError: 125.022 [ms]
[INFO] CorrectBoundary: 3.482 [ms]
[INFO] PISOStep: 38536 [ms]
[INFO] TimeStep: 85101.3 [ms]
ExecutionTime = 977.18 s  ClockTime = 1002 s

Time = 0.001625

Courant Number mean: 0.0372803 max: 1.14965
[INFO] MatrixAssemblyU: 942.913 [ms]
DILUPBiCGStab:  Solving for Ux, Initial residual = 0.0539394, Final residual = 0.00391805, No Iterations 5
DILUPBiCGStab:  Solving for Uy, Initial residual = 0.243539, Final residual = 0.0145302, No Iterations 5
DILUPBiCGStab:  Solving for Uz, Initial residual = 0.722967, Final residual = 0.0357227, No Iterations 5
[INFO] MomentumPredictor: 6927.91 [ms]
[INFO] MatrixAssemblyPI: 1042.61 [ms]
[INFO] AdjustPhi: 68.388 [ms]
[INFO] ConstrainPressure: 0.003 [ms]
[INFO] MatrixAssemblyPII: 297.957 [ms]
[OGL LOG][Proc: 0]: global_index_init: 0.237 [ms]
[OGL LOG][Proc: 0]p_local_coeffs: call_update: 0 [ms]
[OGL LOG][Proc: 0]p_non_local_coeffs: call_update: 0 [ms]
[OGL LOG][Proc: 0]p: update_local_matrix_data: 145.667 [ms]
[OGL LOG][Proc: 0]p: update_non_local_matrix_data: 0.893 [ms]
[OGL LOG][Proc: 0]p_matrix: call_update: 81.142 [ms]
[OGL LOG][Proc: 0]p_rhs: call_update: 15.709 [ms]
[OGL LOG][Proc: 0]p: init_precond: 0.06 [ms]
[OGL LOG][StoppingCriterion.H:372] Creating stopping criterion with minIter 1843 frequency 24
[OGL LOG][Proc: 0]p: generate_solver: 0.003 [ms]
[OGL LOG][Proc: 0]p: solve: 36381.3 [ms]
[OGL LOG][Proc: 0]p: copy_x_back: 9.216 [ms]
[OGL LOG][lduLduBase.H:339] 
Statistics:
	Time per iteration: 11839 [mu s]
	Time per residual norm calculation: 4452.000000 [mu s]
	Time per iteration and DOF: 0.184984 [ns]
	Retrieve results bandwidth 0.868000 [GByte/s]
[OGL LOG][Proc: 0]p: solve_multi_gpu: 36520.6 [ms]
nonecudaGKOCG:  Solving for p, Initial residual = 0.977303, Final residual = 9.42759e-05, No Iterations 3073
[INFO] SolveP: 36698.4 [ms]
time step continuity errors : sum local = 3.87392e-08, global = 8.42483e-22, cumulative = 1.46726e-20
[INFO] ContinuityError: 132.541 [ms]
[INFO] CorrectBoundary: 4.839 [ms]
[INFO] PISOStep: 38567.4 [ms]
[INFO] MatrixAssemblyPI: 1024.22 [ms]
[INFO] AdjustPhi: 52.227 [ms]
[INFO] ConstrainPressure: 0.014 [ms]
[INFO] MatrixAssemblyPII: 297.461 [ms]
[OGL LOG][Proc: 0]: global_index_init: 0.147 [ms]
[OGL LOG][Proc: 0]p_local_coeffs: call_update: 0.001 [ms]
[OGL LOG][Proc: 0]p_non_local_coeffs: call_update: 0 [ms]
[OGL LOG][Proc: 0]p: update_local_matrix_data: 145.807 [ms]
[OGL LOG][Proc: 0]p: update_non_local_matrix_data: 0.714 [ms]
[OGL LOG][Proc: 0]p_matrix: call_update: 88.36 [ms]
[OGL LOG][Proc: 0]p_rhs: call_update: 11.023 [ms]
[OGL LOG][Proc: 0]p: init_precond: 0.06 [ms]
[OGL LOG][StoppingCriterion.H:372] Creating stopping criterion with minIter 1843 frequency 24
[OGL LOG][Proc: 0]p: generate_solver: 0.002 [ms]
[OGL LOG][Proc: 0]p: solve: 36315.6 [ms]
[OGL LOG][Proc: 0]p: copy_x_back: 4.972 [ms]
[OGL LOG][lduLduBase.H:339] 
Statistics:
	Time per iteration: 11817 [mu s]
	Time per residual norm calculation: 5051.000000 [mu s]
	Time per iteration and DOF: 0.184641 [ns]
	Retrieve results bandwidth 1.609000 [GByte/s]
[OGL LOG][Proc: 0]p: solve_multi_gpu: 36455 [ms]
nonecudaGKOCG:  Solving for p, Initial residual = 0.920053, Final residual = 8.92056e-05, No Iterations 3073
[INFO] SolveP: 36629 [ms]
time step continuity errors : sum local = 3.67437e-08, global = 1.43158e-21, cumulative = 1.61042e-20
[INFO] ContinuityError: 140.585 [ms]
[INFO] CorrectBoundary: 5.802 [ms]
[INFO] PISOStep: 38467.6 [ms]
[INFO] TimeStep: 85011.8 [ms]
ExecutionTime = 1061.74 s  ClockTime = 1087 s

Time = 0.00175

Courant Number mean: 0.0383423 max: 1.02288
[INFO] MatrixAssemblyU: 938.822 [ms]
DILUPBiCGStab:  Solving for Ux, Initial residual = 0.0618662, Final residual = 0.00423352, No Iterations 5
DILUPBiCGStab:  Solving for Uy, Initial residual = 0.253758, Final residual = 0.0138846, No Iterations 5
DILUPBiCGStab:  Solving for Uz, Initial residual = 0.727259, Final residual = 0.0355169, No Iterations 5
[INFO] MomentumPredictor: 6935.34 [ms]
[INFO] MatrixAssemblyPI: 1056.22 [ms]
[INFO] AdjustPhi: 53.231 [ms]
[INFO] ConstrainPressure: 0.002 [ms]
[INFO] MatrixAssemblyPII: 297.645 [ms]
[OGL LOG][Proc: 0]: global_index_init: 0.31 [ms]
[OGL LOG][Proc: 0]p_local_coeffs: call_update: 0.001 [ms]
[OGL LOG][Proc: 0]p_non_local_coeffs: call_update: 0 [ms]
[OGL LOG][Proc: 0]p: update_local_matrix_data: 145.033 [ms]
[OGL LOG][Proc: 0]p: update_non_local_matrix_data: 0.952 [ms]
[OGL LOG][Proc: 0]p_matrix: call_update: 78.584 [ms]
[OGL LOG][Proc: 0]p_rhs: call_update: 20.082 [ms]
[OGL LOG][Proc: 0]p: init_precond: 0.063 [ms]
[OGL LOG][StoppingCriterion.H:372] Creating stopping criterion with minIter 1843 frequency 24
[OGL LOG][Proc: 0]p: generate_solver: 0.003 [ms]
[OGL LOG][Proc: 0]p: solve: 36520 [ms]
[OGL LOG][Proc: 0]p: copy_x_back: 6.808 [ms]
[OGL LOG][lduLduBase.H:339] 
Statistics:
	Time per iteration: 11884 [mu s]
	Time per residual norm calculation: 4935.000000 [mu s]
	Time per iteration and DOF: 0.185688 [ns]
	Retrieve results bandwidth 1.175000 [GByte/s]
[OGL LOG][Proc: 0]p: solve_multi_gpu: 36659.9 [ms]
nonecudaGKOCG:  Solving for p, Initial residual = 0.977946, Final residual = 9.6438e-05, No Iterations 3073
[INFO] SolveP: 36844.2 [ms]
time step continuity errors : sum local = 4.65841e-08, global = 3.03745e-21, cumulative = 1.91416e-20
[INFO] ContinuityError: 105.509 [ms]
[INFO] CorrectBoundary: 6.857 [ms]
[INFO] PISOStep: 38706.9 [ms]
[INFO] MatrixAssemblyPI: 1023.78 [ms]
[INFO] AdjustPhi: 55.011 [ms]
[INFO] ConstrainPressure: 0.014 [ms]
[INFO] MatrixAssemblyPII: 296.787 [ms]
[OGL LOG][Proc: 0]: global_index_init: 0.339 [ms]
[OGL LOG][Proc: 0]p_local_coeffs: call_update: 0.001 [ms]
[OGL LOG][Proc: 0]p_non_local_coeffs: call_update: 0 [ms]
[OGL LOG][Proc: 0]p: update_local_matrix_data: 144.231 [ms]
[OGL LOG][Proc: 0]p: update_non_local_matrix_data: 1.017 [ms]
[OGL LOG][Proc: 0]p_matrix: call_update: 19.625 [ms]
[OGL LOG][Proc: 0]p_rhs: call_update: 74.429 [ms]
[OGL LOG][Proc: 0]p: init_precond: 0.052 [ms]
[OGL LOG][StoppingCriterion.H:372] Creating stopping criterion with minIter 1843 frequency 24
[OGL LOG][Proc: 0]p: generate_solver: 0.002 [ms]
[OGL LOG][Proc: 0]p: solve: 36384.2 [ms]
[OGL LOG][Proc: 0]p: copy_x_back: 8.071 [ms]
[OGL LOG][lduLduBase.H:339] 
Statistics:
	Time per iteration: 11839 [mu s]
	Time per residual norm calculation: 4475.000000 [mu s]
	Time per iteration and DOF: 0.184984 [ns]
	Retrieve results bandwidth 0.991000 [GByte/s]
[OGL LOG][Proc: 0]p: solve_multi_gpu: 36507.7 [ms]
nonecudaGKOCG:  Solving for p, Initial residual = 0.912646, Final residual = 9.0333e-05, No Iterations 3073
[INFO] SolveP: 36700.1 [ms]
time step continuity errors : sum local = 4.41094e-08, global = 9.08671e-22, cumulative = 2.00503e-20
[INFO] ContinuityError: 126.131 [ms]
[INFO] CorrectBoundary: 6.908 [ms]
[INFO] PISOStep: 38536.5 [ms]
[INFO] TimeStep: 85223.5 [ms]
ExecutionTime = 1146.52 s  ClockTime = 1172 s

Time = 0.001875

Courant Number mean: 0.0398004 max: 1.68454
[INFO] MatrixAssemblyU: 944.683 [ms]
DILUPBiCGStab:  Solving for Ux, Initial residual = 0.0688336, Final residual = 0.00430607, No Iterations 5
DILUPBiCGStab:  Solving for Uy, Initial residual = 0.285776, Final residual = 0.0152846, No Iterations 5
DILUPBiCGStab:  Solving for Uz, Initial residual = 0.735912, Final residual = 0.0352874, No Iterations 5
[INFO] MomentumPredictor: 6926.81 [ms]
[INFO] MatrixAssemblyPI: 1057.42 [ms]
[INFO] AdjustPhi: 52.147 [ms]
[INFO] ConstrainPressure: 0.004 [ms]
[INFO] MatrixAssemblyPII: 296.972 [ms]
[OGL LOG][Proc: 0]: global_index_init: 0.139 [ms]
[OGL LOG][Proc: 0]p_local_coeffs: call_update: 0.002 [ms]
[OGL LOG][Proc: 0]p_non_local_coeffs: call_update: 0 [ms]
[OGL LOG][Proc: 0]p: update_local_matrix_data: 145.343 [ms]
[OGL LOG][Proc: 0]p: update_non_local_matrix_data: 0.908 [ms]
[OGL LOG][Proc: 0]p_matrix: call_update: 81.459 [ms]
[OGL LOG][Proc: 0]p_rhs: call_update: 20.247 [ms]
[OGL LOG][Proc: 0]p: init_precond: 0.06 [ms]
[OGL LOG][StoppingCriterion.H:372] Creating stopping criterion with minIter 1843 frequency 24
[OGL LOG][Proc: 0]p: generate_solver: 0.003 [ms]
[OGL LOG][Proc: 0]p: solve: 36355.2 [ms]
[OGL LOG][Proc: 0]p: copy_x_back: 3.162 [ms]
[OGL LOG][lduLduBase.H:339] 
Statistics:
	Time per iteration: 11830 [mu s]
	Time per residual norm calculation: 4619.000000 [mu s]
	Time per iteration and DOF: 0.184844 [ns]
	Retrieve results bandwidth 2.530000 [GByte/s]
[OGL LOG][Proc: 0]p: solve_multi_gpu: 36488.9 [ms]
nonecudaGKOCG:  Solving for p, Initial residual = 0.979956, Final residual = 9.91107e-05, No Iterations 3073
[INFO] SolveP: 36666.9 [ms]
time step continuity errors : sum local = 5.62759e-08, global = 1.0536e-21, cumulative = 2.11039e-20
[INFO] ContinuityError: 172.508 [ms]
[INFO] CorrectBoundary: 3.395 [ms]
[INFO] PISOStep: 38550.2 [ms]
[INFO] MatrixAssemblyPI: 1026.05 [ms]
[INFO] AdjustPhi: 50.959 [ms]
[INFO] ConstrainPressure: 0.014 [ms]
[INFO] MatrixAssemblyPII: 297.641 [ms]
[OGL LOG][Proc: 0]: global_index_init: 0.189 [ms]
[OGL LOG][Proc: 0]p_local_coeffs: call_update: 0.001 [ms]
[OGL LOG][Proc: 0]p_non_local_coeffs: call_update: 0 [ms]
[OGL LOG][Proc: 0]p: update_local_matrix_data: 145.25 [ms]
[OGL LOG][Proc: 0]p: update_non_local_matrix_data: 0.974 [ms]
[OGL LOG][Proc: 0]p_matrix: call_update: 79.793 [ms]
[OGL LOG][Proc: 0]p_rhs: call_update: 20.456 [ms]
[OGL LOG][Proc: 0]p: init_precond: 0.057 [ms]
[OGL LOG][StoppingCriterion.H:372] Creating stopping criterion with minIter 1843 frequency 24
[OGL LOG][Proc: 0]p: generate_solver: 0.002 [ms]
[OGL LOG][Proc: 0]p: solve: 36352.1 [ms]
[OGL LOG][Proc: 0]p: copy_x_back: 4.587 [ms]
[OGL LOG][lduLduBase.H:339] 
Statistics:
	Time per iteration: 11829 [mu s]
	Time per residual norm calculation: 4462.000000 [mu s]
	Time per iteration and DOF: 0.184828 [ns]
	Retrieve results bandwidth 1.744000 [GByte/s]
[OGL LOG][Proc: 0]p: solve_multi_gpu: 36493.5 [ms]
nonecudaGKOCG:  Solving for p, Initial residual = 0.920576, Final residual = 9.33823e-05, No Iterations 3073
[INFO] SolveP: 36675.2 [ms]
time step continuity errors : sum local = 5.32283e-08, global = 9.20122e-22, cumulative = 2.2024e-20
[INFO] ContinuityError: 104.611 [ms]
[INFO] CorrectBoundary: 6.603 [ms]
[INFO] PISOStep: 38505.1 [ms]
[INFO] TimeStep: 85032.8 [ms]
ExecutionTime = 1231.12 s  ClockTime = 1257 s

Time = 0.002

Courant Number mean: 0.0407953 max: 1.71864
[INFO] MatrixAssemblyU: 946.416 [ms]
DILUPBiCGStab:  Solving for Ux, Initial residual = 0.0801796, Final residual = 0.00474721, No Iterations 5
DILUPBiCGStab:  Solving for Uy, Initial residual = 0.302267, Final residual = 0.0151052, No Iterations 5
DILUPBiCGStab:  Solving for Uz, Initial residual = 0.739279, Final residual = 0.035053, No Iterations 5
[INFO] MomentumPredictor: 6928.05 [ms]
[INFO] MatrixAssemblyPI: 1059.94 [ms]
[INFO] AdjustPhi: 50.544 [ms]
[INFO] ConstrainPressure: 0.002 [ms]
[INFO] MatrixAssemblyPII: 297.29 [ms]
[OGL LOG][Proc: 0]: global_index_init: 0.317 [ms]
[OGL LOG][Proc: 0]p_local_coeffs: call_update: 0.001 [ms]
[OGL LOG][Proc: 0]p_non_local_coeffs: call_update: 0 [ms]
[OGL LOG][Proc: 0]p: update_local_matrix_data: 145.569 [ms]
[OGL LOG][Proc: 0]p: update_non_local_matrix_data: 0.696 [ms]
[OGL LOG][Proc: 0]p_matrix: call_update: 85.683 [ms]
[OGL LOG][Proc: 0]p_rhs: call_update: 15.931 [ms]
[OGL LOG][Proc: 0]p: init_precond: 0.045 [ms]
[OGL LOG][StoppingCriterion.H:372] Creating stopping criterion with minIter 1843 frequency 24
[OGL LOG][Proc: 0]p: generate_solver: 0.002 [ms]
[OGL LOG][Proc: 0]p: solve: 36616.8 [ms]
[OGL LOG][Proc: 0]p: copy_x_back: 7.026 [ms]
[OGL LOG][lduLduBase.H:339] 
Statistics:
	Time per iteration: 11823 [mu s]
	Time per residual norm calculation: 4633.000000 [mu s]
	Time per iteration and DOF: 0.184734 [ns]
	Retrieve results bandwidth 1.138000 [GByte/s]
[OGL LOG][Proc: 0]p: solve_multi_gpu: 36753.8 [ms]
nonecudaGKOCG:  Solving for p, Initial residual = 0.981005, Final residual = 6.71452e-05, No Iterations 3097
[INFO] SolveP: 36941.7 [ms]
time step continuity errors : sum local = 4.50308e-08, global = 7.27505e-22, cumulative = 2.27515e-20
[INFO] ContinuityError: 114.781 [ms]
[INFO] CorrectBoundary: 8.02 [ms]
[INFO] PISOStep: 38810.1 [ms]
[INFO] MatrixAssemblyPI: 1026.14 [ms]
[INFO] AdjustPhi: 51.875 [ms]
[INFO] ConstrainPressure: 0.014 [ms]
[INFO] MatrixAssemblyPII: 297.624 [ms]
[OGL LOG][Proc: 0]: global_index_init: 0.282 [ms]
[OGL LOG][Proc: 0]p_local_coeffs: call_update: 0.001 [ms]
[OGL LOG][Proc: 0]p_non_local_coeffs: call_update: 0 [ms]
[OGL LOG][Proc: 0]p: update_local_matrix_data: 145.043 [ms]
[OGL LOG][Proc: 0]p: update_non_local_matrix_data: 0.905 [ms]
[OGL LOG][Proc: 0]p_matrix: call_update: 71.812 [ms]
[OGL LOG][Proc: 0]p_rhs: call_update: 28.163 [ms]
[OGL LOG][Proc: 0]p: init_precond: 0.061 [ms]
[OGL LOG][StoppingCriterion.H:372] Creating stopping criterion with minIter 1858 frequency 24
[OGL LOG][Proc: 0]p: generate_solver: 0.002 [ms]
[OGL LOG][Proc: 0]p: solve: 36340.2 [ms]
[OGL LOG][Proc: 0]p: copy_x_back: 3.37 [ms]
[OGL LOG][lduLduBase.H:339] 
Statistics:
	Time per iteration: 11825 [mu s]
	Time per residual norm calculation: 4473.000000 [mu s]
	Time per iteration and DOF: 0.184766 [ns]
	Retrieve results bandwidth 2.373000 [GByte/s]
[OGL LOG][Proc: 0]p: solve_multi_gpu: 36476.7 [ms]
nonecudaGKOCG:  Solving for p, Initial residual = 0.915609, Final residual = 9.57423e-05, No Iterations 3073
[INFO] SolveP: 36655.8 [ms]
time step continuity errors : sum local = 6.48554e-08, global = 1.71216e-21, cumulative = 2.44637e-20
[INFO] ContinuityError: 117.566 [ms]
[INFO] CorrectBoundary: 3.24 [ms]
[INFO] PISOStep: 38491.8 [ms]
[INFO] TimeStep: 85282.2 [ms]
ExecutionTime = 1315.95 s  ClockTime = 1342 s

Time = 0.002125

Courant Number mean: 0.0422897 max: 2.54999
[INFO] MatrixAssemblyU: 939.181 [ms]
DILUPBiCGStab:  Solving for Ux, Initial residual = 0.0901476, Final residual = 0.00499215, No Iterations 5
DILUPBiCGStab:  Solving for Uy, Initial residual = 0.337147, Final residual = 0.0165651, No Iterations 5
DILUPBiCGStab:  Solving for Uz, Initial residual = 0.744747, Final residual = 0.0347898, No Iterations 5
[INFO] MomentumPredictor: 6934.2 [ms]
[INFO] MatrixAssemblyPI: 1040.59 [ms]
[INFO] AdjustPhi: 68.452 [ms]
[INFO] ConstrainPressure: 0.003 [ms]
[INFO] MatrixAssemblyPII: 297.875 [ms]
[OGL LOG][Proc: 0]: global_index_init: 0.239 [ms]
[OGL LOG][Proc: 0]p_local_coeffs: call_update: 0.002 [ms]
[OGL LOG][Proc: 0]p_non_local_coeffs: call_update: 0 [ms]
[OGL LOG][Proc: 0]p: update_local_matrix_data: 144.659 [ms]
[OGL LOG][Proc: 0]p: update_non_local_matrix_data: 1.007 [ms]
[OGL LOG][Proc: 0]p_matrix: call_update: 67.001 [ms]
[OGL LOG][Proc: 0]p_rhs: call_update: 33.227 [ms]
[OGL LOG][Proc: 0]p: init_precond: 0.059 [ms]
[OGL LOG][StoppingCriterion.H:372] Creating stopping criterion with minIter 1843 frequency 24
[OGL LOG][Proc: 0]p: generate_solver: 0.003 [ms]
[OGL LOG][Proc: 0]p: solve: 36599.7 [ms]
[OGL LOG][Proc: 0]p: copy_x_back: 6.544 [ms]
[OGL LOG][lduLduBase.H:339] 
Statistics:
	Time per iteration: 11817 [mu s]
	Time per residual norm calculation: 4170.000000 [mu s]
	Time per iteration and DOF: 0.184641 [ns]
	Retrieve results bandwidth 1.222000 [GByte/s]
[OGL LOG][Proc: 0]p: solve_multi_gpu: 36716.4 [ms]
nonecudaGKOCG:  Solving for p, Initial residual = 0.982029, Final residual = 7.33527e-05, No Iterations 3097
[INFO] SolveP: 36937.7 [ms]
time step continuity errors : sum local = 5.82874e-08, global = 1.22389e-21, cumulative = 2.56876e-20
[INFO] ContinuityError: 119.112 [ms]
[INFO] CorrectBoundary: 7.302 [ms]
[INFO] PISOStep: 38807.5 [ms]
[INFO] MatrixAssemblyPI: 1019.98 [ms]
[INFO] AdjustPhi: 58.294 [ms]
[INFO] ConstrainPressure: 0.015 [ms]
[INFO] MatrixAssemblyPII: 297.964 [ms]
[OGL LOG][Proc: 0]: global_index_init: 0.162 [ms]
[OGL LOG][Proc: 0]p_local_coeffs: call_update: 0.001 [ms]
[OGL LOG][Proc: 0]p_non_local_coeffs: call_update: 0 [ms]
[OGL LOG][Proc: 0]p: update_local_matrix_data: 144.929 [ms]
[OGL LOG][Proc: 0]p: update_non_local_matrix_data: 0.9 [ms]
[OGL LOG][Proc: 0]p_matrix: call_update: 62.347 [ms]
[OGL LOG][Proc: 0]p_rhs: call_update: 38.122 [ms]
[OGL LOG][Proc: 0]p: init_precond: 0.058 [ms]
[OGL LOG][StoppingCriterion.H:372] Creating stopping criterion with minIter 1858 frequency 24
[OGL LOG][Proc: 0]p: generate_solver: 0.002 [ms]
[OGL LOG][Proc: 0]p: solve: 36274.9 [ms]
[OGL LOG][Proc: 0]p: copy_x_back: 6.765 [ms]
[OGL LOG][lduLduBase.H:339] 
Statistics:
	Time per iteration: 11804 [mu s]
	Time per residual norm calculation: 4017.000000 [mu s]
	Time per iteration and DOF: 0.184438 [ns]
	Retrieve results bandwidth 1.182000 [GByte/s]
[OGL LOG][Proc: 0]p: solve_multi_gpu: 36401.7 [ms]
nonecudaGKOCG:  Solving for p, Initial residual = 0.920582, Final residual = 9.93736e-05, No Iterations 3073
[INFO] SolveP: 36593.5 [ms]
time step continuity errors : sum local = 7.93789e-08, global = 1.39385e-21, cumulative = 2.70814e-20
[INFO] ContinuityError: 130.772 [ms]
[INFO] CorrectBoundary: 7.067 [ms]
[INFO] PISOStep: 38429.3 [ms]
[INFO] TimeStep: 85216.1 [ms]
ExecutionTime = 1400.7 s  ClockTime = 1428 s

Time = 0.00225

Courant Number mean: 0.0432969 max: 2.85852
[INFO] MatrixAssemblyU: 941.972 [ms]
DILUPBiCGStab:  Solving for Ux, Initial residual = 0.106403, Final residual = 0.00563041, No Iterations 5
DILUPBiCGStab:  Solving for Uy, Initial residual = 0.359805, Final residual = 0.0167906, No Iterations 5
DILUPBiCGStab:  Solving for Uz, Initial residual = 0.747074, Final residual = 0.0345421, No Iterations 5
[INFO] MomentumPredictor: 6934.17 [ms]
[INFO] MatrixAssemblyPI: 1049.12 [ms]
[INFO] AdjustPhi: 60.922 [ms]
[INFO] ConstrainPressure: 0.002 [ms]
[INFO] MatrixAssemblyPII: 296.811 [ms]
[OGL LOG][Proc: 0]: global_index_init: 0.214 [ms]
[OGL LOG][Proc: 0]p_local_coeffs: call_update: 0.002 [ms]
[OGL LOG][Proc: 0]p_non_local_coeffs: call_update: 0 [ms]
[OGL LOG][Proc: 0]p: update_local_matrix_data: 145.313 [ms]
[OGL LOG][Proc: 0]p: update_non_local_matrix_data: 0.945 [ms]
[OGL LOG][Proc: 0]p_matrix: call_update: 72.198 [ms]
[OGL LOG][Proc: 0]p_rhs: call_update: 25.179 [ms]
[OGL LOG][Proc: 0]p: init_precond: 0.062 [ms]
[OGL LOG][StoppingCriterion.H:372] Creating stopping criterion with minIter 1843 frequency 24
[OGL LOG][Proc: 0]p: generate_solver: 0.002 [ms]
[OGL LOG][Proc: 0]p: solve: 36673.2 [ms]
[OGL LOG][Proc: 0]p: copy_x_back: 17.003 [ms]
[OGL LOG][lduLduBase.H:339] 
Statistics:
	Time per iteration: 11841 [mu s]
	Time per residual norm calculation: 4003.000000 [mu s]
	Time per iteration and DOF: 0.185016 [ns]
	Retrieve results bandwidth 0.470000 [GByte/s]
[OGL LOG][Proc: 0]p: solve_multi_gpu: 36817 [ms]
nonecudaGKOCG:  Solving for p, Initial residual = 0.98321, Final residual = 7.38709e-05, No Iterations 3097
[INFO] SolveP: 37004.1 [ms]
time step continuity errors : sum local = 6.9864e-08, global = 2.23721e-21, cumulative = 2.93187e-20
[INFO] ContinuityError: 129.995 [ms]
[INFO] CorrectBoundary: 6.305 [ms]
[INFO] PISOStep: 38876.2 [ms]
[INFO] MatrixAssemblyPI: 1018.61 [ms]
[INFO] AdjustPhi: 59.904 [ms]
[INFO] ConstrainPressure: 0.013 [ms]
[INFO] MatrixAssemblyPII: 296.725 [ms]
[OGL LOG][Proc: 0]: global_index_init: 0.238 [ms]
[OGL LOG][Proc: 0]p_local_coeffs: call_update: 0.001 [ms]
[OGL LOG][Proc: 0]p_non_local_coeffs: call_update: 0 [ms]
[OGL LOG][Proc: 0]p: update_local_matrix_data: 146.337 [ms]
[OGL LOG][Proc: 0]p: update_non_local_matrix_data: 0.657 [ms]
[OGL LOG][Proc: 0]p_matrix: call_update: 76.02 [ms]
[OGL LOG][Proc: 0]p_rhs: call_update: 19.975 [ms]
[OGL LOG][Proc: 0]p: init_precond: 0.055 [ms]
[OGL LOG][StoppingCriterion.H:372] Creating stopping criterion with minIter 1858 frequency 24
[OGL LOG][Proc: 0]p: generate_solver: 0.002 [ms]
[OGL LOG][Proc: 0]p: solve: 36587.5 [ms]
[OGL LOG][Proc: 0]p: copy_x_back: 8.668 [ms]
[OGL LOG][lduLduBase.H:339] 
Statistics:
	Time per iteration: 11813 [mu s]
	Time per residual norm calculation: 4457.000000 [mu s]
	Time per iteration and DOF: 0.184578 [ns]
	Retrieve results bandwidth 0.922000 [GByte/s]
[OGL LOG][Proc: 0]p: solve_multi_gpu: 36723.4 [ms]
nonecudaGKOCG:  Solving for p, Initial residual = 0.917595, Final residual = 6.89954e-05, No Iterations 3097
[INFO] SolveP: 36900.1 [ms]
time step continuity errors : sum local = 6.58757e-08, global = 1.75747e-21, cumulative = 3.10761e-20
[INFO] ContinuityError: 145.596 [ms]
[INFO] CorrectBoundary: 6.722 [ms]
[INFO] PISOStep: 38737.3 [ms]
[INFO] TimeStep: 85595.6 [ms]
ExecutionTime = 1485.86 s  ClockTime = 1513 s

Time = 0.002375

Courant Number mean: 0.0449089 max: 3.96051
[INFO] MatrixAssemblyU: 944.729 [ms]
DILUPBiCGStab:  Solving for Ux, Initial residual = 0.120222, Final residual = 0.00606514, No Iterations 5
DILUPBiCGStab:  Solving for Uy, Initial residual = 0.395959, Final residual = 0.0182869, No Iterations 5
DILUPBiCGStab:  Solving for Uz, Initial residual = 0.750691, Final residual = 0.0343991, No Iterations 5
[INFO] MomentumPredictor: 6931.45 [ms]
[INFO] MatrixAssemblyPI: 1054.93 [ms]
[INFO] AdjustPhi: 54.044 [ms]
[INFO] ConstrainPressure: 0.002 [ms]
[INFO] MatrixAssemblyPII: 297.55 [ms]
[OGL LOG][Proc: 0]: global_index_init: 0.732 [ms]
[OGL LOG][Proc: 0]p_local_coeffs: call_update: 0.002 [ms]
[OGL LOG][Proc: 0]p_non_local_coeffs: call_update: 0 [ms]
[OGL LOG][Proc: 0]p: update_local_matrix_data: 146.269 [ms]
[OGL LOG][Proc: 0]p: update_non_local_matrix_data: 0.355 [ms]
[OGL LOG][Proc: 0]p_matrix: call_update: 88.552 [ms]
[OGL LOG][Proc: 0]p_rhs: call_update: 11.396 [ms]
[OGL LOG][Proc: 0]p: init_precond: 0.08 [ms]
[OGL LOG][StoppingCriterion.H:372] Creating stopping criterion with minIter 1858 frequency 24
[OGL LOG][Proc: 0]p: generate_solver: 0.002 [ms]
[OGL LOG][Proc: 0]p: solve: 36678.2 [ms]
[OGL LOG][Proc: 0]p: copy_x_back: 5.781 [ms]
[OGL LOG][lduLduBase.H:339] 
Statistics:
	Time per iteration: 11843 [mu s]
	Time per residual norm calculation: 4460.000000 [mu s]
	Time per iteration and DOF: 0.185047 [ns]
	Retrieve results bandwidth 1.383000 [GByte/s]
[OGL LOG][Proc: 0]p: solve_multi_gpu: 36815 [ms]
nonecudaGKOCG:  Solving for p, Initial residual = 0.983619, Final residual = 8.38981e-05, No Iterations 3097
[INFO] SolveP: 36994.1 [ms]
time step continuity errors : sum local = 9.47916e-08, global = -9.1662e-23, cumulative = 3.09845e-20
[INFO] ContinuityError: 135.131 [ms]
[INFO] CorrectBoundary: 6.579 [ms]
[INFO] PISOStep: 38864 [ms]
[INFO] MatrixAssemblyPI: 1027.21 [ms]
[INFO] AdjustPhi: 50.332 [ms]
[INFO] ConstrainPressure: 0.015 [ms]
[INFO] MatrixAssemblyPII: 291.463 [ms]
[OGL LOG][Proc: 0]: global_index_init: 0.115 [ms]
[OGL LOG][Proc: 0]p_local_coeffs: call_update: 0.001 [ms]
[OGL LOG][Proc: 0]p_non_local_coeffs: call_update: 0 [ms]
[OGL LOG][Proc: 0]p: update_local_matrix_data: 144.697 [ms]
[OGL LOG][Proc: 0]p: update_non_local_matrix_data: 1.041 [ms]
[OGL LOG][Proc: 0]p_matrix: call_update: 61.416 [ms]
[OGL LOG][Proc: 0]p_rhs: call_update: 36.973 [ms]
[OGL LOG][Proc: 0]p: init_precond: 0.062 [ms]
[OGL LOG][StoppingCriterion.H:372] Creating stopping criterion with minIter 1858 frequency 24
[OGL LOG][Proc: 0]p: generate_solver: 0.003 [ms]
[OGL LOG][Proc: 0]p: solve: 36558 [ms]
[OGL LOG][Proc: 0]p: copy_x_back: 8.693 [ms]
[OGL LOG][lduLduBase.H:339] 
Statistics:
	Time per iteration: 11804 [mu s]
	Time per residual norm calculation: 4792.000000 [mu s]
	Time per iteration and DOF: 0.184438 [ns]
	Retrieve results bandwidth 0.920000 [GByte/s]
[OGL LOG][Proc: 0]p: solve_multi_gpu: 36673.5 [ms]
nonecudaGKOCG:  Solving for p, Initial residual = 0.920786, Final residual = 7.88324e-05, No Iterations 3097
[INFO] SolveP: 36888.9 [ms]
time step continuity errors : sum local = 8.9634e-08, global = 2.38391e-21, cumulative = 3.33684e-20
[INFO] ContinuityError: 107.465 [ms]
[INFO] CorrectBoundary: 6.199 [ms]
[INFO] PISOStep: 38722.4 [ms]
[INFO] TimeStep: 85568.4 [ms]
ExecutionTime = 1570.98 s  ClockTime = 1599 s

Time = 0.0025

Courant Number mean: 0.0460359 max: 4.70548
[INFO] MatrixAssemblyU: 940.782 [ms]
DILUPBiCGStab:  Solving for Ux, Initial residual = 0.143062, Final residual = 0.00698241, No Iterations 5
DILUPBiCGStab:  Solving for Uy, Initial residual = 0.423222, Final residual = 0.0188349, No Iterations 5
DILUPBiCGStab:  Solving for Uz, Initial residual = 0.751946, Final residual = 0.0341387, No Iterations 5
[INFO] MomentumPredictor: 6928.68 [ms]
[INFO] MatrixAssemblyPI: 1058.76 [ms]
[INFO] AdjustPhi: 51.019 [ms]
[INFO] ConstrainPressure: 0.003 [ms]
[INFO] MatrixAssemblyPII: 297.555 [ms]
[OGL LOG][Proc: 0]: global_index_init: 0.297 [ms]
[OGL LOG][Proc: 0]p_local_coeffs: call_update: 0.002 [ms]
[OGL LOG][Proc: 0]p_non_local_coeffs: call_update: 0 [ms]
[OGL LOG][Proc: 0]p: update_local_matrix_data: 144.867 [ms]
[OGL LOG][Proc: 0]p: update_non_local_matrix_data: 1.031 [ms]
[OGL LOG][Proc: 0]p_matrix: call_update: 74.123 [ms]
[OGL LOG][Proc: 0]p_rhs: call_update: 25.694 [ms]
[OGL LOG][Proc: 0]p: init_precond: 0.064 [ms]
[OGL LOG][StoppingCriterion.H:372] Creating stopping criterion with minIter 1858 frequency 24
[OGL LOG][Proc: 0]p: generate_solver: 0.002 [ms]
[OGL LOG][Proc: 0]p: solve: 36694.3 [ms]
[OGL LOG][Proc: 0]p: copy_x_back: 9.025 [ms]
[OGL LOG][lduLduBase.H:339] 
Statistics:
	Time per iteration: 11848 [mu s]
	Time per residual norm calculation: 4906.000000 [mu s]
	Time per iteration and DOF: 0.185125 [ns]
	Retrieve results bandwidth 0.886000 [GByte/s]
[OGL LOG][Proc: 0]p: solve_multi_gpu: 36839.7 [ms]
nonecudaGKOCG:  Solving for p, Initial residual = 0.984479, Final residual = 7.91043e-05, No Iterations 3097
[INFO] SolveP: 37021 [ms]
time step continuity errors : sum local = 1.07138e-07, global = 1.41182e-21, cumulative = 3.47802e-20
[INFO] ContinuityError: 105.241 [ms]
[INFO] CorrectBoundary: 7.592 [ms]
[INFO] PISOStep: 38884.2 [ms]
[INFO] MatrixAssemblyPI: 1026.39 [ms]
[INFO] AdjustPhi: 50.902 [ms]
[INFO] ConstrainPressure: 0.016 [ms]
[INFO] MatrixAssemblyPII: 297.571 [ms]
[OGL LOG][Proc: 0]: global_index_init: 0.174 [ms]
[OGL LOG][Proc: 0]p_local_coeffs: call_update: 0.002 [ms]
[OGL LOG][Proc: 0]p_non_local_coeffs: call_update: 0 [ms]
[OGL LOG][Proc: 0]p: update_local_matrix_data: 145.923 [ms]
[OGL LOG][Proc: 0]p: update_non_local_matrix_data: 0.552 [ms]
[OGL LOG][Proc: 0]p_matrix: call_update: 85.492 [ms]
[OGL LOG][Proc: 0]p_rhs: call_update: 13.935 [ms]
[OGL LOG][Proc: 0]p: init_precond: 0.062 [ms]
[OGL LOG][StoppingCriterion.H:372] Creating stopping criterion with minIter 1858 frequency 24
[OGL LOG][Proc: 0]p: generate_solver: 0.002 [ms]
[OGL LOG][Proc: 0]p: solve: 36630 [ms]
[OGL LOG][Proc: 0]p: copy_x_back: 2.433 [ms]
[OGL LOG][lduLduBase.H:339] 
Statistics:
	Time per iteration: 11827 [mu s]
	Time per residual norm calculation: 4775.000000 [mu s]
	Time per iteration and DOF: 0.184797 [ns]
	Retrieve results bandwidth 3.288000 [GByte/s]
[OGL LOG][Proc: 0]p: solve_multi_gpu: 36766.2 [ms]
nonecudaGKOCG:  Solving for p, Initial residual = 0.918938, Final residual = 7.37986e-05, No Iterations 3097
[INFO] SolveP: 36946.7 [ms]
time step continuity errors : sum local = 1.00883e-07, global = 5.5403e-22, cumulative = 3.53342e-20
[INFO] ContinuityError: 110.64 [ms]
[INFO] CorrectBoundary: 3.928 [ms]
[INFO] PISOStep: 38782 [ms]
[INFO] TimeStep: 85641.6 [ms]
ExecutionTime = 1656.18 s  ClockTime = 1684 s

End

Finalising parallel run
