/*---------------------------------------------------------------------------*\
| =========                 |                                                 |
| \\      /  F ield         | OpenFOAM: The Open Source CFD Toolbox           |
|  \\    /   O peration     | Version:  2212                                  |
|   \\  /    A nd           | Website:  www.openfoam.com                      |
|    \\/     M anipulation  |                                                 |
\*---------------------------------------------------------------------------*/
Build  : 5614a57-20230228 OPENFOAM=2212 patch=230110 version=v2212
Arch   : "LSB;label=32;scalar=64"
Exec   : icoFoam -parallel -case /home/greole/data/code/exasim-project/micro_benchmarks/LidDrivenCavity3D/workspace/33c8b36c8b44e23387f89da8ae6a3aec/case
Date   : Jun 30 2023
Time   : 07:14:57
Host   : guyot
PID    : 1524838
I/O    : uncollated
Case   : /home/greole/data/code/exasim-project/micro_benchmarks/LidDrivenCavity3D/workspace/33c8b36c8b44e23387f89da8ae6a3aec/case
nProcs : 64
Hosts  :
(
    (guyot 64)
)
Pstream initialized with:
    floatTransfer      : 0
    nProcsSimpleSum    : 0
    commsType          : nonBlocking
    polling iterations : 0
trapFpe: Floating point exception trapping enabled (FOAM_SIGFPE).
fileModificationChecking : Monitoring run-time modified files using timeStampMaster (fileModificationSkew 5, maxFileModificationPolls 20)
allowSystemOperations : Allowing user-supplied system call operations

// * * * * * * * * * * * * * * * * * * * * * * * * * * * * * * * * * * * * * //
Create time

--> FOAM Warning : 
    From void* Foam::dlLibraryTable::openLibrary(const Foam::fileName&, bool)
    in file db/dynamicLibrary/dlLibraryTable/dlLibraryTable.C at line 188
    Could not load "libpetscFoam.so"
libpetscFoam.so: cannot open shared object file: No such file or directory
Create mesh for time = 0


PISO: Operating solver in PISO mode

Reading transportProperties

Reading field p

Reading field U

Reading/calculating face flux field phi


Starting time loop

Time = 0.000125

Courant Number mean: 8.02505e-18 max: 4.85723e-14
DILUPBiCGStab:  Solving for Ux, Initial residual = 1, Final residual = 0.0222889, No Iterations 5
DILUPBiCGStab:  Solving for Uy:  solution singularity
DILUPBiCGStab:  Solving for Uz:  solution singularity
[OGL LOG][lduLduBase.H:121] Initialising OGL
	OGL commit:  e496ca7+
	Branch: cyclic-fix-asym 
	Build type: Debug
	Ginkgo version: 1.5.0 ( develop)
	Ginkgo commit: 4292ffdee
	MPI is GPU aware: 1
	Forces host buffer based communication: 1
	CPU ranks per GPU: 1
	Matrix format: Coo
	End OGL_INFO
 cuda init
 device_id 47
 cuda init
 device_id 0
 cuda init
 device_id 1
 num devices  get__num_devices 
 cuda init
 device_id 2
 num devices  get__num_devices 
 cuda init
 device_id 3
 num devices  get__num_devices 
 cuda init
 device_id 4
 num devices  get__num_devices 
 cuda init
 device_id 5
 num devices  get__num_devices 
 cuda init
 device_id 6
 num devices  get__num_devices 
 cuda init
 device_id 7
 num devices  get__num_devices 
 cuda init
 device_id 12
 num devices  get__num_devices 
 cuda init
 device_id 13
 num devices  get__num_devices 
 cuda init
 device_id 14
 num devices  get__num_devices 
 cuda init
 device_id 15
 num devices  get__num_devices 
 cuda init
 device_id 16
 num devices  get__num_devices 
 cuda init
 device_id 17
 num devices  get__num_devices 
 cuda init
 device_id 18
 num devices  get__num_devices 
 cuda init
 device_id 19
 num devices  get__num_devices 
 cuda init
 device_id 20
 num devices  get__num_devices 
 cuda init
 device_id 21
 num devices  get__num_devices 
 cuda init
 device_id 22
 num devices  get__num_devices 
 cuda init
 device_id 23
 num devices  get__num_devices 
 cuda init
 device_id 24
 num devices  get__num_devices 
 cuda init
 device_id 25
 num devices  get__num_devices 
 cuda init
 device_id 26
 num devices  get__num_devices 
 cuda init
 device_id 27
 num devices  get__num_devices 
 cuda init
 device_id 30
 num devices  get__num_devices 
 cuda init
 device_id 31
 num devices  get__num_devices 
 cuda init
 device_id 32
 num devices  get__num_devices 
 cuda init
 device_id 33
 num devices  get__num_devices 
 cuda init
 device_id 34
 num devices  get__num_devices 
 cuda init
 device_id 35
 num devices  get__num_devices 
 cuda init
 device_id 36
 num devices  get__num_devices 
 cuda init
 device_id 37
 num devices  get__num_devices 
 cuda init
 device_id 38
 num devices  get__num_devices 
 cuda init
 device_id 39
 num devices  get__num_devices 
 cuda init
 device_id 40
 num devices  get__num_devices 
 cuda init
 device_id 41
 num devices  get__num_devices 
 cuda init
 device_id 42
 num devices  get__num_devices 
 cuda init
 device_id 43
 num devices  get__num_devices 
 cuda init
 device_id 44
 num devices  get__num_devices 
 cuda init
 device_id 45
 num devices  get__num_devices 
 cuda init
 device_id 46
 num devices  get__num_devices 
 num devices  get__num_devices 
 cuda init
 device_id 48
 num devices  get__num_devices 
 cuda init
 device_id 49
 num devices  get__num_devices 
 cuda init
 device_id 50
 num devices  get__num_devices 
 cuda init
 device_id 51
 num devices  get__num_devices 
 cuda init
 device_id 52
 num devices  get__num_devices 
 cuda init
 device_id 53
 num devices  get__num_devices 
 cuda init
 device_id 54
 num devices  get__num_devices 
 cuda init
 device_id 55
 num devices  get__num_devices 
 cuda init
 device_id 56
 num devices  get__num_devices 
 cuda init
 device_id 57
 num devices  get__num_devices 
 cuda init
 device_id 58
 num devices  get__num_devices 
 cuda init
 device_id 59
 num devices  get__num_devices 
 cuda init
 device_id 60
 num devices  get__num_devices 
 cuda init
 device_id 61
 num devices  get__num_devices 
 cuda init
 device_id 62
 num devices  get__num_devices 
 cuda init
 device_id 63
 num devices  get__num_devices 
 num devices  get__num_devices 
 cuda init
 device_id 8
 num devices  get__num_devices 
 cuda init
 device_id 9
 num devices  get__num_devices 
 cuda init
 device_id 10
 num devices  get__num_devices 
 cuda init
 device_id 11
 num devices  get__num_devices 
 cuda init
 device_id 28
 num devices  get__num_devices 
 cuda init
 device_id 29
 num devices  get__num_devices 
 8
 get__num_devices 
  get__num_devices 
 8
 get__num_devices 
  get__num_devices 
 8
 get__num_devices 
  get__num_devices 
 8
 get__num_devices 
  get__num_devices 
 8
 get__num_devices 
  get__num_devices 
  get__num_devices 
 8
 get__num_devices 
  get__num_devices 
 8
 get__num_devices 
  get__num_devices 
  get__num_devices 
 8
 get__num_devices 
  get__num_devices 
 8
 get__num_devices 
  get__num_devices 
 8
 get__num_devices 
  get__num_devices 
  get__num_devices 
  get__num_devices 
 8
 get__num_devices 
  get__num_devices 
 8
 get__num_devices 
  get__num_devices 
 8
 get__num_devices 
  get__num_devices 
 8
 get__num_devices 
  get__num_devices 
 8
 get__num_devices 
  get__num_devices 
 8
 get__num_devices 
  get__num_devices 
 8
 get__num_devices 
  get__num_devices 
 8
 get__num_devices 
  get__num_devices 
  get__num_devices 
  get__num_devices 
 8
 get__num_devices 
 8
  get__num_devices 
 get__num_devices 
  get__num_devices 
  get__num_devices 
 8
  get__num_devices 
 get__num_devices 
  get__num_devices 
 8
 get__num_devices 
  get__num_devices 
 8
 8
 get__num_devices 
 get__num_devices 
  get__num_devices 
  get__num_devices 
  get__num_devices 
  get__num_devices 
 8
 get__num_devices 
  get__num_devices 
 8
 get__num_devices 
  get__num_devices 
  get__num_devices 
  get__num_devices 
 8
 get__num_devices 
  get__num_devices 
 8
 get__num_devices 
  get__num_devices 
 8
 8
 get__num_devices 
 get__num_devices 
  get__num_devices 
  get__num_devices 
  get__num_devices 
  get__num_devices 
 8
 get__num_devices 
  get__num_devices 
 8
 get__num_devices 
  get__num_devices 
 8
 get__num_devices 
  get__num_devices 
 8
 get__num_devices 
  get__num_devices 
 8
 get__num_devices 
  get__num_devices 
 8
 get__num_devices 
  get__num_devices 
 8
 get__num_devices 
  get__num_devices 
 8
 get__num_devices 
  get__num_devices 
 8
 get__num_devices 
  get__num_devices 
 8
 get__num_devices 
 8
  get__num_devices 
 get__num_devices 
  get__num_devices 
 8
 get__num_devices 
  get__num_devices 
 8
 get__num_devices 
  get__num_devices 
 8
 get__num_devices 
  get__num_devices 
 8
 get__num_devices 
  get__num_devices 
 8
 get__num_devices 
  get__num_devices 
 8
 get__num_devices 
  get__num_devices 
 8
 get__num_devices 
  get__num_devices 
 8
 get__num_devices 
  get__num_devices 
 8
 get__num_devices 
  get__num_devices 
 8
 get__num_devices 
  get__num_devices 
 8
 get__num_devices 
  get__num_devices 
 8
 get__num_devices 
  get__num_devices 
 8
 get__num_devices 
  get__num_devices 
 8
 get__num_devices 
 8
  get__num_devices 
 get__num_devices 
  get__num_devices 
 8
 get__num_devices 
  get__num_devices 
 8
 get__num_devices 
  get__num_devices 
 8
 get__num_devices 
  get__num_devices 
 8
 get__num_devices 
  get__num_devices 
 8
 get__num_devices 
  get__num_devices 
 8
 get__num_devices 
  get__num_devices 
 8
 get__num_devices 
  get__num_devices 
  get__num_devices 
  get__num_devices 
 8
 get__num_devices 
  get__num_devices 
  get__num_devices 
  get__num_devices 
  get__num_devices 
  get__num_devices 
  get__num_devices 
  get__num_devices 
  get__num_devices 
  get__num_devices 
  get__num_devices 
  get__num_devices 
  get__num_devices 
  get__num_devices 
  get__num_devices 
  get__num_devices 
  get__num_devices 
  get__num_devices 
  get__num_devices 
  get__num_devices 
  get__num_devices 
  get__num_devices 
  get__num_devices 
  get__num_devices 
  get__num_devices 
  get__num_devices 
  get__num_devices 
  get__num_devices 
  get__num_devices 
  get__num_devices 
  get__num_devices 
  get__num_devices 
  get__num_devices 
  get__num_devices 
  get__num_devices 
  get__num_devices 
  get__num_devices 
  get__num_devices 
  get__num_devices 
  get__num_devices 
  get__num_devices 
  get__num_devices 
  get__num_devices 
  get__num_devices 
  get__num_devices 
  get__num_devices 
  get__num_devices 
  get__num_devices 
  get__num_devices 
  get__num_devices 
  get__num_devices 
  get__num_devices 
  get__num_devices 
  get__num_devices 
  get__num_devices 
  get__num_devices 
  get__num_devices 
  get__num_devices 
  get__num_devices 
  get__num_devices 
  get__num_devices 
  get__num_devices 
  get__num_devices 
  get__num_devices 
  get__num_devices 
  get__num_devices 
  get__num_devices 
  get__num_devices 
  get__num_devices 
  get__num_devices 
  get__num_devices 
  get__num_devices 
  get__num_devices 
  get__num_devices 
  get__num_devices 
  get__num_devices 
  get__num_devices 
  get__num_devices 
  get__num_devices 
  get__num_devices 
  get__num_devices 
  get__num_devices 
  get__num_devices 
  get__num_devices 
  get__num_devices 
  get__num_devices 
  get__num_devices 
  get__num_devices 
  get__num_devices 
  get__num_devices 
  get__num_devices 
  get__num_devices 
  get__num_devices 
  get__num_devices 
  get__num_devices 
  get__num_devices 
  get__num_devices 
  get__num_devices 
  get__num_devices 
  get__num_devices 
  get__num_devices 
  get__num_devices 
  get__num_devices 
  get__num_devices 
  get__num_devices 
  get__num_devices 
  get__num_devices 
  get__num_devices 
  get__num_devices 
  get__num_devices 
  get__num_devices 
  get__num_devices 
  get__num_devices 
  get__num_devices 
 [OGL LOG][Proc: 0]: global_index_init: 10519 [ms]
[OGL LOG][Proc: 0]p_local_cols: call_init: 2.739 [ms]
[OGL LOG][Proc: 0]p_local_rows: call_init: 0.304 [ms]
[OGL LOG][Proc: 0]p_local_ldu_map: call_init: 0.262 [ms]
[OGL LOG][Proc: 0]p_local_coeffs: call_init: 0.496 [ms]
[OGL LOG][Proc: 0]p_non_local_cols: call_init: 0.414 [ms]
[OGL LOG][Proc: 0]p_non_local_rows: call_init: 0.295 [ms]
[OGL LOG][Proc: 0]p_non_local_ldu_map: call_init: 0.304 [ms]
[OGL LOG][Proc: 0]p_non_local_coeffs: call_init: 0.254 [ms]
local_interface_nnzs01[OGL LOG][Proc: 0]p: init_local_sparsity_pattern: 1499.46 [ms]
[OGL LOG][Proc: 0]p: init_non_local_sparsity_pattern: 248.663 [ms]
[OGL LOG][Proc: 0]p: update_local_matrix_data: 58.223 [ms]
[OGL LOG][Proc: 0]p: update_non_local_matrix_data: 207.422 [ms]
[OGL LOG][Proc: 0]device_partition: call_init: 54.497 [ms]
[OGL LOG][Proc: 0]p_matrix: call_init: 547.879 [ms]
[OGL LOG][Proc: 0]p_rhs: call_init: 31.19 [ms]
[OGL LOG][Proc: 0]p_solution: call_init: 10.858 [ms]
[OGL LOG][Proc: 0]p: init_precond: 1.041 [ms]
[OGL LOG][StoppingCriterion.H:372] Creating stopping criterion with minIter 0 frequency 1
[OGL LOG][Proc: 0]p: generate_solver: 1.131 [ms]
[OGL LOG][Proc: 0]p: solve: 53729.2 [ms]
[OGL LOG][Proc: 0]p: copy_x_back: 7.687 [ms]
[OGL LOG][lduLduBase.H:319] 
Statistics:
	Time per iteration: 16557 [mu s]
	Time per residual norm calculation: 8301.000000 [mu s]
	Time per iteration and DOF: 0.258703 [ns]
	Retrieve results bandwith 1.040000 [GByte/s]
[OGL LOG][Proc: 0]p: solve_multi_gpu: 54401.1 [ms]
nonecudaGKOCG:  Solving for p, Initial residual = 1, Final residual = 9.91551e-05, No Iterations 3245
time step continuity errors : sum local = 2.82658e-09, global = 1.035e-21, cumulative = 1.035e-21
[OGL LOG][Proc: 0]: global_index_init: 0.38 [ms]
[OGL LOG][Proc: 0]p_local_coeffs: call_update: 0.004 [ms]
[OGL LOG][Proc: 0]p_non_local_coeffs: call_update: 0 [ms]
local_interface_nnzs01[OGL LOG][Proc: 0]p: update_local_matrix_data: 165.174 [ms]
[OGL LOG][Proc: 0]p: update_non_local_matrix_data: 2.128 [ms]
[OGL LOG][Proc: 0]p_matrix: call_update: 21.016 [ms]
[OGL LOG][Proc: 0]p_rhs: call_update: 76.917 [ms]
[OGL LOG][Proc: 0]p: init_precond: 0.155 [ms]
[OGL LOG][StoppingCriterion.H:372] Creating stopping criterion with minIter 1947 frequency 36
[OGL LOG][Proc: 0]p: generate_solver: 0.03 [ms]
[OGL LOG][Proc: 0]p: solve: 38938 [ms]
[OGL LOG][Proc: 0]p: copy_x_back: 4.553 [ms]
[OGL LOG][lduLduBase.H:319] 
Statistics:
	Time per iteration: 12014 [mu s]
	Time per residual norm calculation: 4185.000000 [mu s]
	Time per iteration and DOF: 0.187719 [ns]
	Retrieve results bandwith 1.757000 [GByte/s]
[OGL LOG][Proc: 0]p: solve_multi_gpu: 39078.3 [ms]
nonecudaGKOCG:  Solving for p, Initial residual = 0.830461, Final residual = 8.42058e-05, No Iterations 3241
time step continuity errors : sum local = 2.85094e-09, global = 6.59263e-22, cumulative = 1.69426e-21
ExecutionTime = 133.33 s  ClockTime = 162 s

Time = 0.00025

Courant Number mean: 0.0108029 max: 0.437609
DILUPBiCGStab:  Solving for Ux, Initial residual = 0.108273, Final residual = 0.013914, No Iterations 5
DILUPBiCGStab:  Solving for Uy, Initial residual = 0.485093, Final residual = 0.0551465, No Iterations 5
DILUPBiCGStab:  Solving for Uz, Initial residual = 0.988184, Final residual = 0.124557, No Iterations 5
[OGL LOG][Proc: 0]: global_index_init: 0.291 [ms]
[OGL LOG][Proc: 0]p_local_coeffs: call_update: 0.001 [ms]
[OGL LOG][Proc: 0]p_non_local_coeffs: call_update: 0 [ms]
local_interface_nnzs01[OGL LOG][Proc: 0]p: update_local_matrix_data: 166.826 [ms]
[OGL LOG][Proc: 0]p: update_non_local_matrix_data: 1.346 [ms]
[OGL LOG][Proc: 0]p_matrix: call_update: 85.691 [ms]
[OGL LOG][Proc: 0]p_rhs: call_update: 12.132 [ms]
[OGL LOG][Proc: 0]p: init_precond: 0.047 [ms]
[OGL LOG][StoppingCriterion.H:372] Creating stopping criterion with minIter 1944 frequency 25
[OGL LOG][Proc: 0]p: generate_solver: 0.03 [ms]
[OGL LOG][Proc: 0]p: solve: 38510.2 [ms]
[OGL LOG][Proc: 0]p: copy_x_back: 9.027 [ms]
[OGL LOG][lduLduBase.H:319] 
Statistics:
	Time per iteration: 12030 [mu s]
	Time per residual norm calculation: 4337.000000 [mu s]
	Time per iteration and DOF: 0.187969 [ns]
	Retrieve results bandwith 0.886000 [GByte/s]
[OGL LOG][Proc: 0]p: solve_multi_gpu: 38632.2 [ms]
nonecudaGKOCG:  Solving for p, Initial residual = 0.915399, Final residual = 7.41314e-05, No Iterations 3201
time step continuity errors : sum local = 5.79016e-09, global = 7.516e-22, cumulative = 2.44586e-21
[OGL LOG][Proc: 0]: global_index_init: 0.283 [ms]
[OGL LOG][Proc: 0]p_local_coeffs: call_update: 0 [ms]
[OGL LOG][Proc: 0]p_non_local_coeffs: call_update: 0 [ms]
local_interface_nnzs01[OGL LOG][Proc: 0]p: update_local_matrix_data: 164.836 [ms]
[OGL LOG][Proc: 0]p: update_non_local_matrix_data: 3.149 [ms]
[OGL LOG][Proc: 0]p_matrix: call_update: 72.894 [ms]
[OGL LOG][Proc: 0]p_rhs: call_update: 21.661 [ms]
[OGL LOG][Proc: 0]p: init_precond: 0.046 [ms]
[OGL LOG][StoppingCriterion.H:372] Creating stopping criterion with minIter 1920 frequency 25
[OGL LOG][Proc: 0]p: generate_solver: 0.027 [ms]
[OGL LOG][Proc: 0]p: solve: 38563 [ms]
[OGL LOG][Proc: 0]p: copy_x_back: 11.663 [ms]
[OGL LOG][lduLduBase.H:319] 
Statistics:
	Time per iteration: 12047 [mu s]
	Time per residual norm calculation: 4175.000000 [mu s]
	Time per iteration and DOF: 0.188234 [ns]
	Retrieve results bandwith 0.685000 [GByte/s]
[OGL LOG][Proc: 0]p: solve_multi_gpu: 38689 [ms]
nonecudaGKOCG:  Solving for p, Initial residual = 0.863828, Final residual = 6.90393e-05, No Iterations 3201
time step continuity errors : sum local = 5.496e-09, global = 6.63056e-22, cumulative = 3.10892e-21
ExecutionTime = 222.23 s  ClockTime = 251 s

Time = 0.000375

Courant Number mean: 0.0168808 max: 0.511648
DILUPBiCGStab:  Solving for Ux, Initial residual = 0.0537548, Final residual = 0.0056722, No Iterations 5
DILUPBiCGStab:  Solving for Uy, Initial residual = 0.262784, Final residual = 0.0274796, No Iterations 5
DILUPBiCGStab:  Solving for Uz, Initial residual = 0.868621, Final residual = 0.0891382, No Iterations 5
[OGL LOG][Proc: 0]: global_index_init: 0.169 [ms]
[OGL LOG][Proc: 0]p_local_coeffs: call_update: 0 [ms]
[OGL LOG][Proc: 0]p_non_local_coeffs: call_update: 0 [ms]
local_interface_nnzs01[OGL LOG][Proc: 0]p: update_local_matrix_data: 164.966 [ms]
[OGL LOG][Proc: 0]p: update_non_local_matrix_data: 1.716 [ms]
[OGL LOG][Proc: 0]p_matrix: call_update: 18.866 [ms]
[OGL LOG][Proc: 0]p_rhs: call_update: 77.616 [ms]
[OGL LOG][Proc: 0]p: init_precond: 0.044 [ms]
[OGL LOG][StoppingCriterion.H:372] Creating stopping criterion with minIter 1920 frequency 25
[OGL LOG][Proc: 0]p: generate_solver: 0.027 [ms]
[OGL LOG][Proc: 0]p: solve: 23243.6 [ms]
[OGL LOG][Proc: 0]p: copy_x_back: 5.497 [ms]
[OGL LOG][lduLduBase.H:319] 
Statistics:
	Time per iteration: 12068 [mu s]
	Time per residual norm calculation: 4936.000000 [mu s]
	Time per iteration and DOF: 0.188562 [ns]
	Retrieve results bandwith 1.455000 [GByte/s]
[OGL LOG][Proc: 0]p: solve_multi_gpu: 23380.3 [ms]
nonecudaGKOCG:  Solving for p, Initial residual = 0.944447, Final residual = 3.63082e-05, No Iterations 1926
time step continuity errors : sum local = 3.67535e-09, global = 6.58578e-22, cumulative = 3.7675e-21
[OGL LOG][Proc: 0]: global_index_init: 0.204 [ms]
[OGL LOG][Proc: 0]p_local_coeffs: call_update: 0 [ms]
[OGL LOG][Proc: 0]p_non_local_coeffs: call_update: 0 [ms]
local_interface_nnzs01[OGL LOG][Proc: 0]p: update_local_matrix_data: 164.893 [ms]
[OGL LOG][Proc: 0]p: update_non_local_matrix_data: 2.699 [ms]
[OGL LOG][Proc: 0]p_matrix: call_update: 36.839 [ms]
[OGL LOG][Proc: 0]p_rhs: call_update: 62.092 [ms]
[OGL LOG][Proc: 0]p: init_precond: 0.045 [ms]
[OGL LOG][StoppingCriterion.H:372] Creating stopping criterion with minIter 1155 frequency 19
[OGL LOG][Proc: 0]p: generate_solver: 0.028 [ms]
[OGL LOG][Proc: 0]p: solve: 18706.8 [ms]
[OGL LOG][Proc: 0]p: copy_x_back: 10.366 [ms]
[OGL LOG][lduLduBase.H:319] 
Statistics:
	Time per iteration: 12147 [mu s]
	Time per residual norm calculation: 4197.000000 [mu s]
	Time per iteration and DOF: 0.189797 [ns]
	Retrieve results bandwith 0.771000 [GByte/s]
[OGL LOG][Proc: 0]p: solve_multi_gpu: 18841.8 [ms]
nonecudaGKOCG:  Solving for p, Initial residual = 0.909205, Final residual = 8.51904e-05, No Iterations 1540
time step continuity errors : sum local = 8.10338e-09, global = 4.30955e-22, cumulative = 4.19845e-21
ExecutionTime = 276.23 s  ClockTime = 306 s

Time = 0.0005

Courant Number mean: 0.0204828 max: 0.477536
DILUPBiCGStab:  Solving for Ux, Initial residual = 0.0417779, Final residual = 0.00524833, No Iterations 5
DILUPBiCGStab:  Solving for Uy, Initial residual = 0.214782, Final residual = 0.0252762, No Iterations 5
DILUPBiCGStab:  Solving for Uz, Initial residual = 0.78211, Final residual = 0.0663085, No Iterations 5
[OGL LOG][Proc: 0]: global_index_init: 0.189 [ms]
[OGL LOG][Proc: 0]p_local_coeffs: call_update: 0 [ms]
[OGL LOG][Proc: 0]p_non_local_coeffs: call_update: 0 [ms]
local_interface_nnzs01[OGL LOG][Proc: 0]p: update_local_matrix_data: 165.04 [ms]
[OGL LOG][Proc: 0]p: update_non_local_matrix_data: 1.952 [ms]
[OGL LOG][Proc: 0]p_matrix: call_update: 20.673 [ms]
[OGL LOG][Proc: 0]p_rhs: call_update: 76.713 [ms]
[OGL LOG][Proc: 0]p: init_precond: 0.049 [ms]
[OGL LOG][StoppingCriterion.H:372] Creating stopping criterion with minIter 924 frequency 17
[OGL LOG][Proc: 0]p: generate_solver: 0.029 [ms]
[OGL LOG][Proc: 0]p: solve: 18488.8 [ms]
[OGL LOG][Proc: 0]p: copy_x_back: 6 [ms]
[OGL LOG][lduLduBase.H:319] 
Statistics:
	Time per iteration: 12211 [mu s]
	Time per residual norm calculation: 4797.000000 [mu s]
	Time per iteration and DOF: 0.190797 [ns]
	Retrieve results bandwith 1.333000 [GByte/s]
[OGL LOG][Proc: 0]p: solve_multi_gpu: 18613.2 [ms]
nonecudaGKOCG:  Solving for p, Initial residual = 0.941166, Final residual = 9.41164e-05, No Iterations 1514
time step continuity errors : sum local = 1.13056e-08, global = 9.7659e-23, cumulative = 4.29611e-21
[OGL LOG][Proc: 0]: global_index_init: 0.258 [ms]
[OGL LOG][Proc: 0]p_local_coeffs: call_update: 0.001 [ms]
[OGL LOG][Proc: 0]p_non_local_coeffs: call_update: 0 [ms]
local_interface_nnzs01[OGL LOG][Proc: 0]p: update_local_matrix_data: 164.355 [ms]
[OGL LOG][Proc: 0]p: update_non_local_matrix_data: 3.481 [ms]
[OGL LOG][Proc: 0]p_matrix: call_update: 71.905 [ms]
[OGL LOG][Proc: 0]p_rhs: call_update: 23.51 [ms]
[OGL LOG][Proc: 0]p: init_precond: 0.045 [ms]
[OGL LOG][StoppingCriterion.H:372] Creating stopping criterion with minIter 908 frequency 17
[OGL LOG][Proc: 0]p: generate_solver: 0.028 [ms]
[OGL LOG][Proc: 0]p: solve: 18504.9 [ms]
[OGL LOG][Proc: 0]p: copy_x_back: 3.852 [ms]
[OGL LOG][lduLduBase.H:319] 
Statistics:
	Time per iteration: 12222 [mu s]
	Time per residual norm calculation: 4936.000000 [mu s]
	Time per iteration and DOF: 0.190969 [ns]
	Retrieve results bandwith 2.076000 [GByte/s]
[OGL LOG][Proc: 0]p: solve_multi_gpu: 18639.8 [ms]
nonecudaGKOCG:  Solving for p, Initial residual = 0.882104, Final residual = 8.60718e-05, No Iterations 1514
time step continuity errors : sum local = 1.02355e-08, global = 8.19503e-22, cumulative = 5.11561e-21
ExecutionTime = 325.31 s  ClockTime = 355 s

Time = 0.000625

Courant Number mean: 0.0235408 max: 0.556487
DILUPBiCGStab:  Solving for Ux, Initial residual = 0.0378398, Final residual = 0.00483161, No Iterations 5
DILUPBiCGStab:  Solving for Uy, Initial residual = 0.186209, Final residual = 0.0209686, No Iterations 5
DILUPBiCGStab:  Solving for Uz, Initial residual = 0.754246, Final residual = 0.0571009, No Iterations 5
[OGL LOG][Proc: 0]: global_index_init: 0.224 [ms]
[OGL LOG][Proc: 0]p_local_coeffs: call_update: 0 [ms]
[OGL LOG][Proc: 0]p_non_local_coeffs: call_update: 0 [ms]
local_interface_nnzs01[OGL LOG][Proc: 0]p: update_local_matrix_data: 164.286 [ms]
[OGL LOG][Proc: 0]p: update_non_local_matrix_data: 2.244 [ms]
[OGL LOG][Proc: 0]p_matrix: call_update: 20.818 [ms]
[OGL LOG][Proc: 0]p_rhs: call_update: 76.814 [ms]
[OGL LOG][Proc: 0]p: init_precond: 0.043 [ms]
[OGL LOG][StoppingCriterion.H:372] Creating stopping criterion with minIter 908 frequency 17
[OGL LOG][Proc: 0]p: generate_solver: 0.027 [ms]
[OGL LOG][Proc: 0]p: solve: 37874.1 [ms]
[OGL LOG][Proc: 0]p: copy_x_back: 6.325 [ms]
[OGL LOG][lduLduBase.H:319] 
Statistics:
	Time per iteration: 12170 [mu s]
	Time per residual norm calculation: 4928.000000 [mu s]
	Time per iteration and DOF: 0.190156 [ns]
	Retrieve results bandwith 1.264000 [GByte/s]
[OGL LOG][Proc: 0]p: solve_multi_gpu: 38012.3 [ms]
nonecudaGKOCG:  Solving for p, Initial residual = 0.956205, Final residual = 9.47837e-05, No Iterations 3112
time step continuity errors : sum local = 1.24667e-08, global = 1.71847e-22, cumulative = 5.28746e-21
[OGL LOG][Proc: 0]: global_index_init: 0.433 [ms]
[OGL LOG][Proc: 0]p_local_coeffs: call_update: 0 [ms]
[OGL LOG][Proc: 0]p_non_local_coeffs: call_update: 0 [ms]
local_interface_nnzs01[OGL LOG][Proc: 0]p: update_local_matrix_data: 164.457 [ms]
[OGL LOG][Proc: 0]p: update_non_local_matrix_data: 3.087 [ms]
[OGL LOG][Proc: 0]p_matrix: call_update: 75.461 [ms]
[OGL LOG][Proc: 0]p_rhs: call_update: 20.664 [ms]
[OGL LOG][Proc: 0]p: init_precond: 0.045 [ms]
[OGL LOG][StoppingCriterion.H:372] Creating stopping criterion with minIter 1867 frequency 24
[OGL LOG][Proc: 0]p: generate_solver: 0.026 [ms]
[OGL LOG][Proc: 0]p: solve: 37341.5 [ms]
[OGL LOG][Proc: 0]p: copy_x_back: 7.971 [ms]
[OGL LOG][lduLduBase.H:319] 
Statistics:
	Time per iteration: 12057 [mu s]
	Time per residual norm calculation: 4180.000000 [mu s]
	Time per iteration and DOF: 0.188391 [ns]
	Retrieve results bandwith 1.003000 [GByte/s]
[OGL LOG][Proc: 0]p: solve_multi_gpu: 37473.9 [ms]
nonecudaGKOCG:  Solving for p, Initial residual = 0.915069, Final residual = 9.66203e-05, No Iterations 3097
time step continuity errors : sum local = 1.26367e-08, global = 5.37822e-22, cumulative = 5.82528e-21
ExecutionTime = 412.37 s  ClockTime = 443 s

Time = 0.00075

Courant Number mean: 0.0258634 max: 0.483895
DILUPBiCGStab:  Solving for Ux, Initial residual = 0.035644, Final residual = 0.00454304, No Iterations 5
DILUPBiCGStab:  Solving for Uy, Initial residual = 0.17287, Final residual = 0.0178525, No Iterations 5
DILUPBiCGStab:  Solving for Uz, Initial residual = 0.697203, Final residual = 0.0477401, No Iterations 5
[OGL LOG][Proc: 0]: global_index_init: 0.198 [ms]
[OGL LOG][Proc: 0]p_local_coeffs: call_update: 0 [ms]
[OGL LOG][Proc: 0]p_non_local_coeffs: call_update: 0 [ms]
local_interface_nnzs01[OGL LOG][Proc: 0]p: update_local_matrix_data: 164.384 [ms]
[OGL LOG][Proc: 0]p: update_non_local_matrix_data: 2.649 [ms]
[OGL LOG][Proc: 0]p_matrix: call_update: 18.379 [ms]
[OGL LOG][Proc: 0]p_rhs: call_update: 76.588 [ms]
[OGL LOG][Proc: 0]p: init_precond: 0.045 [ms]
[OGL LOG][StoppingCriterion.H:372] Creating stopping criterion with minIter 1858 frequency 24
[OGL LOG][Proc: 0]p: generate_solver: 0.027 [ms]
[OGL LOG][Proc: 0]p: solve: 37376.7 [ms]
[OGL LOG][Proc: 0]p: copy_x_back: 4.685 [ms]
[OGL LOG][lduLduBase.H:319] 
Statistics:
	Time per iteration: 12068 [mu s]
	Time per residual norm calculation: 4792.000000 [mu s]
	Time per iteration and DOF: 0.188562 [ns]
	Retrieve results bandwith 1.707000 [GByte/s]
[OGL LOG][Proc: 0]p: solve_multi_gpu: 37507.5 [ms]
nonecudaGKOCG:  Solving for p, Initial residual = 0.953178, Final residual = 9.27238e-05, No Iterations 3097
time step continuity errors : sum local = 1.40603e-08, global = 7.5625e-22, cumulative = 6.58153e-21
[OGL LOG][Proc: 0]: global_index_init: 0.196 [ms]
[OGL LOG][Proc: 0]p_local_coeffs: call_update: 0.001 [ms]
[OGL LOG][Proc: 0]p_non_local_coeffs: call_update: 0 [ms]
local_interface_nnzs01[OGL LOG][Proc: 0]p: update_local_matrix_data: 164.692 [ms]
[OGL LOG][Proc: 0]p: update_non_local_matrix_data: 1.914 [ms]
[OGL LOG][Proc: 0]p_matrix: call_update: 18.462 [ms]
[OGL LOG][Proc: 0]p_rhs: call_update: 77.609 [ms]
[OGL LOG][Proc: 0]p: init_precond: 0.044 [ms]
[OGL LOG][StoppingCriterion.H:372] Creating stopping criterion with minIter 1858 frequency 24
[OGL LOG][Proc: 0]p: generate_solver: 0.03 [ms]
[OGL LOG][Proc: 0]p: solve: 37360.9 [ms]
[OGL LOG][Proc: 0]p: copy_x_back: 4.104 [ms]
[OGL LOG][lduLduBase.H:319] 
Statistics:
	Time per iteration: 12063 [mu s]
	Time per residual norm calculation: 4920.000000 [mu s]
	Time per iteration and DOF: 0.188484 [ns]
	Retrieve results bandwith 1.949000 [GByte/s]
[OGL LOG][Proc: 0]p: solve_multi_gpu: 37493.7 [ms]
nonecudaGKOCG:  Solving for p, Initial residual = 0.892238, Final residual = 8.77252e-05, No Iterations 3097
time step continuity errors : sum local = 1.35069e-08, global = 7.49161e-22, cumulative = 7.33069e-21
ExecutionTime = 498.91 s  ClockTime = 530 s

Time = 0.000875

Courant Number mean: 0.0280481 max: 0.612751
DILUPBiCGStab:  Solving for Ux, Initial residual = 0.0353418, Final residual = 0.00428678, No Iterations 5
DILUPBiCGStab:  Solving for Uy, Initial residual = 0.178205, Final residual = 0.016959, No Iterations 5
DILUPBiCGStab:  Solving for Uz, Initial residual = 0.695584, Final residual = 0.0431555, No Iterations 5
[OGL LOG][Proc: 0]: global_index_init: 0.151 [ms]
[OGL LOG][Proc: 0]p_local_coeffs: call_update: 0.001 [ms]
[OGL LOG][Proc: 0]p_non_local_coeffs: call_update: 0 [ms]
local_interface_nnzs01[OGL LOG][Proc: 0]p: update_local_matrix_data: 165.154 [ms]
[OGL LOG][Proc: 0]p: update_non_local_matrix_data: 1.882 [ms]
[OGL LOG][Proc: 0]p_matrix: call_update: 19.572 [ms]
[OGL LOG][Proc: 0]p_rhs: call_update: 75.686 [ms]
[OGL LOG][Proc: 0]p: init_precond: 0.045 [ms]
[OGL LOG][StoppingCriterion.H:372] Creating stopping criterion with minIter 1858 frequency 24
[OGL LOG][Proc: 0]p: generate_solver: 0.028 [ms]
[OGL LOG][Proc: 0]p: solve: 37317.7 [ms]
[OGL LOG][Proc: 0]p: copy_x_back: 5.117 [ms]
[OGL LOG][lduLduBase.H:319] 
Statistics:
	Time per iteration: 12049 [mu s]
	Time per residual norm calculation: 4785.000000 [mu s]
	Time per iteration and DOF: 0.188266 [ns]
	Retrieve results bandwith 1.563000 [GByte/s]
[OGL LOG][Proc: 0]p: solve_multi_gpu: 37454.3 [ms]
nonecudaGKOCG:  Solving for p, Initial residual = 0.963674, Final residual = 7.60336e-05, No Iterations 3097
time step continuity errors : sum local = 1.30204e-08, global = 1.11496e-21, cumulative = 8.44565e-21
[OGL LOG][Proc: 0]: global_index_init: 0.237 [ms]
[OGL LOG][Proc: 0]p_local_coeffs: call_update: 0 [ms]
[OGL LOG][Proc: 0]p_non_local_coeffs: call_update: 0 [ms]
local_interface_nnzs01[OGL LOG][Proc: 0]p: update_local_matrix_data: 164.811 [ms]
[OGL LOG][Proc: 0]p: update_non_local_matrix_data: 2.456 [ms]
[OGL LOG][Proc: 0]p_matrix: call_update: 19.99 [ms]
[OGL LOG][Proc: 0]p_rhs: call_update: 72.33 [ms]
[OGL LOG][Proc: 0]p: init_precond: 0.045 [ms]
[OGL LOG][StoppingCriterion.H:372] Creating stopping criterion with minIter 1858 frequency 24
[OGL LOG][Proc: 0]p: generate_solver: 0.028 [ms]
[OGL LOG][Proc: 0]p: solve: 37412.5 [ms]
[OGL LOG][Proc: 0]p: copy_x_back: 6.049 [ms]
[OGL LOG][lduLduBase.H:319] 
Statistics:
	Time per iteration: 12080 [mu s]
	Time per residual norm calculation: 4191.000000 [mu s]
	Time per iteration and DOF: 0.188750 [ns]
	Retrieve results bandwith 1.322000 [GByte/s]
[OGL LOG][Proc: 0]p: solve_multi_gpu: 37537 [ms]
nonecudaGKOCG:  Solving for p, Initial residual = 0.917338, Final residual = 7.26444e-05, No Iterations 3097
time step continuity errors : sum local = 1.23973e-08, global = 1.00749e-21, cumulative = 9.45314e-21
ExecutionTime = 585.51 s  ClockTime = 617 s

Time = 0.001

Courant Number mean: 0.0297905 max: 0.492849
DILUPBiCGStab:  Solving for Ux, Initial residual = 0.0364585, Final residual = 0.00413831, No Iterations 5
DILUPBiCGStab:  Solving for Uy, Initial residual = 0.171764, Final residual = 0.0146488, No Iterations 5
DILUPBiCGStab:  Solving for Uz, Initial residual = 0.682703, Final residual = 0.0404131, No Iterations 5
[OGL LOG][Proc: 0]: global_index_init: 0.329 [ms]
[OGL LOG][Proc: 0]p_local_coeffs: call_update: 0 [ms]
[OGL LOG][Proc: 0]p_non_local_coeffs: call_update: 0 [ms]
local_interface_nnzs01[OGL LOG][Proc: 0]p: update_local_matrix_data: 165.019 [ms]
[OGL LOG][Proc: 0]p: update_non_local_matrix_data: 2.366 [ms]
[OGL LOG][Proc: 0]p_matrix: call_update: 49.382 [ms]
[OGL LOG][Proc: 0]p_rhs: call_update: 45.984 [ms]
[OGL LOG][Proc: 0]p: init_precond: 0.042 [ms]
[OGL LOG][StoppingCriterion.H:372] Creating stopping criterion with minIter 1858 frequency 24
[OGL LOG][Proc: 0]p: generate_solver: 0.026 [ms]
[OGL LOG][Proc: 0]p: solve: 37063.9 [ms]
[OGL LOG][Proc: 0]p: copy_x_back: 12.795 [ms]
[OGL LOG][lduLduBase.H:319] 
Statistics:
	Time per iteration: 12061 [mu s]
	Time per residual norm calculation: 4035.000000 [mu s]
	Time per iteration and DOF: 0.188453 [ns]
	Retrieve results bandwith 0.625000 [GByte/s]
[OGL LOG][Proc: 0]p: solve_multi_gpu: 37201.4 [ms]
nonecudaGKOCG:  Solving for p, Initial residual = 0.961724, Final residual = 9.5857e-05, No Iterations 3073
time step continuity errors : sum local = 1.88529e-08, global = 8.35879e-22, cumulative = 1.0289e-20
[OGL LOG][Proc: 0]: global_index_init: 0.144 [ms]
[OGL LOG][Proc: 0]p_local_coeffs: call_update: 0 [ms]
[OGL LOG][Proc: 0]p_non_local_coeffs: call_update: 0 [ms]
local_interface_nnzs01[OGL LOG][Proc: 0]p: update_local_matrix_data: 164.289 [ms]
[OGL LOG][Proc: 0]p: update_non_local_matrix_data: 3.219 [ms]
[OGL LOG][Proc: 0]p_matrix: call_update: 61.794 [ms]
[OGL LOG][Proc: 0]p_rhs: call_update: 34.037 [ms]
[OGL LOG][Proc: 0]p: init_precond: 0.044 [ms]
[OGL LOG][StoppingCriterion.H:372] Creating stopping criterion with minIter 1843 frequency 24
[OGL LOG][Proc: 0]p: generate_solver: 0.028 [ms]
[OGL LOG][Proc: 0]p: solve: 37013.4 [ms]
[OGL LOG][Proc: 0]p: copy_x_back: 2.965 [ms]
[OGL LOG][lduLduBase.H:319] 
Statistics:
	Time per iteration: 12044 [mu s]
	Time per residual norm calculation: 5073.000000 [mu s]
	Time per iteration and DOF: 0.188188 [ns]
	Retrieve results bandwith 2.698000 [GByte/s]
[OGL LOG][Proc: 0]p: solve_multi_gpu: 37139.9 [ms]
nonecudaGKOCG:  Solving for p, Initial residual = 0.898786, Final residual = 9.07303e-05, No Iterations 3073
time step continuity errors : sum local = 1.80966e-08, global = 9.54631e-22, cumulative = 1.12437e-20
ExecutionTime = 671.47 s  ClockTime = 703 s

Time = 0.001125

Courant Number mean: 0.0315868 max: 0.696327
DILUPBiCGStab:  Solving for Ux, Initial residual = 0.0377453, Final residual = 0.00389361, No Iterations 5
DILUPBiCGStab:  Solving for Uy, Initial residual = 0.188708, Final residual = 0.0151139, No Iterations 5
DILUPBiCGStab:  Solving for Uz, Initial residual = 0.694111, Final residual = 0.0386189, No Iterations 5
[OGL LOG][Proc: 0]: global_index_init: 0.235 [ms]
[OGL LOG][Proc: 0]p_local_coeffs: call_update: 0 [ms]
[OGL LOG][Proc: 0]p_non_local_coeffs: call_update: 0 [ms]
local_interface_nnzs01[OGL LOG][Proc: 0]p: update_local_matrix_data: 163.628 [ms]
[OGL LOG][Proc: 0]p: update_non_local_matrix_data: 3.473 [ms]
[OGL LOG][Proc: 0]p_matrix: call_update: 18.708 [ms]
[OGL LOG][Proc: 0]p_rhs: call_update: 78.526 [ms]
[OGL LOG][Proc: 0]p: init_precond: 0.045 [ms]
[OGL LOG][StoppingCriterion.H:372] Creating stopping criterion with minIter 1843 frequency 24
[OGL LOG][Proc: 0]p: generate_solver: 0.029 [ms]
[OGL LOG][Proc: 0]p: solve: 37112 [ms]
[OGL LOG][Proc: 0]p: copy_x_back: 6.198 [ms]
[OGL LOG][lduLduBase.H:319] 
Statistics:
	Time per iteration: 12076 [mu s]
	Time per residual norm calculation: 4186.000000 [mu s]
	Time per iteration and DOF: 0.188688 [ns]
	Retrieve results bandwith 1.290000 [GByte/s]
[OGL LOG][Proc: 0]p: solve_multi_gpu: 37240.3 [ms]
nonecudaGKOCG:  Solving for p, Initial residual = 0.969213, Final residual = 9.65423e-05, No Iterations 3073
time step continuity errors : sum local = 2.16524e-08, global = 4.48306e-22, cumulative = 1.1692e-20
[OGL LOG][Proc: 0]: global_index_init: 0.189 [ms]
[OGL LOG][Proc: 0]p_local_coeffs: call_update: 0 [ms]
[OGL LOG][Proc: 0]p_non_local_coeffs: call_update: 0 [ms]
local_interface_nnzs01[OGL LOG][Proc: 0]p: update_local_matrix_data: 166.031 [ms]
[OGL LOG][Proc: 0]p: update_non_local_matrix_data: 2.269 [ms]
[OGL LOG][Proc: 0]p_matrix: call_update: 73.514 [ms]
[OGL LOG][Proc: 0]p_rhs: call_update: 21.259 [ms]
[OGL LOG][Proc: 0]p: init_precond: 0.045 [ms]
[OGL LOG][StoppingCriterion.H:372] Creating stopping criterion with minIter 1843 frequency 24
[OGL LOG][Proc: 0]p: generate_solver: 0.026 [ms]
[OGL LOG][Proc: 0]p: solve: 37024.7 [ms]
[OGL LOG][Proc: 0]p: copy_x_back: 5.326 [ms]
[OGL LOG][lduLduBase.H:319] 
Statistics:
	Time per iteration: 12048 [mu s]
	Time per residual norm calculation: 4186.000000 [mu s]
	Time per iteration and DOF: 0.188250 [ns]
	Retrieve results bandwith 1.502000 [GByte/s]
[OGL LOG][Proc: 0]p: solve_multi_gpu: 37139.5 [ms]
nonecudaGKOCG:  Solving for p, Initial residual = 0.918454, Final residual = 9.23822e-05, No Iterations 3073
time step continuity errors : sum local = 2.06942e-08, global = 9.61261e-22, cumulative = 1.26532e-20
ExecutionTime = 757.49 s  ClockTime = 790 s

Time = 0.00125

Courant Number mean: 0.0329988 max: 0.509396
DILUPBiCGStab:  Solving for Ux, Initial residual = 0.0411212, Final residual = 0.00396725, No Iterations 5
DILUPBiCGStab:  Solving for Uy, Initial residual = 0.187226, Final residual = 0.0133528, No Iterations 5
DILUPBiCGStab:  Solving for Uz, Initial residual = 0.694121, Final residual = 0.037419, No Iterations 5
[OGL LOG][Proc: 0]: global_index_init: 0.275 [ms]
[OGL LOG][Proc: 0]p_local_coeffs: call_update: 0 [ms]
[OGL LOG][Proc: 0]p_non_local_coeffs: call_update: 0 [ms]
local_interface_nnzs01[OGL LOG][Proc: 0]p: update_local_matrix_data: 166.4 [ms]
[OGL LOG][Proc: 0]p: update_non_local_matrix_data: 1.407 [ms]
[OGL LOG][Proc: 0]p_matrix: call_update: 92.353 [ms]
[OGL LOG][Proc: 0]p_rhs: call_update: 5.77 [ms]
[OGL LOG][Proc: 0]p: init_precond: 0.046 [ms]
[OGL LOG][StoppingCriterion.H:372] Creating stopping criterion with minIter 1843 frequency 24
[OGL LOG][Proc: 0]p: generate_solver: 0.027 [ms]
[OGL LOG][Proc: 0]p: solve: 37028.2 [ms]
[OGL LOG][Proc: 0]p: copy_x_back: 3.271 [ms]
[OGL LOG][lduLduBase.H:319] 
Statistics:
	Time per iteration: 12049 [mu s]
	Time per residual norm calculation: 5273.000000 [mu s]
	Time per iteration and DOF: 0.188266 [ns]
	Retrieve results bandwith 2.445000 [GByte/s]
[OGL LOG][Proc: 0]p: solve_multi_gpu: 37164 [ms]
nonecudaGKOCG:  Solving for p, Initial residual = 0.968459, Final residual = 9.66771e-05, No Iterations 3073
time step continuity errors : sum local = 2.51388e-08, global = 7.89628e-22, cumulative = 1.34428e-20
[OGL LOG][Proc: 0]: global_index_init: 0.601 [ms]
[OGL LOG][Proc: 0]p_local_coeffs: call_update: 0 [ms]
[OGL LOG][Proc: 0]p_non_local_coeffs: call_update: 0 [ms]
local_interface_nnzs01[OGL LOG][Proc: 0]p: update_local_matrix_data: 163.974 [ms]
[OGL LOG][Proc: 0]p: update_non_local_matrix_data: 3.663 [ms]
[OGL LOG][Proc: 0]p_matrix: call_update: 38.258 [ms]
[OGL LOG][Proc: 0]p_rhs: call_update: 57.544 [ms]
[OGL LOG][Proc: 0]p: init_precond: 0.044 [ms]
[OGL LOG][StoppingCriterion.H:372] Creating stopping criterion with minIter 1843 frequency 24
[OGL LOG][Proc: 0]p: generate_solver: 0.037 [ms]
[OGL LOG][Proc: 0]p: solve: 37034.2 [ms]
[OGL LOG][Proc: 0]p: copy_x_back: 6.75 [ms]
[OGL LOG][lduLduBase.H:319] 
Statistics:
	Time per iteration: 12051 [mu s]
	Time per residual norm calculation: 4202.000000 [mu s]
	Time per iteration and DOF: 0.188297 [ns]
	Retrieve results bandwith 1.185000 [GByte/s]
[OGL LOG][Proc: 0]p: solve_multi_gpu: 37154.4 [ms]
nonecudaGKOCG:  Solving for p, Initial residual = 0.904074, Final residual = 9.10864e-05, No Iterations 3073
time step continuity errors : sum local = 2.39937e-08, global = 8.53553e-22, cumulative = 1.42964e-20
ExecutionTime = 843.41 s  ClockTime = 876 s

Time = 0.001375

Courant Number mean: 0.0345919 max: 0.825891
DILUPBiCGStab:  Solving for Ux, Initial residual = 0.0438759, Final residual = 0.00377837, No Iterations 5
DILUPBiCGStab:  Solving for Uy, Initial residual = 0.210969, Final residual = 0.0144136, No Iterations 5
DILUPBiCGStab:  Solving for Uz, Initial residual = 0.707309, Final residual = 0.0365449, No Iterations 5
[OGL LOG][Proc: 0]: global_index_init: 0.267 [ms]
[OGL LOG][Proc: 0]p_local_coeffs: call_update: 0 [ms]
[OGL LOG][Proc: 0]p_non_local_coeffs: call_update: 0 [ms]
local_interface_nnzs01[OGL LOG][Proc: 0]p: update_local_matrix_data: 165.446 [ms]
[OGL LOG][Proc: 0]p: update_non_local_matrix_data: 1.434 [ms]
[OGL LOG][Proc: 0]p_matrix: call_update: 20.444 [ms]
[OGL LOG][Proc: 0]p_rhs: call_update: 73.554 [ms]
[OGL LOG][Proc: 0]p: init_precond: 0.046 [ms]
[OGL LOG][StoppingCriterion.H:372] Creating stopping criterion with minIter 1843 frequency 24
[OGL LOG][Proc: 0]p: generate_solver: 0.028 [ms]
[OGL LOG][Proc: 0]p: solve: 37120.3 [ms]
[OGL LOG][Proc: 0]p: copy_x_back: 3.838 [ms]
[OGL LOG][lduLduBase.H:319] 
Statistics:
	Time per iteration: 12079 [mu s]
	Time per residual norm calculation: 4791.000000 [mu s]
	Time per iteration and DOF: 0.188734 [ns]
	Retrieve results bandwith 2.084000 [GByte/s]
[OGL LOG][Proc: 0]p: solve_multi_gpu: 37249.6 [ms]
nonecudaGKOCG:  Solving for p, Initial residual = 0.973749, Final residual = 9.32781e-05, No Iterations 3073
time step continuity errors : sum local = 2.80503e-08, global = 1.79285e-22, cumulative = 1.44757e-20
[OGL LOG][Proc: 0]: global_index_init: 0.245 [ms]
[OGL LOG][Proc: 0]p_local_coeffs: call_update: 0 [ms]
[OGL LOG][Proc: 0]p_non_local_coeffs: call_update: 0 [ms]
local_interface_nnzs01[OGL LOG][Proc: 0]p: update_local_matrix_data: 165.638 [ms]
[OGL LOG][Proc: 0]p: update_non_local_matrix_data: 1.543 [ms]
[OGL LOG][Proc: 0]p_matrix: call_update: 20.215 [ms]
[OGL LOG][Proc: 0]p_rhs: call_update: 75.687 [ms]
[OGL LOG][Proc: 0]p: init_precond: 0.044 [ms]
[OGL LOG][StoppingCriterion.H:372] Creating stopping criterion with minIter 1843 frequency 24
[OGL LOG][Proc: 0]p: generate_solver: 0.029 [ms]
[OGL LOG][Proc: 0]p: solve: 37032.9 [ms]
[OGL LOG][Proc: 0]p: copy_x_back: 11.991 [ms]
[OGL LOG][lduLduBase.H:319] 
Statistics:
	Time per iteration: 12051 [mu s]
	Time per residual norm calculation: 4040.000000 [mu s]
	Time per iteration and DOF: 0.188297 [ns]
	Retrieve results bandwith 0.667000 [GByte/s]
[OGL LOG][Proc: 0]p: solve_multi_gpu: 37161.4 [ms]
nonecudaGKOCG:  Solving for p, Initial residual = 0.919251, Final residual = 8.8769e-05, No Iterations 3073
time step continuity errors : sum local = 2.6713e-08, global = 8.52797e-22, cumulative = 1.53285e-20
ExecutionTime = 929.45 s  ClockTime = 963 s

Time = 0.0015

Courant Number mean: 0.0357912 max: 0.599148
DILUPBiCGStab:  Solving for Ux, Initial residual = 0.0493253, Final residual = 0.00399594, No Iterations 5
DILUPBiCGStab:  Solving for Uy, Initial residual = 0.215109, Final residual = 0.0132258, No Iterations 5
DILUPBiCGStab:  Solving for Uz, Initial residual = 0.711048, Final residual = 0.0361012, No Iterations 5
[OGL LOG][Proc: 0]: global_index_init: 0.248 [ms]
[OGL LOG][Proc: 0]p_local_coeffs: call_update: 0.002 [ms]
[OGL LOG][Proc: 0]p_non_local_coeffs: call_update: 0 [ms]
local_interface_nnzs01[OGL LOG][Proc: 0]p: update_local_matrix_data: 165.218 [ms]
[OGL LOG][Proc: 0]p: update_non_local_matrix_data: 2.172 [ms]
[OGL LOG][Proc: 0]p_matrix: call_update: 18.623 [ms]
[OGL LOG][Proc: 0]p_rhs: call_update: 77.845 [ms]
[OGL LOG][Proc: 0]p: init_precond: 0.045 [ms]
[OGL LOG][StoppingCriterion.H:372] Creating stopping criterion with minIter 1843 frequency 24
[OGL LOG][Proc: 0]p: generate_solver: 0.028 [ms]
[OGL LOG][Proc: 0]p: solve: 37044.8 [ms]
[OGL LOG][Proc: 0]p: copy_x_back: 5.198 [ms]
[OGL LOG][lduLduBase.H:319] 
Statistics:
	Time per iteration: 12054 [mu s]
	Time per residual norm calculation: 4783.000000 [mu s]
	Time per iteration and DOF: 0.188344 [ns]
	Retrieve results bandwith 1.539000 [GByte/s]
[OGL LOG][Proc: 0]p: solve_multi_gpu: 37181.4 [ms]
nonecudaGKOCG:  Solving for p, Initial residual = 0.973917, Final residual = 8.8954e-05, No Iterations 3073
time step continuity errors : sum local = 3.12942e-08, global = 5.09957e-22, cumulative = 1.58384e-20
[OGL LOG][Proc: 0]: global_index_init: 0.371 [ms]
[OGL LOG][Proc: 0]p_local_coeffs: call_update: 0.002 [ms]
[OGL LOG][Proc: 0]p_non_local_coeffs: call_update: 0 [ms]
local_interface_nnzs01[OGL LOG][Proc: 0]p: update_local_matrix_data: 165.594 [ms]
[OGL LOG][Proc: 0]p: update_non_local_matrix_data: 2.263 [ms]
[OGL LOG][Proc: 0]p_matrix: call_update: 75.933 [ms]
[OGL LOG][Proc: 0]p_rhs: call_update: 20.775 [ms]
[OGL LOG][Proc: 0]p: init_precond: 0.044 [ms]
[OGL LOG][StoppingCriterion.H:372] Creating stopping criterion with minIter 1843 frequency 24
[OGL LOG][Proc: 0]p: generate_solver: 0.026 [ms]
[OGL LOG][Proc: 0]p: solve: 37012.8 [ms]
[OGL LOG][Proc: 0]p: copy_x_back: 3.261 [ms]
[OGL LOG][lduLduBase.H:319] 
Statistics:
	Time per iteration: 12044 [mu s]
	Time per residual norm calculation: 4186.000000 [mu s]
	Time per iteration and DOF: 0.188188 [ns]
	Retrieve results bandwith 2.453000 [GByte/s]
[OGL LOG][Proc: 0]p: solve_multi_gpu: 37145.9 [ms]
nonecudaGKOCG:  Solving for p, Initial residual = 0.908732, Final residual = 8.58235e-05, No Iterations 3073
time step continuity errors : sum local = 3.05518e-08, global = 4.28286e-22, cumulative = 1.62667e-20
ExecutionTime = 1015.37 s  ClockTime = 1049 s

Time = 0.001625

Courant Number mean: 0.0372803 max: 1.14965
DILUPBiCGStab:  Solving for Ux, Initial residual = 0.0539394, Final residual = 0.00391805, No Iterations 5
DILUPBiCGStab:  Solving for Uy, Initial residual = 0.243539, Final residual = 0.0145302, No Iterations 5
DILUPBiCGStab:  Solving for Uz, Initial residual = 0.722966, Final residual = 0.0357226, No Iterations 5
[OGL LOG][Proc: 0]: global_index_init: 0.133 [ms]
[OGL LOG][Proc: 0]p_local_coeffs: call_update: 0 [ms]
[OGL LOG][Proc: 0]p_non_local_coeffs: call_update: 0 [ms]
local_interface_nnzs01[OGL LOG][Proc: 0]p: update_local_matrix_data: 165.314 [ms]
[OGL LOG][Proc: 0]p: update_non_local_matrix_data: 1.433 [ms]
[OGL LOG][Proc: 0]p_matrix: call_update: 20.239 [ms]
[OGL LOG][Proc: 0]p_rhs: call_update: 77.026 [ms]
[OGL LOG][Proc: 0]p: init_precond: 0.044 [ms]
[OGL LOG][StoppingCriterion.H:372] Creating stopping criterion with minIter 1843 frequency 24
[OGL LOG][Proc: 0]p: generate_solver: 0.029 [ms]
[OGL LOG][Proc: 0]p: solve: 37103.1 [ms]
[OGL LOG][Proc: 0]p: copy_x_back: 9.239 [ms]
[OGL LOG][lduLduBase.H:319] 
Statistics:
	Time per iteration: 12073 [mu s]
	Time per residual norm calculation: 4783.000000 [mu s]
	Time per iteration and DOF: 0.188641 [ns]
	Retrieve results bandwith 0.865000 [GByte/s]
[OGL LOG][Proc: 0]p: solve_multi_gpu: 37239.2 [ms]
nonecudaGKOCG:  Solving for p, Initial residual = 0.977303, Final residual = 9.42843e-05, No Iterations 3073
time step continuity errors : sum local = 3.87426e-08, global = 1.06036e-21, cumulative = 1.73271e-20
[OGL LOG][Proc: 0]: global_index_init: 0.211 [ms]
[OGL LOG][Proc: 0]p_local_coeffs: call_update: 0 [ms]
[OGL LOG][Proc: 0]p_non_local_coeffs: call_update: 0 [ms]
local_interface_nnzs01[OGL LOG][Proc: 0]p: update_local_matrix_data: 164.044 [ms]
[OGL LOG][Proc: 0]p: update_non_local_matrix_data: 4.028 [ms]
[OGL LOG][Proc: 0]p_matrix: call_update: 78.747 [ms]
[OGL LOG][Proc: 0]p_rhs: call_update: 19.366 [ms]
[OGL LOG][Proc: 0]p: init_precond: 0.044 [ms]
[OGL LOG][StoppingCriterion.H:372] Creating stopping criterion with minIter 1843 frequency 24
[OGL LOG][Proc: 0]p: generate_solver: 0.029 [ms]
[OGL LOG][Proc: 0]p: solve: 37083.2 [ms]
[OGL LOG][Proc: 0]p: copy_x_back: 8.282 [ms]
[OGL LOG][lduLduBase.H:319] 
Statistics:
	Time per iteration: 12067 [mu s]
	Time per residual norm calculation: 4797.000000 [mu s]
	Time per iteration and DOF: 0.188547 [ns]
	Retrieve results bandwith 0.965000 [GByte/s]
[OGL LOG][Proc: 0]p: solve_multi_gpu: 37225.8 [ms]
nonecudaGKOCG:  Solving for p, Initial residual = 0.920053, Final residual = 8.92106e-05, No Iterations 3073
time step continuity errors : sum local = 3.67458e-08, global = 8.77212e-22, cumulative = 1.82043e-20
ExecutionTime = 1101.43 s  ClockTime = 1136 s

Time = 0.00175

Courant Number mean: 0.0383423 max: 1.02288
DILUPBiCGStab:  Solving for Ux, Initial residual = 0.0618662, Final residual = 0.00423352, No Iterations 5
DILUPBiCGStab:  Solving for Uy, Initial residual = 0.253758, Final residual = 0.0138846, No Iterations 5
DILUPBiCGStab:  Solving for Uz, Initial residual = 0.727259, Final residual = 0.0355169, No Iterations 5
[OGL LOG][Proc: 0]: global_index_init: 0.285 [ms]
[OGL LOG][Proc: 0]p_local_coeffs: call_update: 0 [ms]
[OGL LOG][Proc: 0]p_non_local_coeffs: call_update: 0 [ms]
local_interface_nnzs01[OGL LOG][Proc: 0]p: update_local_matrix_data: 164.906 [ms]
[OGL LOG][Proc: 0]p: update_non_local_matrix_data: 2.057 [ms]
[OGL LOG][Proc: 0]p_matrix: call_update: 19.947 [ms]
[OGL LOG][Proc: 0]p_rhs: call_update: 76.763 [ms]
[OGL LOG][Proc: 0]p: init_precond: 0.044 [ms]
[OGL LOG][StoppingCriterion.H:372] Creating stopping criterion with minIter 1843 frequency 24
[OGL LOG][Proc: 0]p: generate_solver: 0.028 [ms]
[OGL LOG][Proc: 0]p: solve: 37031.7 [ms]
[OGL LOG][Proc: 0]p: copy_x_back: 6.645 [ms]
[OGL LOG][lduLduBase.H:319] 
Statistics:
	Time per iteration: 12050 [mu s]
	Time per residual norm calculation: 4181.000000 [mu s]
	Time per iteration and DOF: 0.188281 [ns]
	Retrieve results bandwith 1.203000 [GByte/s]
[OGL LOG][Proc: 0]p: solve_multi_gpu: 37162.1 [ms]
nonecudaGKOCG:  Solving for p, Initial residual = 0.977946, Final residual = 9.64283e-05, No Iterations 3073
time step continuity errors : sum local = 4.65794e-08, global = 5.71556e-22, cumulative = 1.87758e-20
[OGL LOG][Proc: 0]: global_index_init: 0.329 [ms]
[OGL LOG][Proc: 0]p_local_coeffs: call_update: 0 [ms]
[OGL LOG][Proc: 0]p_non_local_coeffs: call_update: 0 [ms]
local_interface_nnzs01[OGL LOG][Proc: 0]p: update_local_matrix_data: 163.824 [ms]
[OGL LOG][Proc: 0]p: update_non_local_matrix_data: 3.563 [ms]
[OGL LOG][Proc: 0]p_matrix: call_update: 60.389 [ms]
[OGL LOG][Proc: 0]p_rhs: call_update: 36.039 [ms]
[OGL LOG][Proc: 0]p: init_precond: 0.044 [ms]
[OGL LOG][StoppingCriterion.H:372] Creating stopping criterion with minIter 1843 frequency 24
[OGL LOG][Proc: 0]p: generate_solver: 0.027 [ms]
[OGL LOG][Proc: 0]p: solve: 36998.3 [ms]
[OGL LOG][Proc: 0]p: copy_x_back: 6.055 [ms]
[OGL LOG][lduLduBase.H:319] 
Statistics:
	Time per iteration: 12039 [mu s]
	Time per residual norm calculation: 4940.000000 [mu s]
	Time per iteration and DOF: 0.188109 [ns]
	Retrieve results bandwith 1.321000 [GByte/s]
[OGL LOG][Proc: 0]p: solve_multi_gpu: 37133 [ms]
nonecudaGKOCG:  Solving for p, Initial residual = 0.912646, Final residual = 9.02683e-05, No Iterations 3073
time step continuity errors : sum local = 4.40778e-08, global = 1.30932e-21, cumulative = 2.00852e-20
ExecutionTime = 1187.34 s  ClockTime = 1222 s

Time = 0.001875

Courant Number mean: 0.0398004 max: 1.68454
DILUPBiCGStab:  Solving for Ux, Initial residual = 0.0688336, Final residual = 0.00430607, No Iterations 5
DILUPBiCGStab:  Solving for Uy, Initial residual = 0.285776, Final residual = 0.0152846, No Iterations 5
DILUPBiCGStab:  Solving for Uz, Initial residual = 0.735912, Final residual = 0.0352875, No Iterations 5
[OGL LOG][Proc: 0]: global_index_init: 0.185 [ms]
[OGL LOG][Proc: 0]p_local_coeffs: call_update: 0 [ms]
[OGL LOG][Proc: 0]p_non_local_coeffs: call_update: 0 [ms]
local_interface_nnzs01[OGL LOG][Proc: 0]p: update_local_matrix_data: 164.945 [ms]
[OGL LOG][Proc: 0]p: update_non_local_matrix_data: 2.285 [ms]
[OGL LOG][Proc: 0]p_matrix: call_update: 34.087 [ms]
[OGL LOG][Proc: 0]p_rhs: call_update: 64.583 [ms]
[OGL LOG][Proc: 0]p: init_precond: 0.042 [ms]
[OGL LOG][StoppingCriterion.H:372] Creating stopping criterion with minIter 1843 frequency 24
[OGL LOG][Proc: 0]p: generate_solver: 0.026 [ms]
[OGL LOG][Proc: 0]p: solve: 37104 [ms]
[OGL LOG][Proc: 0]p: copy_x_back: 6.547 [ms]
[OGL LOG][lduLduBase.H:319] 
Statistics:
	Time per iteration: 12074 [mu s]
	Time per residual norm calculation: 4938.000000 [mu s]
	Time per iteration and DOF: 0.188656 [ns]
	Retrieve results bandwith 1.221000 [GByte/s]
[OGL LOG][Proc: 0]p: solve_multi_gpu: 37244.7 [ms]
nonecudaGKOCG:  Solving for p, Initial residual = 0.979956, Final residual = 9.91186e-05, No Iterations 3073
time step continuity errors : sum local = 5.62804e-08, global = 6.19804e-22, cumulative = 2.0705e-20
[OGL LOG][Proc: 0]: global_index_init: 0.186 [ms]
[OGL LOG][Proc: 0]p_local_coeffs: call_update: 0 [ms]
[OGL LOG][Proc: 0]p_non_local_coeffs: call_update: 0 [ms]
local_interface_nnzs01[OGL LOG][Proc: 0]p: update_local_matrix_data: 165.763 [ms]
[OGL LOG][Proc: 0]p: update_non_local_matrix_data: 1.544 [ms]
[OGL LOG][Proc: 0]p_matrix: call_update: 42.445 [ms]
[OGL LOG][Proc: 0]p_rhs: call_update: 55.057 [ms]
[OGL LOG][Proc: 0]p: init_precond: 0.045 [ms]
[OGL LOG][StoppingCriterion.H:372] Creating stopping criterion with minIter 1843 frequency 24
[OGL LOG][Proc: 0]p: generate_solver: 0.027 [ms]
[OGL LOG][Proc: 0]p: solve: 37120.2 [ms]
[OGL LOG][Proc: 0]p: copy_x_back: 12.284 [ms]
[OGL LOG][lduLduBase.H:319] 
Statistics:
	Time per iteration: 12079 [mu s]
	Time per residual norm calculation: 4795.000000 [mu s]
	Time per iteration and DOF: 0.188734 [ns]
	Retrieve results bandwith 0.651000 [GByte/s]
[OGL LOG][Proc: 0]p: solve_multi_gpu: 37264.1 [ms]
nonecudaGKOCG:  Solving for p, Initial residual = 0.920576, Final residual = 9.33555e-05, No Iterations 3073
time step continuity errors : sum local = 5.3213e-08, global = 1.9487e-21, cumulative = 2.26537e-20
ExecutionTime = 1273.45 s  ClockTime = 1309 s

Time = 0.002

Courant Number mean: 0.0407953 max: 1.71864
DILUPBiCGStab:  Solving for Ux, Initial residual = 0.0801796, Final residual = 0.00474721, No Iterations 5
DILUPBiCGStab:  Solving for Uy, Initial residual = 0.302267, Final residual = 0.0151052, No Iterations 5
DILUPBiCGStab:  Solving for Uz, Initial residual = 0.739279, Final residual = 0.035053, No Iterations 5
[OGL LOG][Proc: 0]: global_index_init: 0.513 [ms]
[OGL LOG][Proc: 0]p_local_coeffs: call_update: 0 [ms]
[OGL LOG][Proc: 0]p_non_local_coeffs: call_update: 0 [ms]
local_interface_nnzs01[OGL LOG][Proc: 0]p: update_local_matrix_data: 165.704 [ms]
[OGL LOG][Proc: 0]p: update_non_local_matrix_data: 1.443 [ms]
[OGL LOG][Proc: 0]p_matrix: call_update: 51.314 [ms]
[OGL LOG][Proc: 0]p_rhs: call_update: 48.675 [ms]
[OGL LOG][Proc: 0]p: init_precond: 0.045 [ms]
[OGL LOG][StoppingCriterion.H:372] Creating stopping criterion with minIter 1843 frequency 24
[OGL LOG][Proc: 0]p: generate_solver: 0.031 [ms]
[OGL LOG][Proc: 0]p: solve: 37467.9 [ms]
[OGL LOG][Proc: 0]p: copy_x_back: 7.695 [ms]
[OGL LOG][lduLduBase.H:319] 
Statistics:
	Time per iteration: 12098 [mu s]
	Time per residual norm calculation: 4198.000000 [mu s]
	Time per iteration and DOF: 0.189031 [ns]
	Retrieve results bandwith 1.039000 [GByte/s]
[OGL LOG][Proc: 0]p: solve_multi_gpu: 37602.1 [ms]
nonecudaGKOCG:  Solving for p, Initial residual = 0.981005, Final residual = 6.71175e-05, No Iterations 3097
time step continuity errors : sum local = 4.50123e-08, global = 2.17842e-21, cumulative = 2.48321e-20
[OGL LOG][Proc: 0]: global_index_init: 0.158 [ms]
[OGL LOG][Proc: 0]p_local_coeffs: call_update: 0.001 [ms]
[OGL LOG][Proc: 0]p_non_local_coeffs: call_update: 0 [ms]
local_interface_nnzs01[OGL LOG][Proc: 0]p: update_local_matrix_data: 162.74 [ms]
[OGL LOG][Proc: 0]p: update_non_local_matrix_data: 4.956 [ms]
[OGL LOG][Proc: 0]p_matrix: call_update: 51.993 [ms]
[OGL LOG][Proc: 0]p_rhs: call_update: 43.625 [ms]
[OGL LOG][Proc: 0]p: init_precond: 0.047 [ms]
[OGL LOG][StoppingCriterion.H:372] Creating stopping criterion with minIter 1858 frequency 24
[OGL LOG][Proc: 0]p: generate_solver: 0.028 [ms]
[OGL LOG][Proc: 0]p: solve: 37064.1 [ms]
[OGL LOG][Proc: 0]p: copy_x_back: 6.984 [ms]
[OGL LOG][lduLduBase.H:319] 
Statistics:
	Time per iteration: 12061 [mu s]
	Time per residual norm calculation: 4938.000000 [mu s]
	Time per iteration and DOF: 0.188453 [ns]
	Retrieve results bandwith 1.145000 [GByte/s]
[OGL LOG][Proc: 0]p: solve_multi_gpu: 37202 [ms]
nonecudaGKOCG:  Solving for p, Initial residual = 0.915609, Final residual = 9.57677e-05, No Iterations 3073
time step continuity errors : sum local = 6.48727e-08, global = 3.01921e-23, cumulative = 2.48623e-20
ExecutionTime = 1359.87 s  ClockTime = 1396 s

Time = 0.002125

Courant Number mean: 0.0422897 max: 2.54999
DILUPBiCGStab:  Solving for Ux, Initial residual = 0.0901476, Final residual = 0.00499215, No Iterations 5
DILUPBiCGStab:  Solving for Uy, Initial residual = 0.337147, Final residual = 0.0165651, No Iterations 5
DILUPBiCGStab:  Solving for Uz, Initial residual = 0.744747, Final residual = 0.0347898, No Iterations 5
[OGL LOG][Proc: 0]: global_index_init: 0.511 [ms]
[OGL LOG][Proc: 0]p_local_coeffs: call_update: 0 [ms]
[OGL LOG][Proc: 0]p_non_local_coeffs: call_update: 0 [ms]
local_interface_nnzs01[OGL LOG][Proc: 0]p: update_local_matrix_data: 164.869 [ms]
[OGL LOG][Proc: 0]p: update_non_local_matrix_data: 2.005 [ms]
[OGL LOG][Proc: 0]p_matrix: call_update: 18.357 [ms]
[OGL LOG][Proc: 0]p_rhs: call_update: 80.126 [ms]
[OGL LOG][Proc: 0]p: init_precond: 0.044 [ms]
[OGL LOG][StoppingCriterion.H:372] Creating stopping criterion with minIter 1843 frequency 24
[OGL LOG][Proc: 0]p: generate_solver: 0.03 [ms]
[OGL LOG][Proc: 0]p: solve: 37338 [ms]
[OGL LOG][Proc: 0]p: copy_x_back: 7.974 [ms]
[OGL LOG][lduLduBase.H:319] 
Statistics:
	Time per iteration: 12056 [mu s]
	Time per residual norm calculation: 4198.000000 [mu s]
	Time per iteration and DOF: 0.188375 [ns]
	Retrieve results bandwith 1.003000 [GByte/s]
[OGL LOG][Proc: 0]p: solve_multi_gpu: 37478.4 [ms]
nonecudaGKOCG:  Solving for p, Initial residual = 0.982029, Final residual = 7.33647e-05, No Iterations 3097
time step continuity errors : sum local = 5.82969e-08, global = 1.19192e-22, cumulative = 2.49815e-20
[OGL LOG][Proc: 0]: global_index_init: 0.28 [ms]
[OGL LOG][Proc: 0]p_local_coeffs: call_update: 0.001 [ms]
[OGL LOG][Proc: 0]p_non_local_coeffs: call_update: 0 [ms]
local_interface_nnzs01[OGL LOG][Proc: 0]p: update_local_matrix_data: 165.415 [ms]
[OGL LOG][Proc: 0]p: update_non_local_matrix_data: 2.069 [ms]
[OGL LOG][Proc: 0]p_matrix: call_update: 82.425 [ms]
[OGL LOG][Proc: 0]p_rhs: call_update: 14.477 [ms]
[OGL LOG][Proc: 0]p: init_precond: 0.045 [ms]
[OGL LOG][StoppingCriterion.H:372] Creating stopping criterion with minIter 1858 frequency 24
[OGL LOG][Proc: 0]p: generate_solver: 0.027 [ms]
[OGL LOG][Proc: 0]p: solve: 37020.7 [ms]
[OGL LOG][Proc: 0]p: copy_x_back: 9.668 [ms]
[OGL LOG][lduLduBase.H:319] 
Statistics:
	Time per iteration: 12047 [mu s]
	Time per residual norm calculation: 4179.000000 [mu s]
	Time per iteration and DOF: 0.188234 [ns]
	Retrieve results bandwith 0.827000 [GByte/s]
[OGL LOG][Proc: 0]p: solve_multi_gpu: 37145 [ms]
nonecudaGKOCG:  Solving for p, Initial residual = 0.920582, Final residual = 9.94158e-05, No Iterations 3073
time step continuity errors : sum local = 7.94126e-08, global = 9.51335e-22, cumulative = 2.59328e-20
ExecutionTime = 1446.11 s  ClockTime = 1483 s

Time = 0.00225

Courant Number mean: 0.0432969 max: 2.85852
DILUPBiCGStab:  Solving for Ux, Initial residual = 0.106403, Final residual = 0.00563041, No Iterations 5
DILUPBiCGStab:  Solving for Uy, Initial residual = 0.359805, Final residual = 0.0167907, No Iterations 5
DILUPBiCGStab:  Solving for Uz, Initial residual = 0.747074, Final residual = 0.034542, No Iterations 5
[OGL LOG][Proc: 0]: global_index_init: 0.227 [ms]
[OGL LOG][Proc: 0]p_local_coeffs: call_update: 0 [ms]
[OGL LOG][Proc: 0]p_non_local_coeffs: call_update: 0 [ms]
local_interface_nnzs01[OGL LOG][Proc: 0]p: update_local_matrix_data: 165.141 [ms]
[OGL LOG][Proc: 0]p: update_non_local_matrix_data: 2.706 [ms]
[OGL LOG][Proc: 0]p_matrix: call_update: 70.796 [ms]
[OGL LOG][Proc: 0]p_rhs: call_update: 25.11 [ms]
[OGL LOG][Proc: 0]p: init_precond: 0.044 [ms]
[OGL LOG][StoppingCriterion.H:372] Creating stopping criterion with minIter 1843 frequency 24
[OGL LOG][Proc: 0]p: generate_solver: 0.029 [ms]
[OGL LOG][Proc: 0]p: solve: 37338.6 [ms]
[OGL LOG][Proc: 0]p: copy_x_back: 11.525 [ms]
[OGL LOG][lduLduBase.H:319] 
Statistics:
	Time per iteration: 12056 [mu s]
	Time per residual norm calculation: 4183.000000 [mu s]
	Time per iteration and DOF: 0.188375 [ns]
	Retrieve results bandwith 0.694000 [GByte/s]
[OGL LOG][Proc: 0]p: solve_multi_gpu: 37474.5 [ms]
nonecudaGKOCG:  Solving for p, Initial residual = 0.98321, Final residual = 7.38891e-05, No Iterations 3097
time step continuity errors : sum local = 6.98812e-08, global = -2.97527e-23, cumulative = 2.59031e-20
[OGL LOG][Proc: 0]: global_index_init: 0.148 [ms]
[OGL LOG][Proc: 0]p_local_coeffs: call_update: 0 [ms]
[OGL LOG][Proc: 0]p_non_local_coeffs: call_update: 0 [ms]
local_interface_nnzs01[OGL LOG][Proc: 0]p: update_local_matrix_data: 165.008 [ms]
[OGL LOG][Proc: 0]p: update_non_local_matrix_data: 2.818 [ms]
[OGL LOG][Proc: 0]p_matrix: call_update: 66.678 [ms]
[OGL LOG][Proc: 0]p_rhs: call_update: 29.386 [ms]
[OGL LOG][Proc: 0]p: init_precond: 0.046 [ms]
[OGL LOG][StoppingCriterion.H:372] Creating stopping criterion with minIter 1858 frequency 24
[OGL LOG][Proc: 0]p: generate_solver: 0.03 [ms]
[OGL LOG][Proc: 0]p: solve: 37297.9 [ms]
[OGL LOG][Proc: 0]p: copy_x_back: 7.168 [ms]
[OGL LOG][lduLduBase.H:319] 
Statistics:
	Time per iteration: 12043 [mu s]
	Time per residual norm calculation: 4188.000000 [mu s]
	Time per iteration and DOF: 0.188172 [ns]
	Retrieve results bandwith 1.116000 [GByte/s]
[OGL LOG][Proc: 0]p: solve_multi_gpu: 37431.4 [ms]
nonecudaGKOCG:  Solving for p, Initial residual = 0.917595, Final residual = 6.89784e-05, No Iterations 3097
time step continuity errors : sum local = 6.58595e-08, global = 1.33892e-21, cumulative = 2.7242e-20
ExecutionTime = 1532.64 s  ClockTime = 1570 s

Time = 0.002375

Courant Number mean: 0.0449089 max: 3.96051
DILUPBiCGStab:  Solving for Ux, Initial residual = 0.120222, Final residual = 0.00606514, No Iterations 5
DILUPBiCGStab:  Solving for Uy, Initial residual = 0.395959, Final residual = 0.0182869, No Iterations 5
DILUPBiCGStab:  Solving for Uz, Initial residual = 0.750691, Final residual = 0.0343991, No Iterations 5
[OGL LOG][Proc: 0]: global_index_init: 0.52 [ms]
[OGL LOG][Proc: 0]p_local_coeffs: call_update: 0 [ms]
[OGL LOG][Proc: 0]p_non_local_coeffs: call_update: 0 [ms]
local_interface_nnzs01[OGL LOG][Proc: 0]p: update_local_matrix_data: 166.212 [ms]
[OGL LOG][Proc: 0]p: update_non_local_matrix_data: 1.311 [ms]
[OGL LOG][Proc: 0]p_matrix: call_update: 67.765 [ms]
[OGL LOG][Proc: 0]p_rhs: call_update: 31.66 [ms]
[OGL LOG][Proc: 0]p: init_precond: 0.05 [ms]
[OGL LOG][StoppingCriterion.H:372] Creating stopping criterion with minIter 1858 frequency 24
[OGL LOG][Proc: 0]p: generate_solver: 0.026 [ms]
[OGL LOG][Proc: 0]p: solve: 37384.9 [ms]
[OGL LOG][Proc: 0]p: copy_x_back: 4.665 [ms]
[OGL LOG][lduLduBase.H:319] 
Statistics:
	Time per iteration: 12071 [mu s]
	Time per residual norm calculation: 4787.000000 [mu s]
	Time per iteration and DOF: 0.188609 [ns]
	Retrieve results bandwith 1.714000 [GByte/s]
[OGL LOG][Proc: 0]p: solve_multi_gpu: 37522.8 [ms]
nonecudaGKOCG:  Solving for p, Initial residual = 0.983619, Final residual = 8.39033e-05, No Iterations 3097
time step continuity errors : sum local = 9.47974e-08, global = -3.4814e-22, cumulative = 2.68938e-20
[OGL LOG][Proc: 0]: global_index_init: 0.123 [ms]
[OGL LOG][Proc: 0]p_local_coeffs: call_update: 0 [ms]
[OGL LOG][Proc: 0]p_non_local_coeffs: call_update: 0 [ms]
local_interface_nnzs01[OGL LOG][Proc: 0]p: update_local_matrix_data: 164.887 [ms]
[OGL LOG][Proc: 0]p: update_non_local_matrix_data: 2.236 [ms]
[OGL LOG][Proc: 0]p_matrix: call_update: 20.008 [ms]
[OGL LOG][Proc: 0]p_rhs: call_update: 73.957 [ms]
[OGL LOG][Proc: 0]p: init_precond: 0.041 [ms]
[OGL LOG][StoppingCriterion.H:372] Creating stopping criterion with minIter 1858 frequency 24
[OGL LOG][Proc: 0]p: generate_solver: 0.028 [ms]
[OGL LOG][Proc: 0]p: solve: 37355.6 [ms]
[OGL LOG][Proc: 0]p: copy_x_back: 5.909 [ms]
[OGL LOG][lduLduBase.H:319] 
Statistics:
	Time per iteration: 12061 [mu s]
	Time per residual norm calculation: 4803.000000 [mu s]
	Time per iteration and DOF: 0.188453 [ns]
	Retrieve results bandwith 1.353000 [GByte/s]
[OGL LOG][Proc: 0]p: solve_multi_gpu: 37495.3 [ms]
nonecudaGKOCG:  Solving for p, Initial residual = 0.920786, Final residual = 7.8832e-05, No Iterations 3097
time step continuity errors : sum local = 8.96336e-08, global = 8.33565e-22, cumulative = 2.77274e-20
ExecutionTime = 1619.24 s  ClockTime = 1657 s

Time = 0.0025

Courant Number mean: 0.0460359 max: 4.70548
DILUPBiCGStab:  Solving for Ux, Initial residual = 0.143062, Final residual = 0.00698241, No Iterations 5
DILUPBiCGStab:  Solving for Uy, Initial residual = 0.423222, Final residual = 0.0188349, No Iterations 5
DILUPBiCGStab:  Solving for Uz, Initial residual = 0.751946, Final residual = 0.0341387, No Iterations 5
[OGL LOG][Proc: 0]: global_index_init: 0.325 [ms]
[OGL LOG][Proc: 0]p_local_coeffs: call_update: 0 [ms]
[OGL LOG][Proc: 0]p_non_local_coeffs: call_update: 0 [ms]
local_interface_nnzs01[OGL LOG][Proc: 0]p: update_local_matrix_data: 165.812 [ms]
[OGL LOG][Proc: 0]p: update_non_local_matrix_data: 1.998 [ms]
[OGL LOG][Proc: 0]p_matrix: call_update: 65.742 [ms]
[OGL LOG][Proc: 0]p_rhs: call_update: 31.279 [ms]
[OGL LOG][Proc: 0]p: init_precond: 0.047 [ms]
[OGL LOG][StoppingCriterion.H:372] Creating stopping criterion with minIter 1858 frequency 24
[OGL LOG][Proc: 0]p: generate_solver: 0.032 [ms]
[OGL LOG][Proc: 0]p: solve: 37307.9 [ms]
[OGL LOG][Proc: 0]p: copy_x_back: 6.836 [ms]
[OGL LOG][lduLduBase.H:319] 
Statistics:
	Time per iteration: 12046 [mu s]
	Time per residual norm calculation: 4785.000000 [mu s]
	Time per iteration and DOF: 0.188219 [ns]
	Retrieve results bandwith 1.170000 [GByte/s]
[OGL LOG][Proc: 0]p: solve_multi_gpu: 37446.4 [ms]
nonecudaGKOCG:  Solving for p, Initial residual = 0.984479, Final residual = 7.9142e-05, No Iterations 3097
time step continuity errors : sum local = 1.07189e-07, global = 3.07298e-21, cumulative = 3.08004e-20
[OGL LOG][Proc: 0]: global_index_init: 0.31 [ms]
[OGL LOG][Proc: 0]p_local_coeffs: call_update: 0.001 [ms]
[OGL LOG][Proc: 0]p_non_local_coeffs: call_update: 0 [ms]
local_interface_nnzs01[OGL LOG][Proc: 0]p: update_local_matrix_data: 166.04 [ms]
[OGL LOG][Proc: 0]p: update_non_local_matrix_data: 1.471 [ms]
[OGL LOG][Proc: 0]p_matrix: call_update: 48.028 [ms]
[OGL LOG][Proc: 0]p_rhs: call_update: 47.416 [ms]
[OGL LOG][Proc: 0]p: init_precond: 0.044 [ms]
[OGL LOG][StoppingCriterion.H:372] Creating stopping criterion with minIter 1858 frequency 24
[OGL LOG][Proc: 0]p: generate_solver: 0.03 [ms]
[OGL LOG][Proc: 0]p: solve: 37311.4 [ms]
[OGL LOG][Proc: 0]p: copy_x_back: 10.983 [ms]
[OGL LOG][lduLduBase.H:319] 
Statistics:
	Time per iteration: 12047 [mu s]
	Time per residual norm calculation: 4044.000000 [mu s]
	Time per iteration and DOF: 0.188234 [ns]
	Retrieve results bandwith 0.728000 [GByte/s]
[OGL LOG][Proc: 0]p: solve_multi_gpu: 37445 [ms]
nonecudaGKOCG:  Solving for p, Initial residual = 0.918938, Final residual = 7.3782e-05, No Iterations 3097
time step continuity errors : sum local = 1.00861e-07, global = 5.2345e-23, cumulative = 3.08527e-20
ExecutionTime = 1705.74 s  ClockTime = 1744 s

End

Finalising parallel run
[...]
01local_interface_nnzs01local_interface_nnzs01local_interface_nnzs01local_interface_nnzs01local_interface_nnzs01local_interface_nnzs01local_interface_nnzs01local_interface_nnzs01local_interface_nnzs01local_interface_nnzs01local_interface_nnzs01local_interface_nnzs01local_interface_nnzs01local_interface_nnzs01local_interface_nnzs01local_interface_nnzs01local_interface_nnzs01local_interface_nnzs01local_interface_nnzs01local_interface_nnzs01local_interface_nnzs01local_interface_nnzs01local_interface_nnzs01local_interface_nnzs01local_interface_nnzs01local_interface_nnzs01local_interface_nnzs01local_interface_nnzs01 local_interface_nnzs01local_interface_nnzs01local_interface_nnzs01local_interface_nnzs01local_interface_nnzs01local_interface_nnzs01local_interface_nnzs01local_interface_nnzs01local_interface_nnzs01local_interface_nnzs01local_interface_nnzs01local_interface_nnzs01local_interface_nnzs01local_interface_nnzs01local_interface_nnzs01local_interface_nnzs01local_interface_nnzs01local_interface_nnzs01local_interface_nnzs01local_interface_nnzs01local_interface_nnzs01local_interface_nnzs01local_interface_nnzs01local_interface_nnzs01local_interface_nnzs01local_interface_nnzs01local_interface_nnzs01local_interface_nnzs01local_interface_nnzs01local_interface_nnzs01local_interface_nnzs01local_interface_nnzs01local_interface_nnzs01local_interface_nnzs01local_interface_nnzs01local_interface_nnzs01local_interface_nnzs01local_interface_nnzs01local_interface_nnzs01local_interface_nnzs01 local_interface_nnzs01local_interface_nnzs01local_interface_nnzs01local_interface_nnzs01local_interface_nnzs01local_interface_nnzs01local_interface_nnzs01local_interface_nnzs01local_interface_nnzs01local_interface_nnzs01local_interface_nnzs01local_interface_nnzs01local_interface_nnzs01local_interface_nnzs01local_interface_nnzs01local_interface_nnzs01local_interface_nnzs01local_interface_nnzs01local_interface_nnzs01local_interface_nnzs01local_interface_nnzs01local_interface_nnzs01local_interface_nnzs01local_interface_nnzs01local_interface_nnzs01local_interface_nnzs01local_interface_nnzs01local_interface_nnzs01local_interface_nnzs01local_interface_nnzs01local_interface_nnzs01local_interface_nnzs01local_interface_nnzs01local_interface_nnzs01local_interface_nnzs01local_interface_nnzs01local_interface_nnzs01local_interface_nnzs01local_interface_nnzs01local_interface_nnzs01 local_interface_nnzs01local_interface_nnzs01local_interface_nnzs01local_interface_nnzs01local_interface_nnzs01local_interface_nnzs01local_interface_nnzs01local_interface_nnzs01local_interface_nnzs01local_interface_nnzs01local_interface_nnzs01local_interface_nnzs01local_interface_nnzs01local_interface_nnzs01local_interface_nnzs01local_interface_nnzs01local_interface_nnzs01local_interface_nnzs01local_interface_nnzs01local_interface_nnzs01local_interface_nnzs01local_interface_nnzs01local_interface_nnzs01local_interface_nnzs01local_interface_nnzs01local_interface_nnzs01local_interface_nnzs01local_interface_nnzs01local_interface_nnzs01local_interface_nnzs01local_interface_nnzs01local_interface_nnzs01local_interface_nnzs01local_interface_nnzs01local_interface_nnzs01local_interface_nnzs01local_interface_nnzs01local_interface_nnzs01local_interface_nnzs01local_interface_nnzs01 local_interface_nnzs01local_interface_nnzs01local_interface_nnzs01local_interface_nnzs01local_interface_nnzs01local_interface_nnzs01local_interface_nnzs01local_interface_nnzs01local_interface_nnzs01local_interface_nnzs01local_interface_nnzs01local_interface_nnzs01local_interface_nnzs01local_interface_nnzs01local_interface_nnzs01local_interface_nnzs01local_interface_nnzs01local_interface_nnzs01local_interface_nnzs01local_interface_nnzs01local_interface_nnzs01local_interface_nnzs01local_interface_nnzs01local_interface_nnzs01local_interface_nnzs01local_interface_nnzs01local_interface_nnzs01local_interface_nnzs01local_interface_nnzs01local_interface_nnzs01local_interface_nnzs01local_interface_nnzs01local_interface_nnzs01local_interface_nnzs01local_interface_nnzs01local_interface_nnzs01local_interface_nnzs01local_interface_nnzs01local_interface_nnzs01local_interface_nnzs01 local_interface_nnzs01local_interface_nnzs01local_interface_nnzs01local_interface_nnzs01local_interface_nnzs01local_interface_nnzs01local_interface_nnzs01local_interface_nnzs01local_interface_nnzs01local_interface_nnzs01local_interface_nnzs01local_interface_nnzs01local_interface_nnzs01local_interface_nnzs01local_interface_nnzs01local_interface_nnzs01local_interface_nnzs01local_interface_nnzs01local_interface_nnzs01local_interface_nnzs01local_interface_nnzs01local_interface_nnzs01local_interface_nnzs01local_interface_nnzs01local_interface_nnzs01local_interface_nnzs01local_interface_nnzs01local_interface_nnzs01local_interface_nnzs01local_interface_nnzs01local_interface_nnzs01local_interface_nnzs01local_interface_nnzs01local_interface_nnzs01local_interface_nnzs01local_interface_nnzs01local_interface_nnzs01local_interface_nnzs01local_interface_nnzs01local_interface_nnzs01 local_interface_nnzs01local_interface_nnzs01local_interface_nnzs01local_interface_nnzs01local_interface_nnzs01local_interface_nnzs01local_interface_nnzs01local_interface_nnzs01local_interface_nnzs01local_interface_nnzs01local_interface_nnzs01local_interface_nnzs01local_interface_nnzs01local_interface_nnzs01local_interface_nnzs01local_interface_nnzs01local_interface_nnzs01local_interface_nnzs01local_interface_nnzs01local_interface_nnzs01local_interface_nnzs01local_interface_nnzs01local_interface_nnzs01local_interface_nnzs01local_interface_nnzs01local_interface_nnzs01local_interface_nnzs01local_interface_nnzs01local_interface_nnzs01local_interface_nnzs01local_interface_nnzs01local_interface_nnzs01local_interface_nnzs01local_interface_nnzs01local_interface_nnzs01local_interface_nnzs01local_interface_nnzs01local_interface_nnzs01local_interface_nnzs01local_interface_nnzs01 local_interface_nnzs01local_interface_nnzs01local_interface_nnzs01local_interface_nnzs01local_interface_nnzs01local_interface_nnzs01local_interface_nnzs01local_interface_nnzs01local_interface_nnzs01local_interface_nnzs01local_interface_nnzs01local_interface_nnzs01local_interface_nnzs01local_interface_nnzs01local_interface_nnzs01local_interface_nnzs01local_interface_nnzs01local_interface_nnzs01local_interface_nnzs01local_interface_nnzs01local_interface_nnzs01local_interface_nnzs01local_interface_nnzs01local_interface_nnzs01local_interface_nnzs01local_interface_nnzs01local_interface_nnzs01local_interface_nnzs01local_interface_nnzs01local_interface_nnzs01local_interface_nnzs01local_interface_nnzs01local_interface_nnzs01local_interface_nnzs01local_interface_nnzs01local_interface_nnzs01local_interface_nnzs01local_interface_nnzs01local_interface_nnzs01local_interface_nnzs01 local_interface_nnzs01local_interface_nnzs01local_interface_nnzs01local_interface_nnzs01local_interface_nnzs01local_interface_nnzs01local_interface_nnzs01local_interface_nnzs01local_interface_nnzs01local_interface_nnzs01local_interface_nnzs01local_interface_nnzs01local_interface_nnzs01local_interface_nnzs01local_interface_nnzs01local_interface_nnzs01local_interface_nnzs01local_interface_nnzs01local_interface_nnzs01local_interface_nnzs01local_interface_nnzs01local_interface_nnzs01local_interface_nnzs01local_interface_nnzs01local_interface_nnzs01local_interface_nnzs01local_interface_nnzs01local_interface_nnzs01local_interface_nnzs01local_interface_nnzs01local_interface_nnzs01local_interface_nnzs01local_interface_nnzs01local_interface_nnzs01local_interface_nnzs01local_interface_nnzs01local_interface_nnzs01local_interface_nnzs01local_interface_nnzs01local_interface_nnzs01 local_interface_nnzs01local_interface_nnzs01local_interface_nnzs01local_interface_nnzs01local_interface_nnzs01local_interface_nnzs01local_interface_nnzs01local_interface_nnzs01local_interface_nnzs01local_interface_nnzs01local_interface_nnzs01local_interface_nnzs01local_interface_nnzs01local_interface_nnzs01local_interface_nnzs01local_interface_nnzs01local_interface_nnzs01local_interface_nnzs01local_interface_nnzs01local_interface_nnzs01local_interface_nnzs01local_interface_nnzs01local_interface_nnzs01local_interface_nnzs01local_interface_nnzs01local_interface_nnzs01local_interface_nnzs01local_interface_nnzs01local_interface_nnzs01local_interface_nnzs01local_interface_nnzs01local_interface_nnzs01local_interface_nnzs01local_interface_nnzs01local_interface_nnzs01local_interface_nnzs01local_interface_nnzs01local_interface_nnzs01local_interface_nnzs01local_interface_nnzs01 local_interface_nnzs01local_interface_nnzs01local_interface_nnzs01local_interface_nnzs01local_interface_nnzs01local_interface_nnzs01local_interface_nnzs01local_interface_nnzs01local_interface_nnzs01local_interface_nnzs01local_interface_nnzs01local_interface_nnzs01local_interface_nnzs01local_interface_nnzs01local_interface_nnzs01local_interface_nnzs01local_interface_nnzs01local_interface_nnzs01local_interface_nnzs01local_interface_nnzs01local_interface_nnzs01local_interface_nnzs01local_interface_nnzs01local_interface_nnzs01local_interface_nnzs01local_interface_nnzs01local_interface_nnzs01local_interface_nnzs01local_interface_nnzs01local_interface_nnzs01local_interface_nnzs01local_interface_nnzs01local_interface_nnzs01local_interface_nnzs01local_interface_nnzs01local_interface_nnzs01local_interface_nnzs01local_interface_nnzs01local_interface_nnzs01local_interface_nnzs01 local_interface_nnzs01local_interface_nnzs01local_interface_nnzs01local_interface_nnzs01local_interface_nnzs01local_interface_nnzs01local_interface_nnzs01local_interface_nnzs01local_interface_nnzs01local_interface_nnzs01local_interface_nnzs01local_interface_nnzs01local_interface_nnzs01local_interface_nnzs01local_interface_nnzs01local_interface_nnzs01local_interface_nnzs01local_interface_nnzs01local_interface_nnzs01local_interface_nnzs01local_interface_nnzs01local_interface_nnzs01local_interface_nnzs01local_interface_nnzs01local_interface_nnzs01local_interface_nnzs01local_interface_nnzs01local_interface_nnzs01local_interface_nnzs01local_interface_nnzs01local_interface_nnzs01local_interface_nnzs01local_interface_nnzs01local_interface_nnzs01local_interface_nnzs01local_interface_nnzs01local_interface_nnzs01local_interface_nnzs01local_interface_nnzs01local_interface_nnzs01 local_interface_nnzs01local_interface_nnzs01local_interface_nnzs01local_interface_nnzs01local_interface_nnzs01local_interface_nnzs01local_interface_nnzs01local_interface_nnzs01local_interface_nnzs01local_interface_nnzs01local_interface_nnzs01local_interface_nnzs01local_interface_nnzs01local_interface_nnzs01local_interface_nnzs01local_interface_nnzs01local_interface_nnzs01local_interface_nnzs01local_interface_nnzs01local_interface_nnzs01local_interface_nnzs01local_interface_nnzs01local_interface_nnzs01local_interface_nnzs01local_interface_nnzs01local_interface_nnzs01local_interface_nnzs01local_interface_nnzs01local_interface_nnzs01local_interface_nnzs01local_interface_nnzs01local_interface_nnzs01local_interface_nnzs01local_interface_nnzs01local_interface_nnzs01local_interface_nnzs01local_interface_nnzs01local_interface_nnzs01local_interface_nnzs01local_interface_nnzs01 local_interface_nnzs01local_interface_nnzs01local_interface_nnzs01local_interface_nnzs01local_interface_nnzs01local_interface_nnzs01local_interface_nnzs01local_interface_nnzs01local_interface_nnzs01local_interface_nnzs01local_interface_nnzs01local_interface_nnzs01local_interface_nnzs01local_interface_nnzs01local_interface_nnzs01local_interface_nnzs01local_interface_nnzs01local_interface_nnzs01local_interface_nnzs01local_interface_nnzs01local_interface_nnzs01local_interface_nnzs01local_interface_nnzs01local_interface_nnzs01local_interface_nnzs01local_interface_nnzs01local_interface_nnzs01local_interface_nnzs01local_interface_nnzs01local_interface_nnzs01local_interface_nnzs01local_interface_nnzs01local_interface_nnzs01local_interface_nnzs01local_interface_nnzs01local_interface_nnzs01local_interface_nnzs01local_interface_nnzs01local_interface_nnzs01local_interface_nnzs01 local_interface_nnzs01local_interface_nnzs01local_interface_nnzs01local_interface_nnzs01local_interface_nnzs01local_interface_nnzs01local_interface_nnzs01local_interface_nnzs01local_interface_nnzs01local_interface_nnzs01local_interface_nnzs01local_interface_nnzs01local_interface_nnzs01local_interface_nnzs01local_interface_nnzs01local_interface_nnzs01local_interface_nnzs01local_interface_nnzs01local_interface_nnzs01local_interface_nnzs01local_interface_nnzs01local_interface_nnzs01local_interface_nnzs01local_interface_nnzs01local_interface_nnzs01local_interface_nnzs01local_interface_nnzs01local_interface_nnzs01local_interface_nnzs01local_interface_nnzs01local_interface_nnzs01local_interface_nnzs01local_interface_nnzs01local_interface_nnzs01local_interface_nnzs01local_interface_nnzs01local_interface_nnzs01local_interface_nnzs01local_interface_nnzs01local_interface_nnzs01 local_interface_nnzs01local_interface_nnzs01local_interface_nnzs01local_interface_nnzs01local_interface_nnzs01local_interface_nnzs01local_interface_nnzs01local_interface_nnzs01local_interface_nnzs01local_interface_nnzs01local_interface_nnzs01local_interface_nnzs01local_interface_nnzs01local_interface_nnzs01local_interface_nnzs01local_interface_nnzs01local_interface_nnzs01local_interface_nnzs01local_interface_nnzs01local_interface_nnzs01local_interface_nnzs01local_interface_nnzs01local_interface_nnzs01local_interface_nnzs01local_interface_nnzs01local_interface_nnzs01local_interface_nnzs01local_interface_nnzs01local_interface_nnzs01local_interface_nnzs01local_interface_nnzs01local_interface_nnzs01local_interface_nnzs01local_interface_nnzs01local_interface_nnzs01local_interface_nnzs01local_interface_nnzs01local_interface_nnzs01local_interface_nnzs01local_interface_nnzs01 local_interface_nnzs01local_interface_nnzs01local_interface_nnzs01local_interface_nnzs01local_interface_nnzs01local_interface_nnzs01local_interface_nnzs01local_interface_nnzs01local_interface_nnzs01local_interface_nnzs01local_interface_nnzs01local_interface_nnzs01local_interface_nnzs01local_interface_nnzs01local_interface_nnzs01local_interface_nnzs01local_interface_nnzs01local_interface_nnzs01local_interface_nnzs01local_interface_nnzs01local_interface_nnzs01local_interface_nnzs01local_interface_nnzs01local_interface_nnzs01local_interface_nnzs01local_interface_nnzs01local_interface_nnzs01local_interface_nnzs01local_interface_nnzs01local_interface_nnzs01local_interface_nnzs01local_interface_nnzs01local_interface_nnzs01local_interface_nnzs01local_interface_nnzs01local_interface_nnzs01local_interface_nnzs01local_interface_nnzs01local_interface_nnzs01local_interface_nnzs01 local_interface_nnzs01local_interface_nnzs01local_interface_nnzs01local_interface_nnzs01local_interface_nnzs01local_interface_nnzs01local_interface_nnzs01local_interface_nnzs01local_interface_nnzs01local_interface_nnzs01local_interface_nnzs01local_interface_nnzs01local_interface_nnzs01local_interface_nnzs01local_interface_nnzs01local_interface_nnzs01local_interface_nnzs01local_interface_nnzs01local_interface_nnzs01local_interface_nnzs01local_interface_nnzs01local_interface_nnzs01local_interface_nnzs01local_interface_nnzs01local_interface_nnzs01local_interface_nnzs01local_interface_nnzs01local_interface_nnzs01local_interface_nnzs01local_interface_nnzs01local_interface_nnzs01local_interface_nnzs01local_interface_nnzs01local_interface_nnzs01local_interface_nnzs01local_interface_nnzs01local_interface_nnzs01local_interface_nnzs01local_interface_nnzs01local_interface_nnzs01 local_interface_nnzs01local_interface_nnzs01local_interface_nnzs01local_interface_nnzs01local_interface_nnzs01local_interface_nnzs01local_interface_nnzs01local_interface_nnzs01local_interface_nnzs01local_interface_nnzs01local_interface_nnzs01local_interface_nnzs01local_interface_nnzs01local_interface_nnzs01local_interface_nnzs01local_interface_nnzs01local_interface_nnzs01local_interface_nnzs01local_interface_nnzs01local_interface_nnzs01local_interface_nnzs01local_interface_nnzs01local_interface_nnzs01local_interface_nnzs01local_interface_nnzs01local_interface_nnzs01local_interface_nnzs01local_interface_nnzs01local_interface_nnzs01local_interface_nnzs01local_interface_nnzs01local_interface_nnzs01local_interface_nnzs01local_interface_nnzs01local_interface_nnzs01local_interface_nnzs01local_interface_nnzs01local_interface_nnzs01local_interface_nnzs01local_interface_nnzs01 local_interface_nnzs01local_interface_nnzs01local_interface_nnzs01local_interface_nnzs01local_interface_nnzs01local_interface_nnzs01local_interface_nnzs01local_interface_nnzs01local_interface_nnzs01local_interface_nnzs01local_interface_nnzs01local_interface_nnzs01local_interface_nnzs01local_interface_nnzs01local_interface_nnzs01local_interface_nnzs01local_interface_nnzs01local_interface_nnzs01local_interface_nnzs01local_interface_nnzs01local_interface_nnzs01local_interface_nnzs01local_interface_nnzs01local_interface_nnzs01local_interface_nnzs01local_interface_nnzs01local_interface_nnzs01local_interface_nnzs01local_interface_nnzs01local_interface_nnzs01local_interface_nnzs01local_interface_nnzs01local_interface_nnzs01local_interface_nnzs01local_interface_nnzs01local_interface_nnzs01local_interface_nnzs01local_interface_nnzs01local_interface_nnzs01local_interface_nnzs01 local_interface_nnzs01local_interface_nnzs01local_interface_nnzs01local_interface_nnzs01local_interface_nnzs01local_interface_nnzs01local_interface_nnzs01local_interface_nnzs01local_interface_nnzs01local_interface_nnzs01local_interface_nnzs01local_interface_nnzs01local_interface_nnzs01local_interface_nnzs01local_interface_nnzs01local_interface_nnzs01local_interface_nnzs01local_interface_nnzs01local_interface_nnzs01local_interface_nnzs01local_interface_nnzs01local_interface_nnzs01local_interface_nnzs01local_interface_nnzs01local_interface_nnzs01local_interface_nnzs01local_interface_nnzs01local_interface_nnzs01local_interface_nnzs01local_interface_nnzs01local_interface_nnzs01local_interface_nnzs01local_interface_nnzs01local_interface_nnzs01local_interface_nnzs01local_interface_nnzs01local_interface_nnzs01local_interface_nnzs01local_interface_nnzs01local_interface_nnzs01 local_interface_nnzs01local_interface_nnzs01local_interface_nnzs01local_interface_nnzs01local_interface_nnzs01local_interface_nnzs01local_interface_nnzs01local_interface_nnzs01local_interface_nnzs01local_interface_nnzs01local_interface_nnzs01local_interface_nnzs01local_interface_nnzs01local_interface_nnzs01local_interface_nnzs01local_interface_nnzs01local_interface_nnzs01local_interface_nnzs01local_interface_nnzs01local_interface_nnzs01local_interface_nnzs01local_interface_nnzs01local_interface_nnzs01local_interface_nnzs01local_interface_nnzs01local_interface_nnzs01local_interface_nnzs01local_interface_nnzs01local_interface_nnzs01local_interface_nnzs01local_interface_nnzs01local_interface_nnzs01local_interface_nnzs01local_interface_nnzs01local_interface_nnzs01local_interface_nnzs01local_interface_nnzs01local_interface_nnzs01local_interface_nnzs01local_interface_nnzs01 local_interface_nnzs01local_interface_nnzs01local_interface_nnzs01local_interface_nnzs01local_interface_nnzs01local_interface_nnzs01local_interface_nnzs01local_interface_nnzs01local_interface_nnzs01local_interface_nnzs01local_interface_nnzs01local_interface_nnzs01local_interface_nnzs01local_interface_nnzs01local_interface_nnzs01local_interface_nnzs01local_interface_nnzs01local_interface_nnzs01local_interface_nnzs01local_interface_nnzs01local_interface_nnzs01local_interface_nnzs01local_interface_nnzs01local_interface_nnzs01local_interface_nnzs01local_interface_nnzs01local_interface_nnzs01local_interface_nnzs01local_interface_nnzs01local_interface_nnzs01local_interface_nnzs01local_interface_nnzs01local_interface_nnzs01local_interface_nnzs01local_interface_nnzs01local_interface_nnzs01local_interface_nnzs01local_interface_nnzs01local_interface_nnzs01local_interface_nnzs01