/*---------------------------------------------------------------------------*\
| =========                 |                                                 |
| \\      /  F ield         | OpenFOAM: The Open Source CFD Toolbox           |
|  \\    /   O peration     | Version:  2306                                  |
|   \\  /    A nd           | Website:  www.openfoam.com                      |
|    \\/     M anipulation  |                                                 |
\*---------------------------------------------------------------------------*/
Build  : a6e826bd55-20230630 OPENFOAM=2306 version=v2306
Arch   : "LSB;label=32;scalar=64"
Exec   : icoFoam -parallel -case /tmp/lidDrivenCavity/workspace/e9d5c78f0f8d2c7dace9133e162a5aeb/case
Date   : Dec 20 2023
Time   : 22:39:40
Host   : nla-gpu2.ianm.kit.edu
PID    : 384379
I/O    : uncollated
Case   : /tmp/lidDrivenCavity/workspace/e9d5c78f0f8d2c7dace9133e162a5aeb/case
nProcs : 8
Hosts  :
(
    (nla-gpu2.ianm.kit.edu 8)
)
Pstream initialized with:
    floatTransfer      : false
    nProcsSimpleSum    : 0
    nonBlockingExchange: 0 (tuning: 0)
    exchange algorithm : -1
    commsType          : nonBlocking
    polling iterations : 0
trapFpe: Floating point exception trapping enabled (FOAM_SIGFPE).
fileModificationChecking : Monitoring run-time modified files using timeStampMaster (fileModificationSkew 5, maxFileModificationPolls 20)
allowSystemOperations : Allowing user-supplied system call operations

// * * * * * * * * * * * * * * * * * * * * * * * * * * * * * * * * * * * * * //
Create time

--> FOAM Warning : 
    From void* Foam::dlLibraryTable::openLibrary(const Foam::fileName&, bool)
    in file db/dynamicLibrary/dlLibraryTable/dlLibraryTable.C at line 188
    Could not load "libpetscFoam.so"
libpetscFoam.so: cannot open shared object file: No such file or directory
Create mesh for time = 0


PISO: Operating solver in PISO mode

Reading transportProperties

Reading field p

Reading field U

Reading/calculating face flux field phi


Starting time loop

Time = 0.0005

Courant Number mean: 8.62851e-18 max: 8.67362e-15
[INFO] MatrixAssemblyU: 14.139 [ms]
DILUPBiCGStab:  Solving for Ux, Initial residual = 1, Final residual = 0.0025649, No Iterations 5
DILUPBiCGStab:  Solving for Uy:  solution singularity
DILUPBiCGStab:  Solving for Uz:  solution singularity
[INFO] MomentumPredictor: 60.527 [ms]
[INFO] MatrixAssemblyPI: 11.025 [ms]
[INFO] AdjustPhi: 1.049 [ms]
[INFO] ConstrainPressure: 0.011 [ms]
[INFO] MatrixAssemblyPII: 3.284 [ms]
nonePCG:  Solving for p, Initial residual = 1, Final residual = 9.98865e-05, No Iterations 792
[INFO] SolveP: 1096.13 [ms]
time step continuity errors : sum local = 2.14472e-08, global = -1.22045e-21, cumulative = -1.22045e-21
[INFO] ContinuityError: 2.241 [ms]
[INFO] CorrectBoundary: 0.167 [ms]
[INFO] PISOStep: 1120.77 [ms]
[INFO] MatrixAssemblyPI: 12.412 [ms]
[INFO] AdjustPhi: 1.794 [ms]
[INFO] ConstrainPressure: 0.003 [ms]
[INFO] MatrixAssemblyPII: 3.619 [ms]
nonePCG:  Solving for p, Initial residual = 0.731052, Final residual = 9.82441e-05, No Iterations 781
[INFO] SolveP: 1068.44 [ms]
time step continuity errors : sum local = 2.78561e-08, global = -2.91266e-21, cumulative = -4.13311e-21
[INFO] ContinuityError: 2.325 [ms]
[INFO] CorrectBoundary: 0.089 [ms]
[INFO] PISOStep: 1095.27 [ms]
[INFO] TimeStep: 2293.3 [ms]
ExecutionTime = 2.59 s  ClockTime = 3 s

Time = 0.001

Courant Number mean: 0.0215341 max: 0.377097
[INFO] MatrixAssemblyU: 9.399 [ms]
DILUPBiCGStab:  Solving for Ux, Initial residual = 0.150351, Final residual = 0.00113128, No Iterations 5
DILUPBiCGStab:  Solving for Uy, Initial residual = 0.368162, Final residual = 0.00224404, No Iterations 5
DILUPBiCGStab:  Solving for Uz, Initial residual = 0.988636, Final residual = 0.00605697, No Iterations 5
[INFO] MomentumPredictor: 108.287 [ms]
[INFO] MatrixAssemblyPI: 11.99 [ms]
[INFO] AdjustPhi: 0.742 [ms]
[INFO] ConstrainPressure: 0.003 [ms]
[INFO] MatrixAssemblyPII: 3.741 [ms]
nonePCG:  Solving for p, Initial residual = 0.690613, Final residual = 9.94632e-05, No Iterations 775
[INFO] SolveP: 1074.37 [ms]
time step continuity errors : sum local = 3.15587e-08, global = -8.05085e-21, cumulative = -1.2184e-20
[INFO] ContinuityError: 2.079 [ms]
[INFO] CorrectBoundary: 0.489 [ms]
[INFO] PISOStep: 1100.06 [ms]
[INFO] MatrixAssemblyPI: 12.203 [ms]
[INFO] AdjustPhi: 1.794 [ms]
[INFO] ConstrainPressure: 0.003 [ms]
[INFO] MatrixAssemblyPII: 3.731 [ms]
nonePCG:  Solving for p, Initial residual = 0.619789, Final residual = 9.3759e-05, No Iterations 774
[INFO] SolveP: 1055.97 [ms]
time step continuity errors : sum local = 3.0342e-08, global = -1.14022e-22, cumulative = -1.2298e-20
[INFO] ContinuityError: 2.392 [ms]
[INFO] CorrectBoundary: 0.095 [ms]
[INFO] PISOStep: 1083.39 [ms]
[INFO] TimeStep: 2303.39 [ms]
ExecutionTime = 4.88 s  ClockTime = 5 s

Time = 0.0015

Courant Number mean: 0.0324926 max: 0.441243
[INFO] MatrixAssemblyU: 9.923 [ms]
DILUPBiCGStab:  Solving for Ux, Initial residual = 0.0531066, Final residual = 0.000326426, No Iterations 5
DILUPBiCGStab:  Solving for Uy, Initial residual = 0.124681, Final residual = 0.000558081, No Iterations 5
DILUPBiCGStab:  Solving for Uz, Initial residual = 0.575612, Final residual = 0.00312185, No Iterations 5
[INFO] MomentumPredictor: 104.57 [ms]
[INFO] MatrixAssemblyPI: 11.104 [ms]
[INFO] AdjustPhi: 1.316 [ms]
[INFO] ConstrainPressure: 0.003 [ms]
[INFO] MatrixAssemblyPII: 3.496 [ms]
nonePCG:  Solving for p, Initial residual = 0.632554, Final residual = 9.52719e-05, No Iterations 768
[INFO] SolveP: 1039.87 [ms]
time step continuity errors : sum local = 2.18252e-08, global = -3.36926e-21, cumulative = -1.56672e-20
[INFO] ContinuityError: 1.997 [ms]
[INFO] CorrectBoundary: 0.609 [ms]
[INFO] PISOStep: 1064.34 [ms]
[INFO] MatrixAssemblyPI: 11.121 [ms]
[INFO] AdjustPhi: 0.987 [ms]
[INFO] ConstrainPressure: 0.003 [ms]
[INFO] MatrixAssemblyPII: 3.907 [ms]
nonePCG:  Solving for p, Initial residual = 0.579979, Final residual = 9.59998e-05, No Iterations 766
[INFO] SolveP: 1033.71 [ms]
time step continuity errors : sum local = 2.14087e-08, global = 7.17025e-21, cumulative = -8.49699e-21
[INFO] ContinuityError: 1.908 [ms]
[INFO] CorrectBoundary: 0.095 [ms]
[INFO] PISOStep: 1057.11 [ms]
[INFO] TimeStep: 2237.96 [ms]
ExecutionTime = 7.11 s  ClockTime = 7 s

Time = 0.002

Courant Number mean: 0.0388942 max: 0.452946
[INFO] MatrixAssemblyU: 10.121 [ms]
DILUPBiCGStab:  Solving for Ux, Initial residual = 0.0318966, Final residual = 0.000167513, No Iterations 5
DILUPBiCGStab:  Solving for Uy, Initial residual = 0.0813679, Final residual = 0.000384959, No Iterations 5
DILUPBiCGStab:  Solving for Uz, Initial residual = 0.273903, Final residual = 0.00118152, No Iterations 5
[INFO] MomentumPredictor: 105.418 [ms]
[INFO] MatrixAssemblyPI: 10.84 [ms]
[INFO] AdjustPhi: 1.464 [ms]
[INFO] ConstrainPressure: 0.003 [ms]
[INFO] MatrixAssemblyPII: 3.404 [ms]
nonePCG:  Solving for p, Initial residual = 0.412426, Final residual = 9.98162e-05, No Iterations 761
[INFO] SolveP: 1042.26 [ms]
time step continuity errors : sum local = 1.95194e-08, global = 6.8444e-22, cumulative = -7.81255e-21
[INFO] ContinuityError: 2.042 [ms]
[INFO] CorrectBoundary: 0.097 [ms]
[INFO] PISOStep: 1066.08 [ms]
[INFO] MatrixAssemblyPI: 10.837 [ms]
[INFO] AdjustPhi: 1.025 [ms]
[INFO] ConstrainPressure: 0.003 [ms]
[INFO] MatrixAssemblyPII: 3.877 [ms]
nonePCG:  Solving for p, Initial residual = 0.350545, Final residual = 9.96381e-05, No Iterations 757
[INFO] SolveP: 1047.81 [ms]
time step continuity errors : sum local = 1.96793e-08, global = -1.95625e-22, cumulative = -8.00818e-21
[INFO] ContinuityError: 2.238 [ms]
[INFO] CorrectBoundary: 0.174 [ms]
[INFO] PISOStep: 1071.71 [ms]
[INFO] TimeStep: 2255.61 [ms]
ExecutionTime = 9.36 s  ClockTime = 10 s

Time = 0.0025

Courant Number mean: 0.043947 max: 0.459623
[INFO] MatrixAssemblyU: 9.539 [ms]
DILUPBiCGStab:  Solving for Ux, Initial residual = 0.0235042, Final residual = 0.000104802, No Iterations 5
DILUPBiCGStab:  Solving for Uy, Initial residual = 0.0515221, Final residual = 0.00023504, No Iterations 5
DILUPBiCGStab:  Solving for Uz, Initial residual = 0.0979986, Final residual = 0.000478144, No Iterations 5
[INFO] MomentumPredictor: 105.299 [ms]
[INFO] MatrixAssemblyPI: 11.07 [ms]
[INFO] AdjustPhi: 0.842 [ms]
[INFO] ConstrainPressure: 0.003 [ms]
[INFO] MatrixAssemblyPII: 3.734 [ms]
nonePCG:  Solving for p, Initial residual = 0.314826, Final residual = 9.76159e-05, No Iterations 728
[INFO] SolveP: 994.062 [ms]
time step continuity errors : sum local = 1.57645e-08, global = 2.16295e-23, cumulative = -7.98655e-21
[INFO] ContinuityError: 1.73 [ms]
[INFO] CorrectBoundary: 0.109 [ms]
[INFO] PISOStep: 1015.71 [ms]
[INFO] MatrixAssemblyPI: 10.487 [ms]
[INFO] AdjustPhi: 0.682 [ms]
[INFO] ConstrainPressure: 0.003 [ms]
[INFO] MatrixAssemblyPII: 3.523 [ms]
nonePCG:  Solving for p, Initial residual = 0.269326, Final residual = 9.9824e-05, No Iterations 724
[INFO] SolveP: 985.706 [ms]
time step continuity errors : sum local = 1.60019e-08, global = -9.27099e-21, cumulative = -1.72575e-20
[INFO] ContinuityError: 2.283 [ms]
[INFO] CorrectBoundary: 0.16 [ms]
[INFO] PISOStep: 1008.47 [ms]
[INFO] TimeStep: 2141.3 [ms]
ExecutionTime = 11.49 s  ClockTime = 12 s

Time = 0.003

Courant Number mean: 0.047987 max: 0.463866
[INFO] MatrixAssemblyU: 8.859 [ms]
DILUPBiCGStab:  Solving for Ux, Initial residual = 0.0178878, Final residual = 7.93736e-05, No Iterations 5
DILUPBiCGStab:  Solving for Uy, Initial residual = 0.0401304, Final residual = 0.000115985, No Iterations 5
DILUPBiCGStab:  Solving for Uz, Initial residual = 0.0851911, Final residual = 0.000399696, No Iterations 5
[INFO] MomentumPredictor: 103.561 [ms]
[INFO] MatrixAssemblyPI: 10.977 [ms]
[INFO] AdjustPhi: 1.567 [ms]
[INFO] ConstrainPressure: 0.003 [ms]
[INFO] MatrixAssemblyPII: 3.292 [ms]
nonePCG:  Solving for p, Initial residual = 0.19689, Final residual = 9.86569e-05, No Iterations 347
[INFO] SolveP: 473.066 [ms]
time step continuity errors : sum local = 1.73621e-08, global = -2.27661e-21, cumulative = -1.95341e-20
[INFO] ContinuityError: 1.675 [ms]
[INFO] CorrectBoundary: 0.075 [ms]
[INFO] PISOStep: 494.875 [ms]
[INFO] MatrixAssemblyPI: 10.249 [ms]
[INFO] AdjustPhi: 1.113 [ms]
[INFO] ConstrainPressure: 0.003 [ms]
[INFO] MatrixAssemblyPII: 3.3 [ms]
nonePCG:  Solving for p, Initial residual = 0.163669, Final residual = 9.93628e-05, No Iterations 344
[INFO] SolveP: 475.361 [ms]
time step continuity errors : sum local = 1.61007e-08, global = -3.97336e-21, cumulative = -2.35075e-20
[INFO] ContinuityError: 1.818 [ms]
[INFO] CorrectBoundary: 0.196 [ms]
[INFO] PISOStep: 497.31 [ms]
[INFO] TimeStep: 1106.77 [ms]
ExecutionTime = 12.6 s  ClockTime = 13 s

Time = 0.0035

Courant Number mean: 0.051396 max: 0.466746
[INFO] MatrixAssemblyU: 9.752 [ms]
DILUPBiCGStab:  Solving for Ux, Initial residual = 0.0146272, Final residual = 5.75161e-05, No Iterations 5
DILUPBiCGStab:  Solving for Uy, Initial residual = 0.0317932, Final residual = 9.94328e-05, No Iterations 5
DILUPBiCGStab:  Solving for Uz, Initial residual = 0.0575224, Final residual = 0.000249865, No Iterations 5
[INFO] MomentumPredictor: 105.111 [ms]
[INFO] MatrixAssemblyPI: 10.929 [ms]
[INFO] AdjustPhi: 1.16 [ms]
[INFO] ConstrainPressure: 0.003 [ms]
[INFO] MatrixAssemblyPII: 3.531 [ms]
nonePCG:  Solving for p, Initial residual = 0.139698, Final residual = 9.89467e-05, No Iterations 334
[INFO] SolveP: 456.058 [ms]
time step continuity errors : sum local = 1.48755e-08, global = 2.96927e-21, cumulative = -2.05382e-20
[INFO] ContinuityError: 1.754 [ms]
[INFO] CorrectBoundary: 0.107 [ms]
[INFO] PISOStep: 477.691 [ms]
[INFO] MatrixAssemblyPI: 10.446 [ms]
[INFO] AdjustPhi: 0.639 [ms]
[INFO] ConstrainPressure: 0.003 [ms]
[INFO] MatrixAssemblyPII: 3.442 [ms]
nonePCG:  Solving for p, Initial residual = 0.116789, Final residual = 9.77715e-05, No Iterations 329
[INFO] SolveP: 446.878 [ms]
time step continuity errors : sum local = 1.4481e-08, global = -3.74506e-22, cumulative = -2.09127e-20
[INFO] ContinuityError: 1.759 [ms]
[INFO] CorrectBoundary: 0.081 [ms]
[INFO] PISOStep: 467.554 [ms]
[INFO] TimeStep: 1062.05 [ms]
ExecutionTime = 13.65 s  ClockTime = 14 s

Time = 0.004

Courant Number mean: 0.0543347 max: 0.468955
[INFO] MatrixAssemblyU: 8.578 [ms]
DILUPBiCGStab:  Solving for Ux, Initial residual = 0.0122808, Final residual = 4.51269e-05, No Iterations 5
DILUPBiCGStab:  Solving for Uy, Initial residual = 0.0265199, Final residual = 6.38751e-05, No Iterations 5
DILUPBiCGStab:  Solving for Uz, Initial residual = 0.0511913, Final residual = 0.000170451, No Iterations 5
[INFO] MomentumPredictor: 103.289 [ms]
[INFO] MatrixAssemblyPI: 10.886 [ms]
[INFO] AdjustPhi: 1.152 [ms]
[INFO] ConstrainPressure: 0.003 [ms]
[INFO] MatrixAssemblyPII: 3.613 [ms]
nonePCG:  Solving for p, Initial residual = 0.0909219, Final residual = 9.94679e-05, No Iterations 345
[INFO] SolveP: 473.117 [ms]
time step continuity errors : sum local = 1.68399e-08, global = -1.22774e-21, cumulative = -2.21405e-20
[INFO] ContinuityError: 1.776 [ms]
[INFO] CorrectBoundary: 0.081 [ms]
[INFO] PISOStep: 495.017 [ms]
[INFO] MatrixAssemblyPI: 10.197 [ms]
[INFO] AdjustPhi: 1.238 [ms]
[INFO] ConstrainPressure: 0.003 [ms]
[INFO] MatrixAssemblyPII: 3.47 [ms]
nonePCG:  Solving for p, Initial residual = 0.0751904, Final residual = 9.67724e-05, No Iterations 321
[INFO] SolveP: 440.511 [ms]
time step continuity errors : sum local = 1.48831e-08, global = -7.2035e-21, cumulative = -2.9344e-20
[INFO] ContinuityError: 2.339 [ms]
[INFO] CorrectBoundary: 0.092 [ms]
[INFO] PISOStep: 463.087 [ms]
[INFO] TimeStep: 1071.77 [ms]
ExecutionTime = 14.72 s  ClockTime = 15 s

Time = 0.0045

Courant Number mean: 0.0569118 max: 0.470657
[INFO] MatrixAssemblyU: 9.624 [ms]
DILUPBiCGStab:  Solving for Ux, Initial residual = 0.0105233, Final residual = 3.57193e-05, No Iterations 5
DILUPBiCGStab:  Solving for Uy, Initial residual = 0.0227016, Final residual = 5.88618e-05, No Iterations 5
DILUPBiCGStab:  Solving for Uz, Initial residual = 0.0430332, Final residual = 0.000132895, No Iterations 5
[INFO] MomentumPredictor: 102.988 [ms]
[INFO] MatrixAssemblyPI: 11.28 [ms]
[INFO] AdjustPhi: 1.303 [ms]
[INFO] ConstrainPressure: 0.003 [ms]
[INFO] MatrixAssemblyPII: 3.38 [ms]
nonePCG:  Solving for p, Initial residual = 0.066987, Final residual = 9.75812e-05, No Iterations 335
[INFO] SolveP: 454.867 [ms]
time step continuity errors : sum local = 1.51775e-08, global = -1.11401e-21, cumulative = -3.0458e-20
[INFO] ContinuityError: 1.672 [ms]
[INFO] CorrectBoundary: 0.084 [ms]
[INFO] PISOStep: 476.882 [ms]
[INFO] MatrixAssemblyPI: 10.47 [ms]
[INFO] AdjustPhi: 0.681 [ms]
[INFO] ConstrainPressure: 0.003 [ms]
[INFO] MatrixAssemblyPII: 3.342 [ms]
nonePCG:  Solving for p, Initial residual = 0.0558661, Final residual = 9.80407e-05, No Iterations 323
[INFO] SolveP: 441.851 [ms]
time step continuity errors : sum local = 1.42018e-08, global = 5.36967e-21, cumulative = -2.50883e-20
[INFO] ContinuityError: 1.648 [ms]
[INFO] CorrectBoundary: 0.078 [ms]
[INFO] PISOStep: 462.374 [ms]
[INFO] TimeStep: 1053.88 [ms]
ExecutionTime = 15.77 s  ClockTime = 16 s

Time = 0.005

Courant Number mean: 0.0592067 max: 0.472051
[INFO] MatrixAssemblyU: 8.327 [ms]
DILUPBiCGStab:  Solving for Ux, Initial residual = 0.00922205, Final residual = 3.00791e-05, No Iterations 5
DILUPBiCGStab:  Solving for Uy, Initial residual = 0.0197292, Final residual = 4.41646e-05, No Iterations 5
DILUPBiCGStab:  Solving for Uz, Initial residual = 0.038906, Final residual = 0.000108035, No Iterations 5
[INFO] MomentumPredictor: 103.037 [ms]
[INFO] MatrixAssemblyPI: 10.854 [ms]
[INFO] AdjustPhi: 1.176 [ms]
[INFO] ConstrainPressure: 0.003 [ms]
[INFO] MatrixAssemblyPII: 3.392 [ms]
nonePCG:  Solving for p, Initial residual = 0.0447313, Final residual = 9.98141e-05, No Iterations 697
[INFO] SolveP: 949.45 [ms]
time step continuity errors : sum local = 1.41201e-08, global = 1.09384e-20, cumulative = -1.415e-20
[INFO] ContinuityError: 1.936 [ms]
[INFO] CorrectBoundary: 0.352 [ms]
[INFO] PISOStep: 972.063 [ms]
[INFO] MatrixAssemblyPI: 13.027 [ms]
[INFO] AdjustPhi: 1.264 [ms]
[INFO] ConstrainPressure: 0.003 [ms]
[INFO] MatrixAssemblyPII: 3.655 [ms]
nonePCG:  Solving for p, Initial residual = 0.0377469, Final residual = 9.88576e-05, No Iterations 694
[INFO] SolveP: 939.13 [ms]
time step continuity errors : sum local = 1.39912e-08, global = 1.12106e-21, cumulative = -1.30289e-20
[INFO] ContinuityError: 1.753 [ms]
[INFO] CorrectBoundary: 0.077 [ms]
[INFO] PISOStep: 963.187 [ms]
[INFO] TimeStep: 2048.51 [ms]
ExecutionTime = 17.81 s  ClockTime = 18 s

Time = 0.0055

Courant Number mean: 0.0612663 max: 0.473199
[INFO] MatrixAssemblyU: 8.283 [ms]
DILUPBiCGStab:  Solving for Ux, Initial residual = 0.00813993, Final residual = 2.52042e-05, No Iterations 5
DILUPBiCGStab:  Solving for Uy, Initial residual = 0.0174515, Final residual = 3.9344e-05, No Iterations 5
DILUPBiCGStab:  Solving for Uz, Initial residual = 0.0339066, Final residual = 8.2666e-05, No Iterations 5
[INFO] MomentumPredictor: 104.205 [ms]
[INFO] MatrixAssemblyPI: 11.081 [ms]
[INFO] AdjustPhi: 0.933 [ms]
[INFO] ConstrainPressure: 0.003 [ms]
[INFO] MatrixAssemblyPII: 3.48 [ms]
nonePCG:  Solving for p, Initial residual = 0.0351611, Final residual = 9.85948e-05, No Iterations 313
[INFO] SolveP: 427.196 [ms]
time step continuity errors : sum local = 1.42806e-08, global = 1.24056e-21, cumulative = -1.17884e-20
[INFO] ContinuityError: 1.748 [ms]
[INFO] CorrectBoundary: 0.072 [ms]
[INFO] PISOStep: 448.835 [ms]
[INFO] MatrixAssemblyPI: 10.32 [ms]
[INFO] AdjustPhi: 0.744 [ms]
[INFO] ConstrainPressure: 0.003 [ms]
[INFO] MatrixAssemblyPII: 3.412 [ms]
nonePCG:  Solving for p, Initial residual = 0.029869, Final residual = 9.67712e-05, No Iterations 311
[INFO] SolveP: 420.66 [ms]
time step continuity errors : sum local = 1.38268e-08, global = 5.37053e-21, cumulative = -6.41782e-21
[INFO] ContinuityError: 1.689 [ms]
[INFO] CorrectBoundary: 0.068 [ms]
[INFO] PISOStep: 441.109 [ms]
[INFO] TimeStep: 1004.27 [ms]
ExecutionTime = 18.81 s  ClockTime = 19 s

Time = 0.006

Courant Number mean: 0.0631375 max: 0.474175
[INFO] MatrixAssemblyU: 8.255 [ms]
DILUPBiCGStab:  Solving for Ux, Initial residual = 0.00728456, Final residual = 2.20608e-05, No Iterations 5
DILUPBiCGStab:  Solving for Uy, Initial residual = 0.0155809, Final residual = 3.38733e-05, No Iterations 5
DILUPBiCGStab:  Solving for Uz, Initial residual = 0.0305958, Final residual = 6.98503e-05, No Iterations 5
[INFO] MomentumPredictor: 102.827 [ms]
[INFO] MatrixAssemblyPI: 10.648 [ms]
[INFO] AdjustPhi: 1.206 [ms]
[INFO] ConstrainPressure: 0.003 [ms]
[INFO] MatrixAssemblyPII: 3.344 [ms]
nonePCG:  Solving for p, Initial residual = 0.0250686, Final residual = 9.49491e-05, No Iterations 311
[INFO] SolveP: 426.82 [ms]
time step continuity errors : sum local = 1.4451e-08, global = -6.74545e-21, cumulative = -1.31633e-20
[INFO] ContinuityError: 1.867 [ms]
[INFO] CorrectBoundary: 0.087 [ms]
[INFO] PISOStep: 449.778 [ms]
[INFO] MatrixAssemblyPI: 10.686 [ms]
[INFO] AdjustPhi: 0.521 [ms]
[INFO] ConstrainPressure: 0.003 [ms]
[INFO] MatrixAssemblyPII: 4.049 [ms]
nonePCG:  Solving for p, Initial residual = 0.0218757, Final residual = 9.78217e-05, No Iterations 305
[INFO] SolveP: 420.035 [ms]
time step continuity errors : sum local = 1.40008e-08, global = 4.64193e-21, cumulative = -8.52134e-21
[INFO] ContinuityError: 2.367 [ms]
[INFO] CorrectBoundary: 0.06 [ms]
[INFO] PISOStep: 442.945 [ms]
[INFO] TimeStep: 1005.52 [ms]
ExecutionTime = 19.81 s  ClockTime = 20 s

Time = 0.0065

Courant Number mean: 0.0648411 max: 0.475011
[INFO] MatrixAssemblyU: 7.938 [ms]
DILUPBiCGStab:  Solving for Ux, Initial residual = 0.00655461, Final residual = 1.91827e-05, No Iterations 5
DILUPBiCGStab:  Solving for Uy, Initial residual = 0.0140643, Final residual = 3.05475e-05, No Iterations 5
DILUPBiCGStab:  Solving for Uz, Initial residual = 0.0277704, Final residual = 6.50718e-05, No Iterations 5
[INFO] MomentumPredictor: 105.746 [ms]
[INFO] MatrixAssemblyPI: 10.907 [ms]
[INFO] AdjustPhi: 1.605 [ms]
[INFO] ConstrainPressure: 0.003 [ms]
[INFO] MatrixAssemblyPII: 3.683 [ms]
nonePCG:  Solving for p, Initial residual = 0.0207439, Final residual = 9.46601e-05, No Iterations 312
[INFO] SolveP: 422.17 [ms]
time step continuity errors : sum local = 1.42047e-08, global = -1.25359e-20, cumulative = -2.10573e-20
[INFO] ContinuityError: 1.602 [ms]
[INFO] CorrectBoundary: 0.079 [ms]
[INFO] PISOStep: 444.546 [ms]
[INFO] MatrixAssemblyPI: 10.213 [ms]
[INFO] AdjustPhi: 1.028 [ms]
[INFO] ConstrainPressure: 0.003 [ms]
[INFO] MatrixAssemblyPII: 3.464 [ms]
nonePCG:  Solving for p, Initial residual = 0.0182537, Final residual = 9.98867e-05, No Iterations 307
[INFO] SolveP: 420.447 [ms]
time step continuity errors : sum local = 1.43064e-08, global = -4.27859e-21, cumulative = -2.53359e-20
[INFO] ContinuityError: 1.772 [ms]
[INFO] CorrectBoundary: 0.1 [ms]
[INFO] PISOStep: 441.235 [ms]
[INFO] TimeStep: 1001.46 [ms]
ExecutionTime = 20.81 s  ClockTime = 21 s

Time = 0.007

Courant Number mean: 0.0664084 max: 0.47574
[INFO] MatrixAssemblyU: 8.121 [ms]
DILUPBiCGStab:  Solving for Ux, Initial residual = 0.00596104, Final residual = 1.71634e-05, No Iterations 5
DILUPBiCGStab:  Solving for Uy, Initial residual = 0.0127587, Final residual = 2.74969e-05, No Iterations 5
DILUPBiCGStab:  Solving for Uz, Initial residual = 0.0257048, Final residual = 5.95738e-05, No Iterations 5
[INFO] MomentumPredictor: 104.469 [ms]
[INFO] MatrixAssemblyPI: 10.854 [ms]
[INFO] AdjustPhi: 1.033 [ms]
[INFO] ConstrainPressure: 0.003 [ms]
[INFO] MatrixAssemblyPII: 3.418 [ms]
nonePCG:  Solving for p, Initial residual = 0.0162455, Final residual = 9.90037e-05, No Iterations 317
[INFO] SolveP: 429.937 [ms]
time step continuity errors : sum local = 1.56915e-08, global = -4.07655e-21, cumulative = -2.94124e-20
[INFO] ContinuityError: 1.82 [ms]
[INFO] CorrectBoundary: 0.073 [ms]
[INFO] PISOStep: 451.528 [ms]
[INFO] MatrixAssemblyPI: 10.315 [ms]
[INFO] AdjustPhi: 1.004 [ms]
[INFO] ConstrainPressure: 0.003 [ms]
[INFO] MatrixAssemblyPII: 3.494 [ms]
nonePCG:  Solving for p, Initial residual = 0.0147, Final residual = 9.79547e-05, No Iterations 307
[INFO] SolveP: 413.974 [ms]
time step continuity errors : sum local = 1.42353e-08, global = -9.01136e-21, cumulative = -3.84238e-20
[INFO] ContinuityError: 1.712 [ms]
[INFO] CorrectBoundary: 0.081 [ms]
[INFO] PISOStep: 434.755 [ms]
[INFO] TimeStep: 1000.71 [ms]
ExecutionTime = 21.81 s  ClockTime = 22 s

Time = 0.0075

Courant Number mean: 0.067855 max: 0.476379
[INFO] MatrixAssemblyU: 8.235 [ms]
DILUPBiCGStab:  Solving for Ux, Initial residual = 0.00543299, Final residual = 1.52915e-05, No Iterations 5
DILUPBiCGStab:  Solving for Uy, Initial residual = 0.0116832, Final residual = 2.51015e-05, No Iterations 5
DILUPBiCGStab:  Solving for Uz, Initial residual = 0.0236606, Final residual = 6.0686e-05, No Iterations 5
[INFO] MomentumPredictor: 102.372 [ms]
[INFO] MatrixAssemblyPI: 10.952 [ms]
[INFO] AdjustPhi: 0.918 [ms]
[INFO] ConstrainPressure: 0.003 [ms]
[INFO] MatrixAssemblyPII: 3.481 [ms]
nonePCG:  Solving for p, Initial residual = 0.014196, Final residual = 9.90925e-05, No Iterations 318
[INFO] SolveP: 446.719 [ms]
time step continuity errors : sum local = 1.5745e-08, global = -2.045e-21, cumulative = -4.04688e-20
[INFO] ContinuityError: 2.529 [ms]
[INFO] CorrectBoundary: 0.062 [ms]
[INFO] PISOStep: 469.952 [ms]
[INFO] MatrixAssemblyPI: 12.372 [ms]
[INFO] AdjustPhi: 1.211 [ms]
[INFO] ConstrainPressure: 0.003 [ms]
[INFO] MatrixAssemblyPII: 3.343 [ms]
nonePCG:  Solving for p, Initial residual = 0.01293, Final residual = 9.79062e-05, No Iterations 307
[INFO] SolveP: 416.96 [ms]
time step continuity errors : sum local = 1.42486e-08, global = -1.33678e-21, cumulative = -4.18055e-20
[INFO] ContinuityError: 1.728 [ms]
[INFO] CorrectBoundary: 0.071 [ms]
[INFO] PISOStep: 440.383 [ms]
[INFO] TimeStep: 1022.71 [ms]
ExecutionTime = 22.82 s  ClockTime = 23 s

Time = 0.008

Courant Number mean: 0.0691917 max: 0.476947
[INFO] MatrixAssemblyU: 8.15 [ms]
DILUPBiCGStab:  Solving for Ux, Initial residual = 0.00499903, Final residual = 1.38582e-05, No Iterations 5
DILUPBiCGStab:  Solving for Uy, Initial residual = 0.0107149, Final residual = 2.31377e-05, No Iterations 5
DILUPBiCGStab:  Solving for Uz, Initial residual = 0.0222632, Final residual = 6.03544e-05, No Iterations 5
[INFO] MomentumPredictor: 104.666 [ms]
[INFO] MatrixAssemblyPI: 11.134 [ms]
[INFO] AdjustPhi: 1.018 [ms]
[INFO] ConstrainPressure: 0.003 [ms]
[INFO] MatrixAssemblyPII: 3.322 [ms]
nonePCG:  Solving for p, Initial residual = 0.0121896, Final residual = 9.57917e-05, No Iterations 689
[INFO] SolveP: 929.387 [ms]
time step continuity errors : sum local = 1.33952e-08, global = -6.99185e-21, cumulative = -4.87974e-20
[INFO] ContinuityError: 1.648 [ms]
[INFO] CorrectBoundary: 0.078 [ms]
[INFO] PISOStep: 950.804 [ms]
[INFO] MatrixAssemblyPI: 10.3 [ms]
[INFO] AdjustPhi: 0.876 [ms]
[INFO] ConstrainPressure: 0.003 [ms]
[INFO] MatrixAssemblyPII: 3.503 [ms]
nonePCG:  Solving for p, Initial residual = 0.0113208, Final residual = 9.72284e-05, No Iterations 686
[INFO] SolveP: 935.393 [ms]
time step continuity errors : sum local = 1.36014e-08, global = 9.1656e-21, cumulative = -3.96318e-20
[INFO] ContinuityError: 1.645 [ms]
[INFO] CorrectBoundary: 0.086 [ms]
[INFO] PISOStep: 955.996 [ms]
[INFO] TimeStep: 2021.57 [ms]
ExecutionTime = 24.85 s  ClockTime = 25 s

Time = 0.0085

Courant Number mean: 0.0704369 max: 0.477456
[INFO] MatrixAssemblyU: 7.849 [ms]
DILUPBiCGStab:  Solving for Ux, Initial residual = 0.00460167, Final residual = 1.25379e-05, No Iterations 5
DILUPBiCGStab:  Solving for Uy, Initial residual = 0.0098931, Final residual = 2.11712e-05, No Iterations 5
DILUPBiCGStab:  Solving for Uz, Initial residual = 0.0202001, Final residual = 4.47303e-05, No Iterations 5
[INFO] MomentumPredictor: 105.051 [ms]
[INFO] MatrixAssemblyPI: 11.09 [ms]
[INFO] AdjustPhi: 1.156 [ms]
[INFO] ConstrainPressure: 0.004 [ms]
[INFO] MatrixAssemblyPII: 3.495 [ms]
nonePCG:  Solving for p, Initial residual = 0.0109462, Final residual = 9.81319e-05, No Iterations 297
[INFO] SolveP: 402.756 [ms]
time step continuity errors : sum local = 1.45312e-08, global = 2.59006e-21, cumulative = -3.70417e-20
[INFO] ContinuityError: 1.743 [ms]
[INFO] CorrectBoundary: 0.087 [ms]
[INFO] PISOStep: 424.517 [ms]
[INFO] MatrixAssemblyPI: 10.306 [ms]
[INFO] AdjustPhi: 0.843 [ms]
[INFO] ConstrainPressure: 0.004 [ms]
[INFO] MatrixAssemblyPII: 3.397 [ms]
nonePCG:  Solving for p, Initial residual = 0.0102241, Final residual = 9.94814e-05, No Iterations 291
[INFO] SolveP: 399.415 [ms]
time step continuity errors : sum local = 1.42317e-08, global = -1.09893e-20, cumulative = -4.80311e-20
[INFO] ContinuityError: 2.24 [ms]
[INFO] CorrectBoundary: 0.088 [ms]
[INFO] PISOStep: 422.489 [ms]
[INFO] TimeStep: 961.914 [ms]
ExecutionTime = 25.8 s  ClockTime = 26 s

Time = 0.009

Courant Number mean: 0.0715996 max: 0.477912
[INFO] MatrixAssemblyU: 8.748 [ms]
DILUPBiCGStab:  Solving for Ux, Initial residual = 0.00425721, Final residual = 1.14205e-05, No Iterations 5
DILUPBiCGStab:  Solving for Uy, Initial residual = 0.00916528, Final residual = 1.94938e-05, No Iterations 5
DILUPBiCGStab:  Solving for Uz, Initial residual = 0.018696, Final residual = 4.20808e-05, No Iterations 5
[INFO] MomentumPredictor: 103.921 [ms]
[INFO] MatrixAssemblyPI: 11.242 [ms]
[INFO] AdjustPhi: 2.036 [ms]
[INFO] ConstrainPressure: 0.003 [ms]
[INFO] MatrixAssemblyPII: 3.185 [ms]
nonePCG:  Solving for p, Initial residual = 0.00966488, Final residual = 9.68374e-05, No Iterations 298
[INFO] SolveP: 409.605 [ms]
time step continuity errors : sum local = 1.47633e-08, global = 7.38827e-21, cumulative = -4.06428e-20
[INFO] ContinuityError: 1.708 [ms]
[INFO] CorrectBoundary: 0.077 [ms]
[INFO] PISOStep: 432.577 [ms]
[INFO] MatrixAssemblyPI: 10.303 [ms]
[INFO] AdjustPhi: 1.034 [ms]
[INFO] ConstrainPressure: 0.003 [ms]
[INFO] MatrixAssemblyPII: 3.379 [ms]
nonePCG:  Solving for p, Initial residual = 0.00910244, Final residual = 9.96309e-05, No Iterations 289
[INFO] SolveP: 391.87 [ms]
time step continuity errors : sum local = 1.42229e-08, global = -3.03123e-21, cumulative = -4.3674e-20
[INFO] ContinuityError: 1.733 [ms]
[INFO] CorrectBoundary: 0.083 [ms]
[INFO] PISOStep: 412.461 [ms]
[INFO] TimeStep: 959.835 [ms]
ExecutionTime = 26.76 s  ClockTime = 27 s

Time = 0.0095

Courant Number mean: 0.0726862 max: 0.478326
[INFO] MatrixAssemblyU: 8.233 [ms]
DILUPBiCGStab:  Solving for Ux, Initial residual = 0.00394835, Final residual = 1.04551e-05, No Iterations 5
DILUPBiCGStab:  Solving for Uy, Initial residual = 0.00853343, Final residual = 1.80796e-05, No Iterations 5
DILUPBiCGStab:  Solving for Uz, Initial residual = 0.0175038, Final residual = 4.30174e-05, No Iterations 5
[INFO] MomentumPredictor: 103.792 [ms]
[INFO] MatrixAssemblyPI: 11.046 [ms]
[INFO] AdjustPhi: 1.142 [ms]
[INFO] ConstrainPressure: 0.004 [ms]
[INFO] MatrixAssemblyPII: 3.409 [ms]
nonePCG:  Solving for p, Initial residual = 0.00879143, Final residual = 9.76329e-05, No Iterations 306
[INFO] SolveP: 414.841 [ms]
time step continuity errors : sum local = 1.51608e-08, global = -5.25229e-21, cumulative = -4.89263e-20
[INFO] ContinuityError: 1.634 [ms]
[INFO] CorrectBoundary: 0.077 [ms]
[INFO] PISOStep: 436.462 [ms]
[INFO] MatrixAssemblyPI: 10.311 [ms]
[INFO] AdjustPhi: 0.999 [ms]
[INFO] ConstrainPressure: 0.003 [ms]
[INFO] MatrixAssemblyPII: 3.432 [ms]
nonePCG:  Solving for p, Initial residual = 0.00831591, Final residual = 9.87583e-05, No Iterations 296
[INFO] SolveP: 405.568 [ms]
time step continuity errors : sum local = 1.43193e-08, global = 9.48145e-21, cumulative = -3.94448e-20
[INFO] ContinuityError: 1.715 [ms]
[INFO] CorrectBoundary: 0.078 [ms]
[INFO] PISOStep: 426.314 [ms]
[INFO] TimeStep: 976.639 [ms]
ExecutionTime = 27.73 s  ClockTime = 28 s

Time = 0.01

Courant Number mean: 0.0737032 max: 0.478701
[INFO] MatrixAssemblyU: 8.304 [ms]
DILUPBiCGStab:  Solving for Ux, Initial residual = 0.00368386, Final residual = 9.61848e-06, No Iterations 5
DILUPBiCGStab:  Solving for Uy, Initial residual = 0.00794802, Final residual = 1.69716e-05, No Iterations 5
DILUPBiCGStab:  Solving for Uz, Initial residual = 0.0166547, Final residual = 4.33599e-05, No Iterations 5
[INFO] MomentumPredictor: 103.145 [ms]
[INFO] MatrixAssemblyPI: 10.821 [ms]
[INFO] AdjustPhi: 1.198 [ms]
[INFO] ConstrainPressure: 0.003 [ms]
[INFO] MatrixAssemblyPII: 3.518 [ms]
nonePCG:  Solving for p, Initial residual = 0.00833185, Final residual = 9.94539e-05, No Iterations 330
[INFO] SolveP: 446.68 [ms]
time step continuity errors : sum local = 1.61041e-08, global = 1.95421e-21, cumulative = -3.74906e-20
[INFO] ContinuityError: 1.776 [ms]
[INFO] CorrectBoundary: 0.098 [ms]
[INFO] PISOStep: 468.287 [ms]
[INFO] MatrixAssemblyPI: 10.438 [ms]
[INFO] AdjustPhi: 0.856 [ms]
[INFO] ConstrainPressure: 0.003 [ms]
[INFO] MatrixAssemblyPII: 3.33 [ms]
nonePCG:  Solving for p, Initial residual = 0.0078986, Final residual = 9.81022e-05, No Iterations 298
[INFO] SolveP: 402.777 [ms]
time step continuity errors : sum local = 1.43198e-08, global = -1.19657e-21, cumulative = -3.86872e-20
[INFO] ContinuityError: 1.65 [ms]
[INFO] CorrectBoundary: 0.104 [ms]
[INFO] PISOStep: 423.416 [ms]
[INFO] TimeStep: 1004.98 [ms]
ExecutionTime = 28.73 s  ClockTime = 29 s

End

Finalising parallel run
