/*---------------------------------------------------------------------------*\
| =========                 |                                                 |
| \\      /  F ield         | OpenFOAM: The Open Source CFD Toolbox           |
|  \\    /   O peration     | Version:  2306                                  |
|   \\  /    A nd           | Website:  www.openfoam.com                      |
|    \\/     M anipulation  |                                                 |
\*---------------------------------------------------------------------------*/
Build  : c423ebec-20231012 OPENFOAM=2306 version=v2306
Arch   : "LSB;label=32;scalar=64"
Exec   : icoFoam -parallel -case /hkfs/work/workspace/scratch/eq4036-l3d/workspace/92d4b8fbb7d36112b6fb18f88c655808/case
Date   : Dec 30 2023
Time   : 09:52:32
Host   : hkn0715.localdomain
PID    : 2773726
I/O    : uncollated
Case   : /hkfs/work/workspace/scratch/eq4036-l3d/workspace/92d4b8fbb7d36112b6fb18f88c655808/case
nProcs : 8
Hosts  :
(
    (hkn0715.localdomain 8)
)
Pstream initialized with:
    floatTransfer      : false
    nProcsSimpleSum    : 0
    nonBlockingExchange: 0 (tuning: 0)
    exchange algorithm : -1
    commsType          : nonBlocking
    polling iterations : 0
trapFpe: Floating point exception trapping enabled (FOAM_SIGFPE).
fileModificationChecking : Monitoring run-time modified files using timeStampMaster (fileModificationSkew 5, maxFileModificationPolls 20)
allowSystemOperations : Allowing user-supplied system call operations

// * * * * * * * * * * * * * * * * * * * * * * * * * * * * * * * * * * * * * //
Create time

--> FOAM Warning : 
    From void* Foam::dlLibraryTable::openLibrary(const Foam::fileName&, bool)
    in file db/dynamicLibrary/dlLibraryTable/dlLibraryTable.C at line 188
    Could not load "libpetscFoam.so"
libpetscFoam.so: cannot open shared object file: No such file or directory
Create mesh for time = 0


PISO: Operating solver in PISO mode

Reading transportProperties

Reading field p

Reading field U

Reading/calculating face flux field phi


Starting time loop

Time = 0.000166

Courant Number mean: 8.14055e-18 max: 3.11001e-14
[INFO] MatrixAssemblyU: 787.469 [ms]
DILUPBiCGStab:  Solving for Ux, Initial residual = 1, Final residual = 0.0159896, No Iterations 5
DILUPBiCGStab:  Solving for Uy:  solution singularity
DILUPBiCGStab:  Solving for Uz:  solution singularity
[INFO] MomentumPredictor: 2717.49 [ms]
[INFO] MatrixAssemblyPI: 707.127 [ms]
[INFO] AdjustPhi: 32.397 [ms]
[INFO] ConstrainPressure: 0.004 [ms]
[INFO] MatrixAssemblyPII: 219.46 [ms]
[OGL LOG][lduLduBase.H:119] Initialising OGL
	OGL commit:  a2fc0ff+
	Branch: feat/on_device_permute 
	Build type: Release
	Ginkgo version: 1.7.0 ( develop)
	Ginkgo commit: sparse-communicator
	MPI is GPU aware: 1
	Forces host buffer based communication: 0
	CPU ranks per GPU: 1
	Matrix format: Ell
	End OGL_INFO
[OGL LOG][Proc: 0]: global_index_init: 20.657 [ms]
[OGL LOG][Proc: 0]p_local_cols: call_init: 0.668 [ms]
[OGL LOG][Proc: 0]p_local_rows: call_init: 0.213 [ms]
[OGL LOG][Proc: 0]p_local_ldu_map: call_init: 0.469 [ms]
[OGL LOG][Proc: 0]p_local_coeffs: call_init: 4.307 [ms]
[OGL LOG][Proc: 0]p_non_local_cols: call_init: 0.253 [ms]
[OGL LOG][Proc: 0]p_non_local_rows: call_init: 0.368 [ms]
[OGL LOG][Proc: 0]p_non_local_ldu_map: call_init: 0.293 [ms]
[OGL LOG][Proc: 0]p_non_local_coeffs: call_init: 0.218 [ms]
[OGL LOG][Proc: 0]p: init_local_sparsity_pattern: 1097.34 [ms]
[OGL LOG][Proc: 0]p: init_non_local_sparsity_pattern: 2.949 [ms]
[OGL LOG][Proc: 0]p: update_local_matrix_data: 179.529 [ms]
[OGL LOG][Proc: 0]p: update_non_local_matrix_data: 0.413 [ms]
[OGL LOG][Proc: 0]device_partition: call_init: 0.093 [ms]
[OGL LOG][Proc: 0]p_matrix: call_init: 381.055 [ms]
[OGL LOG][Proc: 0]p_rhs: call_init: 3.381 [ms]
[OGL LOG][Proc: 0]p_solution: call_init: 5.117 [ms]
[OGL LOG][Proc: 0]p: init_precond: 0.488 [ms]
[OGL LOG][StoppingCriterion.H:237] Creating stopping criterion with minIter 0 frequency 1
[OGL LOG][Proc: 0]p: generate_solver: 0.031 [ms]
[OGL LOG][Proc: 0]p: solve: 13673.1 [ms]
[OGL LOG][Proc: 0]p: copy_x_back: 11.456 [ms]
[OGL LOG][lduLduBase.H:330] 
Statistics:
	Time per iteration: 5624 [mu s]
	Time per residual norm calculation: 4936.000000 [mu s]
	Time per iteration and DOF: 0.208296 [ns]
	Retrieve results bandwidth 2.356000 [GByte/s]
[OGL LOG][Proc: 0]p: solve_multi_gpu: 14077.1 [ms]
nonecudaGKOCG:  Solving for p, Initial residual = 1, Final residual = 9.81884e-05, No Iterations 2431
[INFO] SolveP: 16811.7 [ms]
time step continuity errors : sum local = 3.97418e-09, global = 2.36984e-21, cumulative = 2.36984e-21
[INFO] ContinuityError: 77.938 [ms]
[INFO] CorrectBoundary: 1.288 [ms]
[INFO] PISOStep: 18137.8 [ms]
[INFO] MatrixAssemblyPI: 693.709 [ms]
[INFO] AdjustPhi: 32.259 [ms]
[INFO] ConstrainPressure: 0.002 [ms]
[INFO] MatrixAssemblyPII: 220.626 [ms]
[OGL LOG][Proc: 0]: global_index_init: 0.016 [ms]
[OGL LOG][Proc: 0]p_local_coeffs: call_update: 0.001 [ms]
[OGL LOG][Proc: 0]p_non_local_coeffs: call_update: 0 [ms]
[OGL LOG][Proc: 0]p: update_local_matrix_data: 137.8 [ms]
[OGL LOG][Proc: 0]p: update_non_local_matrix_data: 0.431 [ms]
[OGL LOG][Proc: 0]p: regenerate_distributed_matrix: 379.234 [ms]
[OGL LOG][Proc: 0]p_matrix: call_update: 388.471 [ms]
[OGL LOG][Proc: 0]p_rhs: call_update: 4.927 [ms]
[OGL LOG][Proc: 0]p: init_precond: 0.04 [ms]
[OGL LOG][StoppingCriterion.H:237] Creating stopping criterion with minIter 1458 frequency 31
[OGL LOG][Proc: 0]p: generate_solver: 0.003 [ms]
[OGL LOG][Proc: 0]p: solve: 10221.1 [ms]
[OGL LOG][Proc: 0]p: copy_x_back: 11.544 [ms]
[OGL LOG][lduLduBase.H:330] 
Statistics:
	Time per iteration: 4225 [mu s]
	Time per residual norm calculation: 1292.000000 [mu s]
	Time per iteration and DOF: 0.156481 [ns]
	Retrieve results bandwidth 2.338000 [GByte/s]
[OGL LOG][Proc: 0]p: solve_multi_gpu: 10632.9 [ms]
nonecudaGKOCG:  Solving for p, Initial residual = 0.809676, Final residual = 9.42823e-05, No Iterations 2419
[INFO] SolveP: 10800.2 [ms]
time step continuity errors : sum local = 4.65664e-09, global = 1.7972e-22, cumulative = 2.54956e-21
[INFO] ContinuityError: 76.278 [ms]
[INFO] CorrectBoundary: 1.086 [ms]
[INFO] PISOStep: 12093 [ms]
[INFO] TimeStep: 33835.5 [ms]
ExecutionTime = 35.25 s  ClockTime = 37 s

Time = 0.000332

Courant Number mean: 0.0128497 max: 0.426563
[INFO] MatrixAssemblyU: 644.644 [ms]
DILUPBiCGStab:  Solving for Ux, Initial residual = 0.116942, Final residual = 0.00923014, No Iterations 5
DILUPBiCGStab:  Solving for Uy, Initial residual = 0.459876, Final residual = 0.0300233, No Iterations 5
DILUPBiCGStab:  Solving for Uz, Initial residual = 0.995324, Final residual = 0.0718333, No Iterations 5
[INFO] MomentumPredictor: 5228.83 [ms]
[INFO] MatrixAssemblyPI: 747.782 [ms]
[INFO] AdjustPhi: 43.837 [ms]
[INFO] ConstrainPressure: 0.002 [ms]
[INFO] MatrixAssemblyPII: 237.509 [ms]
[OGL LOG][Proc: 0]: global_index_init: 0.273 [ms]
[OGL LOG][Proc: 0]p_local_coeffs: call_update: 0 [ms]
[OGL LOG][Proc: 0]p_non_local_coeffs: call_update: 0 [ms]
[OGL LOG][Proc: 0]p: update_local_matrix_data: 148.333 [ms]
[OGL LOG][Proc: 0]p: update_non_local_matrix_data: 0.549 [ms]
[OGL LOG][Proc: 0]p: regenerate_distributed_matrix: 386.947 [ms]
[OGL LOG][Proc: 0]p_matrix: call_update: 389.97 [ms]
[OGL LOG][Proc: 0]p_rhs: call_update: 8.68 [ms]
[OGL LOG][Proc: 0]p: init_precond: 0.029 [ms]
[OGL LOG][StoppingCriterion.H:237] Creating stopping criterion with minIter 1451 frequency 17
[OGL LOG][Proc: 0]p: generate_solver: 0.001 [ms]
[OGL LOG][Proc: 0]p: solve: 10422.5 [ms]
[OGL LOG][Proc: 0]p: copy_x_back: 10.979 [ms]
[OGL LOG][lduLduBase.H:330] 
Statistics:
	Time per iteration: 4377 [mu s]
	Time per residual norm calculation: 1142.000000 [mu s]
	Time per iteration and DOF: 0.162111 [ns]
	Retrieve results bandwidth 2.459000 [GByte/s]
[OGL LOG][Proc: 0]p: solve_multi_gpu: 10836.6 [ms]
nonecudaGKOCG:  Solving for p, Initial residual = 0.878212, Final residual = 9.88352e-05, No Iterations 2381
[INFO] SolveP: 11009.6 [ms]
time step continuity errors : sum local = 9.38943e-09, global = 2.31901e-22, cumulative = 2.78146e-21
[INFO] ContinuityError: 76.841 [ms]
[INFO] CorrectBoundary: 9.941 [ms]
[INFO] PISOStep: 12394.2 [ms]
[INFO] MatrixAssemblyPI: 730.49 [ms]
[INFO] AdjustPhi: 44.481 [ms]
[INFO] ConstrainPressure: 0.003 [ms]
[INFO] MatrixAssemblyPII: 233.333 [ms]
[OGL LOG][Proc: 0]: global_index_init: 0.21 [ms]
[OGL LOG][Proc: 0]p_local_coeffs: call_update: 0 [ms]
[OGL LOG][Proc: 0]p_non_local_coeffs: call_update: 0 [ms]
[OGL LOG][Proc: 0]p: update_local_matrix_data: 148.347 [ms]
[OGL LOG][Proc: 0]p: update_non_local_matrix_data: 0.548 [ms]
[OGL LOG][Proc: 0]p: regenerate_distributed_matrix: 378.286 [ms]
[OGL LOG][Proc: 0]p_matrix: call_update: 380.524 [ms]
[OGL LOG][Proc: 0]p_rhs: call_update: 4.12 [ms]
[OGL LOG][Proc: 0]p: init_precond: 0.035 [ms]
[OGL LOG][StoppingCriterion.H:237] Creating stopping criterion with minIter 1428 frequency 17
[OGL LOG][Proc: 0]p: generate_solver: 0.002 [ms]
[OGL LOG][Proc: 0]p: solve: 10132.1 [ms]
[OGL LOG][Proc: 0]p: copy_x_back: 11.524 [ms]
[OGL LOG][lduLduBase.H:330] 
Statistics:
	Time per iteration: 4255 [mu s]
	Time per residual norm calculation: 1294.000000 [mu s]
	Time per iteration and DOF: 0.157593 [ns]
	Retrieve results bandwidth 2.342000 [GByte/s]
[OGL LOG][Proc: 0]p: solve_multi_gpu: 10530.1 [ms]
nonecudaGKOCG:  Solving for p, Initial residual = 0.826378, Final residual = 8.66877e-05, No Iterations 2381
[INFO] SolveP: 10704.9 [ms]
time step continuity errors : sum local = 8.38753e-09, global = 7.87144e-22, cumulative = 3.56861e-21
[INFO] ContinuityError: 74.654 [ms]
[INFO] CorrectBoundary: 1.085 [ms]
[INFO] PISOStep: 12068.7 [ms]
[INFO] TimeStep: 30412.6 [ms]
ExecutionTime = 65.62 s  ClockTime = 67 s

Time = 0.000498

Courant Number mean: 0.0198261 max: 0.491805
[INFO] MatrixAssemblyU: 647.302 [ms]
DILUPBiCGStab:  Solving for Ux, Initial residual = 0.0544583, Final residual = 0.00348872, No Iterations 5
DILUPBiCGStab:  Solving for Uy, Initial residual = 0.226376, Final residual = 0.0156761, No Iterations 5
DILUPBiCGStab:  Solving for Uz, Initial residual = 0.854956, Final residual = 0.0552623, No Iterations 5
[INFO] MomentumPredictor: 5194.55 [ms]
[INFO] MatrixAssemblyPI: 748.159 [ms]
[INFO] AdjustPhi: 43.943 [ms]
[INFO] ConstrainPressure: 0.002 [ms]
[INFO] MatrixAssemblyPII: 236.443 [ms]
[OGL LOG][Proc: 0]: global_index_init: 0.018 [ms]
[OGL LOG][Proc: 0]p_local_coeffs: call_update: 0 [ms]
[OGL LOG][Proc: 0]p_non_local_coeffs: call_update: 0 [ms]
[OGL LOG][Proc: 0]p: update_local_matrix_data: 147.031 [ms]
[OGL LOG][Proc: 0]p: update_non_local_matrix_data: 0.395 [ms]
[OGL LOG][Proc: 0]p: regenerate_distributed_matrix: 385.344 [ms]
[OGL LOG][Proc: 0]p_matrix: call_update: 388.345 [ms]
[OGL LOG][Proc: 0]p_rhs: call_update: 8.952 [ms]
[OGL LOG][Proc: 0]p: init_precond: 0.028 [ms]
[OGL LOG][StoppingCriterion.H:237] Creating stopping criterion with minIter 1428 frequency 17
[OGL LOG][Proc: 0]p: generate_solver: 0.002 [ms]
[OGL LOG][Proc: 0]p: solve: 6429.24 [ms]
[OGL LOG][Proc: 0]p: copy_x_back: 11.969 [ms]
[OGL LOG][lduLduBase.H:330] 
Statistics:
	Time per iteration: 4499 [mu s]
	Time per residual norm calculation: 1446.000000 [mu s]
	Time per iteration and DOF: 0.166630 [ns]
	Retrieve results bandwidth 2.255000 [GByte/s]
[OGL LOG][Proc: 0]p: solve_multi_gpu: 6840.95 [ms]
nonecudaGKOCG:  Solving for p, Initial residual = 0.913756, Final residual = 6.86945e-05, No Iterations 1429
[INFO] SolveP: 7014 [ms]
time step continuity errors : sum local = 7.64464e-09, global = 1.91379e-22, cumulative = 3.75999e-21
[INFO] ContinuityError: 75.691 [ms]
[INFO] CorrectBoundary: 1.286 [ms]
[INFO] PISOStep: 8395.61 [ms]
[INFO] MatrixAssemblyPI: 727.842 [ms]
[INFO] AdjustPhi: 44.122 [ms]
[INFO] ConstrainPressure: 0.002 [ms]
[INFO] MatrixAssemblyPII: 232.586 [ms]
[OGL LOG][Proc: 0]: global_index_init: 0.145 [ms]
[OGL LOG][Proc: 0]p_local_coeffs: call_update: 0 [ms]
[OGL LOG][Proc: 0]p_non_local_coeffs: call_update: 0 [ms]
[OGL LOG][Proc: 0]p: update_local_matrix_data: 146.442 [ms]
[OGL LOG][Proc: 0]p: update_non_local_matrix_data: 0.554 [ms]
[OGL LOG][Proc: 0]p: regenerate_distributed_matrix: 378.246 [ms]
[OGL LOG][Proc: 0]p_matrix: call_update: 381.316 [ms]
[OGL LOG][Proc: 0]p_rhs: call_update: 4.206 [ms]
[OGL LOG][Proc: 0]p: init_precond: 0.033 [ms]
[OGL LOG][StoppingCriterion.H:237] Creating stopping criterion with minIter 857 frequency 13
[OGL LOG][Proc: 0]p: generate_solver: 0.002 [ms]
[OGL LOG][Proc: 0]p: solve: 5025.65 [ms]
[OGL LOG][Proc: 0]p: copy_x_back: 10.71 [ms]
[OGL LOG][lduLduBase.H:330] 
Statistics:
	Time per iteration: 4339 [mu s]
	Time per residual norm calculation: 1290.000000 [mu s]
	Time per iteration and DOF: 0.160704 [ns]
	Retrieve results bandwidth 2.521000 [GByte/s]
[OGL LOG][Proc: 0]p: solve_multi_gpu: 5423.17 [ms]
nonecudaGKOCG:  Solving for p, Initial residual = 0.882697, Final residual = 8.71819e-05, No Iterations 1158
[INFO] SolveP: 5592.55 [ms]
time step continuity errors : sum local = 9.11456e-09, global = 8.12934e-22, cumulative = 4.57292e-21
[INFO] ContinuityError: 76.441 [ms]
[INFO] CorrectBoundary: 0.953 [ms]
[INFO] PISOStep: 6942.37 [ms]
[INFO] TimeStep: 21255.5 [ms]
ExecutionTime = 86.84 s  ClockTime = 88 s

Time = 0.000664

Courant Number mean: 0.0239197 max: 0.47201
[INFO] MatrixAssemblyU: 646.406 [ms]
DILUPBiCGStab:  Solving for Ux, Initial residual = 0.0384976, Final residual = 0.00279683, No Iterations 5
DILUPBiCGStab:  Solving for Uy, Initial residual = 0.174095, Final residual = 0.012598, No Iterations 5
DILUPBiCGStab:  Solving for Uz, Initial residual = 0.730055, Final residual = 0.0385508, No Iterations 5
[INFO] MomentumPredictor: 5191.34 [ms]
[INFO] MatrixAssemblyPI: 743.418 [ms]
[INFO] AdjustPhi: 44.588 [ms]
[INFO] ConstrainPressure: 0.002 [ms]
[INFO] MatrixAssemblyPII: 236.508 [ms]
[OGL LOG][Proc: 0]: global_index_init: 0.452 [ms]
[OGL LOG][Proc: 0]p_local_coeffs: call_update: 0 [ms]
[OGL LOG][Proc: 0]p_non_local_coeffs: call_update: 0 [ms]
[OGL LOG][Proc: 0]p: update_local_matrix_data: 157.25 [ms]
[OGL LOG][Proc: 0]p: update_non_local_matrix_data: 0.407 [ms]
[OGL LOG][Proc: 0]p: regenerate_distributed_matrix: 385.651 [ms]
[OGL LOG][Proc: 0]p_matrix: call_update: 388.374 [ms]
[OGL LOG][Proc: 0]p_rhs: call_update: 8.883 [ms]
[OGL LOG][Proc: 0]p: init_precond: 0.035 [ms]
[OGL LOG][StoppingCriterion.H:237] Creating stopping criterion with minIter 694 frequency 12
[OGL LOG][Proc: 0]p: generate_solver: 0.001 [ms]
[OGL LOG][Proc: 0]p: solve: 5076.12 [ms]
[OGL LOG][Proc: 0]p: copy_x_back: 11.621 [ms]
[OGL LOG][lduLduBase.H:330] 
Statistics:
	Time per iteration: 4357 [mu s]
	Time per residual norm calculation: 1442.000000 [mu s]
	Time per iteration and DOF: 0.161370 [ns]
	Retrieve results bandwidth 2.323000 [GByte/s]
[OGL LOG][Proc: 0]p: solve_multi_gpu: 5487.04 [ms]
nonecudaGKOCG:  Solving for p, Initial residual = 0.890268, Final residual = 9.14874e-05, No Iterations 1165
[INFO] SolveP: 5670.27 [ms]
time step continuity errors : sum local = 1.09566e-08, global = -1.66422e-22, cumulative = 4.4065e-21
[INFO] ContinuityError: 75.214 [ms]
[INFO] CorrectBoundary: 5.36 [ms]
[INFO] PISOStep: 7045.88 [ms]
[INFO] MatrixAssemblyPI: 725.459 [ms]
[INFO] AdjustPhi: 44.045 [ms]
[INFO] ConstrainPressure: 0.003 [ms]
[INFO] MatrixAssemblyPII: 231.984 [ms]
[OGL LOG][Proc: 0]: global_index_init: 0.262 [ms]
[OGL LOG][Proc: 0]p_local_coeffs: call_update: 0 [ms]
[OGL LOG][Proc: 0]p_non_local_coeffs: call_update: 0 [ms]
[OGL LOG][Proc: 0]p: update_local_matrix_data: 145.903 [ms]
[OGL LOG][Proc: 0]p: update_non_local_matrix_data: 0.543 [ms]
[OGL LOG][Proc: 0]p: regenerate_distributed_matrix: 379.03 [ms]
[OGL LOG][Proc: 0]p_matrix: call_update: 381.654 [ms]
[OGL LOG][Proc: 0]p_rhs: call_update: 4.234 [ms]
[OGL LOG][Proc: 0]p: init_precond: 0.026 [ms]
[OGL LOG][StoppingCriterion.H:237] Creating stopping criterion with minIter 699 frequency 12
[OGL LOG][Proc: 0]p: generate_solver: 0.002 [ms]
[OGL LOG][Proc: 0]p: solve: 5322.07 [ms]
[OGL LOG][Proc: 0]p: copy_x_back: 11.028 [ms]
[OGL LOG][lduLduBase.H:330] 
Statistics:
	Time per iteration: 4615 [mu s]
	Time per residual norm calculation: 1290.000000 [mu s]
	Time per iteration and DOF: 0.170926 [ns]
	Retrieve results bandwidth 2.448000 [GByte/s]
[OGL LOG][Proc: 0]p: solve_multi_gpu: 5720.44 [ms]
nonecudaGKOCG:  Solving for p, Initial residual = 0.830211, Final residual = 8.4972e-05, No Iterations 1153
[INFO] SolveP: 5892.69 [ms]
time step continuity errors : sum local = 9.85286e-09, global = 6.61528e-22, cumulative = 5.06803e-21
[INFO] ContinuityError: 74.931 [ms]
[INFO] CorrectBoundary: 0.877 [ms]
[INFO] PISOStep: 7242.19 [ms]
[INFO] TimeStep: 20202.8 [ms]
ExecutionTime = 106.99 s  ClockTime = 109 s

Time = 0.00083

Courant Number mean: 0.0274473 max: 0.504974
[INFO] MatrixAssemblyU: 647.181 [ms]
DILUPBiCGStab:  Solving for Ux, Initial residual = 0.032396, Final residual = 0.00238071, No Iterations 5
DILUPBiCGStab:  Solving for Uy, Initial residual = 0.129655, Final residual = 0.0105548, No Iterations 5
DILUPBiCGStab:  Solving for Uz, Initial residual = 0.676262, Final residual = 0.0332712, No Iterations 5
[INFO] MomentumPredictor: 5178.87 [ms]
[INFO] MatrixAssemblyPI: 742.463 [ms]
[INFO] AdjustPhi: 43.93 [ms]
[INFO] ConstrainPressure: 0.003 [ms]
[INFO] MatrixAssemblyPII: 237.174 [ms]
[OGL LOG][Proc: 0]: global_index_init: 0.254 [ms]
[OGL LOG][Proc: 0]p_local_coeffs: call_update: 0 [ms]
[OGL LOG][Proc: 0]p_non_local_coeffs: call_update: 0 [ms]
[OGL LOG][Proc: 0]p: update_local_matrix_data: 148.08 [ms]
[OGL LOG][Proc: 0]p: update_non_local_matrix_data: 0.417 [ms]
[OGL LOG][Proc: 0]p: regenerate_distributed_matrix: 386.231 [ms]
[OGL LOG][Proc: 0]p_matrix: call_update: 388.917 [ms]
[OGL LOG][Proc: 0]p_rhs: call_update: 8.712 [ms]
[OGL LOG][Proc: 0]p: init_precond: 0.026 [ms]
[OGL LOG][StoppingCriterion.H:237] Creating stopping criterion with minIter 691 frequency 12
[OGL LOG][Proc: 0]p: generate_solver: 0.002 [ms]
[OGL LOG][Proc: 0]p: solve: 10223 [ms]
[OGL LOG][Proc: 0]p: copy_x_back: 11.034 [ms]
[OGL LOG][lduLduBase.H:330] 
Statistics:
	Time per iteration: 4300 [mu s]
	Time per residual norm calculation: 1146.000000 [mu s]
	Time per iteration and DOF: 0.159259 [ns]
	Retrieve results bandwidth 2.446000 [GByte/s]
[OGL LOG][Proc: 0]p: solve_multi_gpu: 10633 [ms]
nonecudaGKOCG:  Solving for p, Initial residual = 0.910495, Final residual = 9.87688e-05, No Iterations 2377
[INFO] SolveP: 10803.3 [ms]
time step continuity errors : sum local = 1.08925e-08, global = 8.42452e-23, cumulative = 5.15227e-21
[INFO] ContinuityError: 78.707 [ms]
[INFO] CorrectBoundary: 0.938 [ms]
[INFO] PISOStep: 12178.9 [ms]
[INFO] MatrixAssemblyPI: 728.596 [ms]
[INFO] AdjustPhi: 44.107 [ms]
[INFO] ConstrainPressure: 0.003 [ms]
[INFO] MatrixAssemblyPII: 232.282 [ms]
[OGL LOG][Proc: 0]: global_index_init: 0.452 [ms]
[OGL LOG][Proc: 0]p_local_coeffs: call_update: 0 [ms]
[OGL LOG][Proc: 0]p_non_local_coeffs: call_update: 0 [ms]
[OGL LOG][Proc: 0]p: update_local_matrix_data: 146.26 [ms]
[OGL LOG][Proc: 0]p: update_non_local_matrix_data: 0.409 [ms]
[OGL LOG][Proc: 0]p: regenerate_distributed_matrix: 377.565 [ms]
[OGL LOG][Proc: 0]p_matrix: call_update: 380.318 [ms]
[OGL LOG][Proc: 0]p_rhs: call_update: 4.353 [ms]
[OGL LOG][Proc: 0]p: init_precond: 0.027 [ms]
[OGL LOG][StoppingCriterion.H:237] Creating stopping criterion with minIter 1426 frequency 17
[OGL LOG][Proc: 0]p: generate_solver: 0.001 [ms]
[OGL LOG][Proc: 0]p: solve: 10433 [ms]
[OGL LOG][Proc: 0]p: copy_x_back: 10.741 [ms]
[OGL LOG][lduLduBase.H:330] 
Statistics:
	Time per iteration: 4381 [mu s]
	Time per residual norm calculation: 1293.000000 [mu s]
	Time per iteration and DOF: 0.162259 [ns]
	Retrieve results bandwidth 2.513000 [GByte/s]
[OGL LOG][Proc: 0]p: solve_multi_gpu: 10830 [ms]
nonecudaGKOCG:  Solving for p, Initial residual = 0.872708, Final residual = 8.24245e-05, No Iterations 2381
[INFO] SolveP: 11002.6 [ms]
time step continuity errors : sum local = 8.97316e-09, global = 4.12281e-22, cumulative = 5.56455e-21
[INFO] ContinuityError: 77.833 [ms]
[INFO] CorrectBoundary: 2.264 [ms]
[INFO] PISOStep: 12360.4 [ms]
[INFO] TimeStep: 30441.3 [ms]
ExecutionTime = 137.37 s  ClockTime = 139 s

Time = 0.000996

Courant Number mean: 0.0301893 max: 0.47838
[INFO] MatrixAssemblyU: 645.552 [ms]
DILUPBiCGStab:  Solving for Ux, Initial residual = 0.0270649, Final residual = 0.00213757, No Iterations 5
DILUPBiCGStab:  Solving for Uy, Initial residual = 0.111896, Final residual = 0.00833883, No Iterations 5
DILUPBiCGStab:  Solving for Uz, Initial residual = 0.579705, Final residual = 0.0255786, No Iterations 5
[INFO] MomentumPredictor: 5183.81 [ms]
[INFO] MatrixAssemblyPI: 744.436 [ms]
[INFO] AdjustPhi: 47.656 [ms]
[INFO] ConstrainPressure: 0.002 [ms]
[INFO] MatrixAssemblyPII: 237.057 [ms]
[OGL LOG][Proc: 0]: global_index_init: 0.204 [ms]
[OGL LOG][Proc: 0]p_local_coeffs: call_update: 0 [ms]
[OGL LOG][Proc: 0]p_non_local_coeffs: call_update: 0 [ms]
[OGL LOG][Proc: 0]p: update_local_matrix_data: 153.021 [ms]
[OGL LOG][Proc: 0]p: update_non_local_matrix_data: 0.587 [ms]
[OGL LOG][Proc: 0]p: regenerate_distributed_matrix: 386.298 [ms]
[OGL LOG][Proc: 0]p_matrix: call_update: 388.605 [ms]
[OGL LOG][Proc: 0]p_rhs: call_update: 8.824 [ms]
[OGL LOG][Proc: 0]p: init_precond: 0.041 [ms]
[OGL LOG][StoppingCriterion.H:237] Creating stopping criterion with minIter 1428 frequency 17
[OGL LOG][Proc: 0]p: generate_solver: 0.002 [ms]
[OGL LOG][Proc: 0]p: solve: 10131.9 [ms]
[OGL LOG][Proc: 0]p: copy_x_back: 11.038 [ms]
[OGL LOG][lduLduBase.H:330] 
Statistics:
	Time per iteration: 4255 [mu s]
	Time per residual norm calculation: 1295.000000 [mu s]
	Time per iteration and DOF: 0.157593 [ns]
	Retrieve results bandwidth 2.446000 [GByte/s]
[OGL LOG][Proc: 0]p: solve_multi_gpu: 10541.6 [ms]
nonecudaGKOCG:  Solving for p, Initial residual = 0.887864, Final residual = 7.84197e-05, No Iterations 2381
[INFO] SolveP: 10717 [ms]
time step continuity errors : sum local = 8.82371e-09, global = 1.58379e-22, cumulative = 5.72293e-21
[INFO] ContinuityError: 81.027 [ms]
[INFO] CorrectBoundary: 0.965 [ms]
[INFO] PISOStep: 12096.3 [ms]
[INFO] MatrixAssemblyPI: 727.278 [ms]
[INFO] AdjustPhi: 43.882 [ms]
[INFO] ConstrainPressure: 0.003 [ms]
[INFO] MatrixAssemblyPII: 233.082 [ms]
[OGL LOG][Proc: 0]: global_index_init: 0.216 [ms]
[OGL LOG][Proc: 0]p_local_coeffs: call_update: 0 [ms]
[OGL LOG][Proc: 0]p_non_local_coeffs: call_update: 0 [ms]
[OGL LOG][Proc: 0]p: update_local_matrix_data: 143.927 [ms]
[OGL LOG][Proc: 0]p: update_non_local_matrix_data: 0.409 [ms]
[OGL LOG][Proc: 0]p: regenerate_distributed_matrix: 378.577 [ms]
[OGL LOG][Proc: 0]p_matrix: call_update: 381.489 [ms]
[OGL LOG][Proc: 0]p_rhs: call_update: 4.124 [ms]
[OGL LOG][Proc: 0]p: init_precond: 0.032 [ms]
[OGL LOG][StoppingCriterion.H:237] Creating stopping criterion with minIter 1428 frequency 17
[OGL LOG][Proc: 0]p: generate_solver: 0.002 [ms]
[OGL LOG][Proc: 0]p: solve: 10432.8 [ms]
[OGL LOG][Proc: 0]p: copy_x_back: 10.758 [ms]
[OGL LOG][lduLduBase.H:330] 
Statistics:
	Time per iteration: 4381 [mu s]
	Time per residual norm calculation: 1140.000000 [mu s]
	Time per iteration and DOF: 0.162259 [ns]
	Retrieve results bandwidth 2.509000 [GByte/s]
[OGL LOG][Proc: 0]p: solve_multi_gpu: 10830.2 [ms]
nonecudaGKOCG:  Solving for p, Initial residual = 0.824753, Final residual = 7.53369e-05, No Iterations 2381
[INFO] SolveP: 10998.4 [ms]
time step continuity errors : sum local = 8.60598e-09, global = 4.74904e-22, cumulative = 6.19784e-21
[INFO] ContinuityError: 78.43 [ms]
[INFO] CorrectBoundary: 4.578 [ms]
[INFO] PISOStep: 12352.8 [ms]
[INFO] TimeStep: 30353.8 [ms]
ExecutionTime = 167.68 s  ClockTime = 169 s

Time = 0.001162

Courant Number mean: 0.0326682 max: 0.511866
[INFO] MatrixAssemblyU: 644.057 [ms]
DILUPBiCGStab:  Solving for Ux, Initial residual = 0.0245506, Final residual = 0.00196808, No Iterations 5
DILUPBiCGStab:  Solving for Uy, Initial residual = 0.0982925, Final residual = 0.0076925, No Iterations 5
DILUPBiCGStab:  Solving for Uz, Initial residual = 0.552989, Final residual = 0.0227987, No Iterations 5
[INFO] MomentumPredictor: 5192.15 [ms]
[INFO] MatrixAssemblyPI: 753.299 [ms]
[INFO] AdjustPhi: 44.215 [ms]
[INFO] ConstrainPressure: 0.003 [ms]
[INFO] MatrixAssemblyPII: 237.685 [ms]
[OGL LOG][Proc: 0]: global_index_init: 0.446 [ms]
[OGL LOG][Proc: 0]p_local_coeffs: call_update: 0 [ms]
[OGL LOG][Proc: 0]p_non_local_coeffs: call_update: 0 [ms]
[OGL LOG][Proc: 0]p: update_local_matrix_data: 146.962 [ms]
[OGL LOG][Proc: 0]p: update_non_local_matrix_data: 0.55 [ms]
[OGL LOG][Proc: 0]p: regenerate_distributed_matrix: 384.551 [ms]
[OGL LOG][Proc: 0]p_matrix: call_update: 387.506 [ms]
[OGL LOG][Proc: 0]p_rhs: call_update: 8.674 [ms]
[OGL LOG][Proc: 0]p: init_precond: 0.027 [ms]
[OGL LOG][StoppingCriterion.H:237] Creating stopping criterion with minIter 1428 frequency 17
[OGL LOG][Proc: 0]p: generate_solver: 0.002 [ms]
[OGL LOG][Proc: 0]p: solve: 9768.83 [ms]
[OGL LOG][Proc: 0]p: copy_x_back: 10.796 [ms]
[OGL LOG][lduLduBase.H:330] 
Statistics:
	Time per iteration: 4254 [mu s]
	Time per residual norm calculation: 1146.000000 [mu s]
	Time per iteration and DOF: 0.157556 [ns]
	Retrieve results bandwidth 2.500000 [GByte/s]
[OGL LOG][Proc: 0]p: solve_multi_gpu: 10177.1 [ms]
nonecudaGKOCG:  Solving for p, Initial residual = 0.905803, Final residual = 8.76793e-05, No Iterations 2296
[INFO] SolveP: 10350 [ms]
time step continuity errors : sum local = 9.61903e-09, global = -2.22789e-23, cumulative = 6.17556e-21
[INFO] ContinuityError: 76.848 [ms]
[INFO] CorrectBoundary: 1.024 [ms]
[INFO] PISOStep: 11730.8 [ms]
[INFO] MatrixAssemblyPI: 724.468 [ms]
[INFO] AdjustPhi: 44.046 [ms]
[INFO] ConstrainPressure: 0.003 [ms]
[INFO] MatrixAssemblyPII: 231.238 [ms]
[OGL LOG][Proc: 0]: global_index_init: 0.27 [ms]
[OGL LOG][Proc: 0]p_local_coeffs: call_update: 0 [ms]
[OGL LOG][Proc: 0]p_non_local_coeffs: call_update: 0 [ms]
[OGL LOG][Proc: 0]p: update_local_matrix_data: 145.712 [ms]
[OGL LOG][Proc: 0]p: update_non_local_matrix_data: 0.382 [ms]
[OGL LOG][Proc: 0]p: regenerate_distributed_matrix: 379.27 [ms]
[OGL LOG][Proc: 0]p_matrix: call_update: 381.935 [ms]
[OGL LOG][Proc: 0]p_rhs: call_update: 4.191 [ms]
[OGL LOG][Proc: 0]p: init_precond: 0.028 [ms]
[OGL LOG][StoppingCriterion.H:237] Creating stopping criterion with minIter 1377 frequency 17
[OGL LOG][Proc: 0]p: generate_solver: 0.002 [ms]
[OGL LOG][Proc: 0]p: solve: 10074.9 [ms]
[OGL LOG][Proc: 0]p: copy_x_back: 11.154 [ms]
[OGL LOG][lduLduBase.H:330] 
Statistics:
	Time per iteration: 4388 [mu s]
	Time per residual norm calculation: 1438.000000 [mu s]
	Time per iteration and DOF: 0.162519 [ns]
	Retrieve results bandwidth 2.420000 [GByte/s]
[OGL LOG][Proc: 0]p: solve_multi_gpu: 10473.5 [ms]
nonecudaGKOCG:  Solving for p, Initial residual = 0.860969, Final residual = 9.29763e-05, No Iterations 2296
[INFO] SolveP: 10641.8 [ms]
time step continuity errors : sum local = 1.00886e-08, global = -1.30326e-22, cumulative = 6.04523e-21
[INFO] ContinuityError: 79.832 [ms]
[INFO] CorrectBoundary: 0.965 [ms]
[INFO] PISOStep: 11991.2 [ms]
[INFO] TimeStep: 29633.8 [ms]
ExecutionTime = 197.25 s  ClockTime = 199 s

Time = 0.001328

Courant Number mean: 0.034753 max: 0.481308
[INFO] MatrixAssemblyU: 646.201 [ms]
DILUPBiCGStab:  Solving for Ux, Initial residual = 0.0221223, Final residual = 0.00183361, No Iterations 5
DILUPBiCGStab:  Solving for Uy, Initial residual = 0.0870734, Final residual = 0.00645283, No Iterations 5
DILUPBiCGStab:  Solving for Uz, Initial residual = 0.509833, Final residual = 0.0204305, No Iterations 5
[INFO] MomentumPredictor: 5182.37 [ms]
[INFO] MatrixAssemblyPI: 747.298 [ms]
[INFO] AdjustPhi: 44.163 [ms]
[INFO] ConstrainPressure: 0.003 [ms]
[INFO] MatrixAssemblyPII: 236.882 [ms]
[OGL LOG][Proc: 0]: global_index_init: 0.166 [ms]
[OGL LOG][Proc: 0]p_local_coeffs: call_update: 0 [ms]
[OGL LOG][Proc: 0]p_non_local_coeffs: call_update: 0 [ms]
[OGL LOG][Proc: 0]p: update_local_matrix_data: 146.272 [ms]
[OGL LOG][Proc: 0]p: update_non_local_matrix_data: 0.405 [ms]
[OGL LOG][Proc: 0]p: regenerate_distributed_matrix: 385.558 [ms]
[OGL LOG][Proc: 0]p_matrix: call_update: 387.774 [ms]
[OGL LOG][Proc: 0]p_rhs: call_update: 9.351 [ms]
[OGL LOG][Proc: 0]p: init_precond: 0.03 [ms]
[OGL LOG][StoppingCriterion.H:237] Creating stopping criterion with minIter 1377 frequency 17
[OGL LOG][Proc: 0]p: generate_solver: 0.001 [ms]
[OGL LOG][Proc: 0]p: solve: 9847.96 [ms]
[OGL LOG][Proc: 0]p: copy_x_back: 10.837 [ms]
[OGL LOG][lduLduBase.H:330] 
Statistics:
	Time per iteration: 4257 [mu s]
	Time per residual norm calculation: 1294.000000 [mu s]
	Time per iteration and DOF: 0.157667 [ns]
	Retrieve results bandwidth 2.491000 [GByte/s]
[OGL LOG][Proc: 0]p: solve_multi_gpu: 10258.8 [ms]
nonecudaGKOCG:  Solving for p, Initial residual = 0.883734, Final residual = 9.68663e-05, No Iterations 2313
[INFO] SolveP: 10428.1 [ms]
time step continuity errors : sum local = 1.07935e-08, global = 1.03504e-21, cumulative = 7.08028e-21
[INFO] ContinuityError: 78.319 [ms]
[INFO] CorrectBoundary: 5.017 [ms]
[INFO] PISOStep: 11806.1 [ms]
[INFO] MatrixAssemblyPI: 723.426 [ms]
[INFO] AdjustPhi: 44.338 [ms]
[INFO] ConstrainPressure: 0.003 [ms]
[INFO] MatrixAssemblyPII: 235.408 [ms]
[OGL LOG][Proc: 0]: global_index_init: 0.276 [ms]
[OGL LOG][Proc: 0]p_local_coeffs: call_update: 0 [ms]
[OGL LOG][Proc: 0]p_non_local_coeffs: call_update: 0 [ms]
[OGL LOG][Proc: 0]p: update_local_matrix_data: 146.507 [ms]
[OGL LOG][Proc: 0]p: update_non_local_matrix_data: 0.533 [ms]
[OGL LOG][Proc: 0]p: regenerate_distributed_matrix: 379.214 [ms]
[OGL LOG][Proc: 0]p_matrix: call_update: 382.183 [ms]
[OGL LOG][Proc: 0]p_rhs: call_update: 4.222 [ms]
[OGL LOG][Proc: 0]p: init_precond: 0.027 [ms]
[OGL LOG][StoppingCriterion.H:237] Creating stopping criterion with minIter 1387 frequency 17
[OGL LOG][Proc: 0]p: generate_solver: 0.002 [ms]
[OGL LOG][Proc: 0]p: solve: 10142.1 [ms]
[OGL LOG][Proc: 0]p: copy_x_back: 11.082 [ms]
[OGL LOG][lduLduBase.H:330] 
Statistics:
	Time per iteration: 4384 [mu s]
	Time per residual norm calculation: 1147.000000 [mu s]
	Time per iteration and DOF: 0.162370 [ns]
	Retrieve results bandwidth 2.436000 [GByte/s]
[OGL LOG][Proc: 0]p: solve_multi_gpu: 10541.3 [ms]
nonecudaGKOCG:  Solving for p, Initial residual = 0.817885, Final residual = 9.16471e-05, No Iterations 2313
[INFO] SolveP: 10714.4 [ms]
time step continuity errors : sum local = 1.03528e-08, global = 1.01569e-21, cumulative = 8.09597e-21
[INFO] ContinuityError: 74.383 [ms]
[INFO] CorrectBoundary: 1.081 [ms]
[INFO] PISOStep: 12068.1 [ms]
[INFO] TimeStep: 29782.7 [ms]
ExecutionTime = 226.98 s  ClockTime = 229 s

Time = 0.001494

Courant Number mean: 0.036702 max: 0.518002
[INFO] MatrixAssemblyU: 646.194 [ms]
DILUPBiCGStab:  Solving for Ux, Initial residual = 0.0205467, Final residual = 0.00171312, No Iterations 5
DILUPBiCGStab:  Solving for Uy, Initial residual = 0.0819329, Final residual = 0.00611177, No Iterations 5
DILUPBiCGStab:  Solving for Uz, Initial residual = 0.505881, Final residual = 0.0192088, No Iterations 5
[INFO] MomentumPredictor: 5182.51 [ms]
[INFO] MatrixAssemblyPI: 746.488 [ms]
[INFO] AdjustPhi: 51.509 [ms]
[INFO] ConstrainPressure: 0.003 [ms]
[INFO] MatrixAssemblyPII: 236.521 [ms]
[OGL LOG][Proc: 0]: global_index_init: 0.327 [ms]
[OGL LOG][Proc: 0]p_local_coeffs: call_update: 0 [ms]
[OGL LOG][Proc: 0]p_non_local_coeffs: call_update: 0 [ms]
[OGL LOG][Proc: 0]p: update_local_matrix_data: 150.462 [ms]
[OGL LOG][Proc: 0]p: update_non_local_matrix_data: 0.395 [ms]
[OGL LOG][Proc: 0]p: regenerate_distributed_matrix: 386.91 [ms]
[OGL LOG][Proc: 0]p_matrix: call_update: 389.675 [ms]
[OGL LOG][Proc: 0]p_rhs: call_update: 8.836 [ms]
[OGL LOG][Proc: 0]p: init_precond: 0.026 [ms]
[OGL LOG][StoppingCriterion.H:237] Creating stopping criterion with minIter 1387 frequency 17
[OGL LOG][Proc: 0]p: generate_solver: 0.001 [ms]
[OGL LOG][Proc: 0]p: solve: 8910.26 [ms]
[OGL LOG][Proc: 0]p: copy_x_back: 11.013 [ms]
[OGL LOG][lduLduBase.H:330] 
Statistics:
	Time per iteration: 4259 [mu s]
	Time per residual norm calculation: 1292.000000 [mu s]
	Time per iteration and DOF: 0.157741 [ns]
	Retrieve results bandwidth 2.451000 [GByte/s]
[OGL LOG][Proc: 0]p: solve_multi_gpu: 9321.4 [ms]
nonecudaGKOCG:  Solving for p, Initial residual = 0.90164, Final residual = 9.91686e-05, No Iterations 2092
[INFO] SolveP: 9493.62 [ms]
time step continuity errors : sum local = 1.08226e-08, global = 1.02263e-22, cumulative = 8.19823e-21
[INFO] ContinuityError: 79.457 [ms]
[INFO] CorrectBoundary: 1.015 [ms]
[INFO] PISOStep: 10881.3 [ms]
[INFO] MatrixAssemblyPI: 723.425 [ms]
[INFO] AdjustPhi: 44.099 [ms]
[INFO] ConstrainPressure: 0.003 [ms]
[INFO] MatrixAssemblyPII: 232.824 [ms]
[OGL LOG][Proc: 0]: global_index_init: 0.238 [ms]
[OGL LOG][Proc: 0]p_local_coeffs: call_update: 0 [ms]
[OGL LOG][Proc: 0]p_non_local_coeffs: call_update: 0 [ms]
[OGL LOG][Proc: 0]p: update_local_matrix_data: 143.438 [ms]
[OGL LOG][Proc: 0]p: update_non_local_matrix_data: 0.375 [ms]
[OGL LOG][Proc: 0]p: regenerate_distributed_matrix: 378.44 [ms]
[OGL LOG][Proc: 0]p_matrix: call_update: 380.401 [ms]
[OGL LOG][Proc: 0]p_rhs: call_update: 4.916 [ms]
[OGL LOG][Proc: 0]p: init_precond: 0.028 [ms]
[OGL LOG][StoppingCriterion.H:237] Creating stopping criterion with minIter 1255 frequency 16
[OGL LOG][Proc: 0]p: generate_solver: 0.002 [ms]
[OGL LOG][Proc: 0]p: solve: 8879.65 [ms]
[OGL LOG][Proc: 0]p: copy_x_back: 10.939 [ms]
[OGL LOG][lduLduBase.H:330] 
Statistics:
	Time per iteration: 4267 [mu s]
	Time per residual norm calculation: 1143.000000 [mu s]
	Time per iteration and DOF: 0.158037 [ns]
	Retrieve results bandwidth 2.468000 [GByte/s]
[OGL LOG][Proc: 0]p: solve_multi_gpu: 9279.76 [ms]
nonecudaGKOCG:  Solving for p, Initial residual = 0.851746, Final residual = 9.99525e-05, No Iterations 2081
[INFO] SolveP: 9446.38 [ms]
time step continuity errors : sum local = 1.08012e-08, global = 8.72309e-22, cumulative = 9.07054e-21
[INFO] ContinuityError: 80.092 [ms]
[INFO] CorrectBoundary: 0.975 [ms]
[INFO] PISOStep: 10796.2 [ms]
[INFO] TimeStep: 27581.7 [ms]
ExecutionTime = 254.51 s  ClockTime = 256 s

Time = 0.00166

Courant Number mean: 0.0383957 max: 0.483672
[INFO] MatrixAssemblyU: 646.995 [ms]
DILUPBiCGStab:  Solving for Ux, Initial residual = 0.0193384, Final residual = 0.00162674, No Iterations 5
DILUPBiCGStab:  Solving for Uy, Initial residual = 0.0736123, Final residual = 0.0052959, No Iterations 5
DILUPBiCGStab:  Solving for Uz, Initial residual = 0.484998, Final residual = 0.0184757, No Iterations 5
[INFO] MomentumPredictor: 5186.03 [ms]
[INFO] MatrixAssemblyPI: 741.045 [ms]
[INFO] AdjustPhi: 43.891 [ms]
[INFO] ConstrainPressure: 0.003 [ms]
[INFO] MatrixAssemblyPII: 236.785 [ms]
[OGL LOG][Proc: 0]: global_index_init: 0.281 [ms]
[OGL LOG][Proc: 0]p_local_coeffs: call_update: 0 [ms]
[OGL LOG][Proc: 0]p_non_local_coeffs: call_update: 0 [ms]
[OGL LOG][Proc: 0]p: update_local_matrix_data: 150.638 [ms]
[OGL LOG][Proc: 0]p: update_non_local_matrix_data: 0.378 [ms]
[OGL LOG][Proc: 0]p: regenerate_distributed_matrix: 385.217 [ms]
[OGL LOG][Proc: 0]p_matrix: call_update: 387.67 [ms]
[OGL LOG][Proc: 0]p_rhs: call_update: 8.796 [ms]
[OGL LOG][Proc: 0]p: init_precond: 0.029 [ms]
[OGL LOG][StoppingCriterion.H:237] Creating stopping criterion with minIter 1248 frequency 16
[OGL LOG][Proc: 0]p: generate_solver: 0.001 [ms]
[OGL LOG][Proc: 0]p: solve: 9816.49 [ms]
[OGL LOG][Proc: 0]p: copy_x_back: 11.71 [ms]
[OGL LOG][lduLduBase.H:330] 
Statistics:
	Time per iteration: 4258 [mu s]
	Time per residual norm calculation: 1293.000000 [mu s]
	Time per iteration and DOF: 0.157704 [ns]
	Retrieve results bandwidth 2.305000 [GByte/s]
[OGL LOG][Proc: 0]p: solve_multi_gpu: 10226.7 [ms]
nonecudaGKOCG:  Solving for p, Initial residual = 0.882636, Final residual = 9.01066e-05, No Iterations 2305
[INFO] SolveP: 10402.9 [ms]
time step continuity errors : sum local = 1.01493e-08, global = -5.09161e-22, cumulative = 8.56138e-21
[INFO] ContinuityError: 74.191 [ms]
[INFO] CorrectBoundary: 1.758 [ms]
[INFO] PISOStep: 11773.9 [ms]
[INFO] MatrixAssemblyPI: 725.299 [ms]
[INFO] AdjustPhi: 44.143 [ms]
[INFO] ConstrainPressure: 0.003 [ms]
[INFO] MatrixAssemblyPII: 232.839 [ms]
[OGL LOG][Proc: 0]: global_index_init: 0.097 [ms]
[OGL LOG][Proc: 0]p_local_coeffs: call_update: 0 [ms]
[OGL LOG][Proc: 0]p_non_local_coeffs: call_update: 0 [ms]
[OGL LOG][Proc: 0]p: update_local_matrix_data: 143.933 [ms]
[OGL LOG][Proc: 0]p: update_non_local_matrix_data: 0.549 [ms]
[OGL LOG][Proc: 0]p: regenerate_distributed_matrix: 385.07 [ms]
[OGL LOG][Proc: 0]p_matrix: call_update: 387.699 [ms]
[OGL LOG][Proc: 0]p_rhs: call_update: 4.263 [ms]
[OGL LOG][Proc: 0]p: init_precond: 0.027 [ms]
[OGL LOG][StoppingCriterion.H:237] Creating stopping criterion with minIter 1383 frequency 17
[OGL LOG][Proc: 0]p: generate_solver: 0.001 [ms]
[OGL LOG][Proc: 0]p: solve: 9760.43 [ms]
[OGL LOG][Proc: 0]p: copy_x_back: 10.852 [ms]
[OGL LOG][lduLduBase.H:330] 
Statistics:
	Time per iteration: 4251 [mu s]
	Time per residual norm calculation: 1290.000000 [mu s]
	Time per iteration and DOF: 0.157444 [ns]
	Retrieve results bandwidth 2.488000 [GByte/s]
[OGL LOG][Proc: 0]p: solve_multi_gpu: 10165.6 [ms]
nonecudaGKOCG:  Solving for p, Initial residual = 0.813508, Final residual = 9.98643e-05, No Iterations 2296
[INFO] SolveP: 10335.8 [ms]
time step continuity errors : sum local = 1.13895e-08, global = 4.20827e-22, cumulative = 8.98221e-21
[INFO] ContinuityError: 77.736 [ms]
[INFO] CorrectBoundary: 0.951 [ms]
[INFO] PISOStep: 11684.9 [ms]
[INFO] TimeStep: 29370.7 [ms]
ExecutionTime = 283.83 s  ClockTime = 286 s

Time = 0.001826

Courant Number mean: 0.0400178 max: 0.524625
[INFO] MatrixAssemblyU: 645.753 [ms]
DILUPBiCGStab:  Solving for Ux, Initial residual = 0.0181669, Final residual = 0.00152139, No Iterations 5
DILUPBiCGStab:  Solving for Uy, Initial residual = 0.0719906, Final residual = 0.00511573, No Iterations 5
DILUPBiCGStab:  Solving for Uz, Initial residual = 0.486009, Final residual = 0.0172421, No Iterations 5
[INFO] MomentumPredictor: 5180.26 [ms]
[INFO] MatrixAssemblyPI: 742.837 [ms]
[INFO] AdjustPhi: 44.012 [ms]
[INFO] ConstrainPressure: 0.002 [ms]
[INFO] MatrixAssemblyPII: 236.528 [ms]
[OGL LOG][Proc: 0]: global_index_init: 0.311 [ms]
[OGL LOG][Proc: 0]p_local_coeffs: call_update: 0 [ms]
[OGL LOG][Proc: 0]p_non_local_coeffs: call_update: 0 [ms]
[OGL LOG][Proc: 0]p: update_local_matrix_data: 147.538 [ms]
[OGL LOG][Proc: 0]p: update_non_local_matrix_data: 0.39 [ms]
[OGL LOG][Proc: 0]p: regenerate_distributed_matrix: 385.298 [ms]
[OGL LOG][Proc: 0]p_matrix: call_update: 388.188 [ms]
[OGL LOG][Proc: 0]p_rhs: call_update: 8.823 [ms]
[OGL LOG][Proc: 0]p: init_precond: 0.027 [ms]
[OGL LOG][StoppingCriterion.H:237] Creating stopping criterion with minIter 1377 frequency 17
[OGL LOG][Proc: 0]p: generate_solver: 0.002 [ms]
[OGL LOG][Proc: 0]p: solve: 9759.86 [ms]
[OGL LOG][Proc: 0]p: copy_x_back: 10.939 [ms]
[OGL LOG][lduLduBase.H:330] 
Statistics:
	Time per iteration: 4250 [mu s]
	Time per residual norm calculation: 1290.000000 [mu s]
	Time per iteration and DOF: 0.157407 [ns]
	Retrieve results bandwidth 2.468000 [GByte/s]
[OGL LOG][Proc: 0]p: solve_multi_gpu: 10169.6 [ms]
nonecudaGKOCG:  Solving for p, Initial residual = 0.90163, Final residual = 9.52393e-05, No Iterations 2296
[INFO] SolveP: 10339.1 [ms]
time step continuity errors : sum local = 1.06671e-08, global = -3.86894e-22, cumulative = 8.59531e-21
[INFO] ContinuityError: 78.953 [ms]
[INFO] CorrectBoundary: 0.963 [ms]
[INFO] PISOStep: 11710 [ms]
[INFO] MatrixAssemblyPI: 725.577 [ms]
[INFO] AdjustPhi: 44.122 [ms]
[INFO] ConstrainPressure: 0.002 [ms]
[INFO] MatrixAssemblyPII: 233.095 [ms]
[OGL LOG][Proc: 0]: global_index_init: 0.162 [ms]
[OGL LOG][Proc: 0]p_local_coeffs: call_update: 0 [ms]
[OGL LOG][Proc: 0]p_non_local_coeffs: call_update: 0 [ms]
[OGL LOG][Proc: 0]p: update_local_matrix_data: 141.674 [ms]
[OGL LOG][Proc: 0]p: update_non_local_matrix_data: 0.411 [ms]
[OGL LOG][Proc: 0]p: regenerate_distributed_matrix: 378.548 [ms]
[OGL LOG][Proc: 0]p_matrix: call_update: 380.794 [ms]
[OGL LOG][Proc: 0]p_rhs: call_update: 4.308 [ms]
[OGL LOG][Proc: 0]p: init_precond: 0.036 [ms]
[OGL LOG][StoppingCriterion.H:237] Creating stopping criterion with minIter 1377 frequency 17
[OGL LOG][Proc: 0]p: generate_solver: 0.003 [ms]
[OGL LOG][Proc: 0]p: solve: 9775.48 [ms]
[OGL LOG][Proc: 0]p: copy_x_back: 10.741 [ms]
[OGL LOG][lduLduBase.H:330] 
Statistics:
	Time per iteration: 4257 [mu s]
	Time per residual norm calculation: 1291.000000 [mu s]
	Time per iteration and DOF: 0.157667 [ns]
	Retrieve results bandwidth 2.513000 [GByte/s]
[OGL LOG][Proc: 0]p: solve_multi_gpu: 10176.8 [ms]
nonecudaGKOCG:  Solving for p, Initial residual = 0.847136, Final residual = 9.3358e-05, No Iterations 2296
[INFO] SolveP: 10341.1 [ms]
time step continuity errors : sum local = 1.03686e-08, global = 3.82654e-22, cumulative = 8.97797e-21
[INFO] ContinuityError: 81.442 [ms]
[INFO] CorrectBoundary: 5.152 [ms]
[INFO] PISOStep: 11696.8 [ms]
[INFO] TimeStep: 29310 [ms]
ExecutionTime = 313.09 s  ClockTime = 315 s

Time = 0.001992

Courant Number mean: 0.0414491 max: 0.486754
[INFO] MatrixAssemblyU: 644.12 [ms]
DILUPBiCGStab:  Solving for Ux, Initial residual = 0.0175744, Final residual = 0.00146944, No Iterations 5
DILUPBiCGStab:  Solving for Uy, Initial residual = 0.0655186, Final residual = 0.00449842, No Iterations 5
DILUPBiCGStab:  Solving for Uz, Initial residual = 0.470963, Final residual = 0.0165672, No Iterations 5
[INFO] MomentumPredictor: 5202.49 [ms]
[INFO] MatrixAssemblyPI: 746.61 [ms]
[INFO] AdjustPhi: 43.96 [ms]
[INFO] ConstrainPressure: 0.003 [ms]
[INFO] MatrixAssemblyPII: 237.235 [ms]
[OGL LOG][Proc: 0]: global_index_init: 0.324 [ms]
[OGL LOG][Proc: 0]p_local_coeffs: call_update: 0 [ms]
[OGL LOG][Proc: 0]p_non_local_coeffs: call_update: 0 [ms]
[OGL LOG][Proc: 0]p: update_local_matrix_data: 151.66 [ms]
[OGL LOG][Proc: 0]p: update_non_local_matrix_data: 0.534 [ms]
[OGL LOG][Proc: 0]p: regenerate_distributed_matrix: 385.335 [ms]
[OGL LOG][Proc: 0]p_matrix: call_update: 387.929 [ms]
[OGL LOG][Proc: 0]p_rhs: call_update: 8.917 [ms]
[OGL LOG][Proc: 0]p: init_precond: 0.027 [ms]
[OGL LOG][StoppingCriterion.H:237] Creating stopping criterion with minIter 1377 frequency 17
[OGL LOG][Proc: 0]p: generate_solver: 0.002 [ms]
[OGL LOG][Proc: 0]p: solve: 9790.93 [ms]
[OGL LOG][Proc: 0]p: copy_x_back: 10.79 [ms]
[OGL LOG][lduLduBase.H:330] 
Statistics:
	Time per iteration: 4264 [mu s]
	Time per residual norm calculation: 1294.000000 [mu s]
	Time per iteration and DOF: 0.157926 [ns]
	Retrieve results bandwidth 2.502000 [GByte/s]
[OGL LOG][Proc: 0]p: solve_multi_gpu: 10199.9 [ms]
nonecudaGKOCG:  Solving for p, Initial residual = 0.884149, Final residual = 9.40952e-05, No Iterations 2296
[INFO] SolveP: 10377.4 [ms]
time step continuity errors : sum local = 1.09552e-08, global = 8.79307e-22, cumulative = 9.85727e-21
[INFO] ContinuityError: 76.825 [ms]
[INFO] CorrectBoundary: 1.018 [ms]
[INFO] PISOStep: 11754.5 [ms]
[INFO] MatrixAssemblyPI: 725.78 [ms]
[INFO] AdjustPhi: 44.081 [ms]
[INFO] ConstrainPressure: 0.002 [ms]
[INFO] MatrixAssemblyPII: 231.863 [ms]
[OGL LOG][Proc: 0]: global_index_init: 0.102 [ms]
[OGL LOG][Proc: 0]p_local_coeffs: call_update: 0 [ms]
[OGL LOG][Proc: 0]p_non_local_coeffs: call_update: 0 [ms]
[OGL LOG][Proc: 0]p: update_local_matrix_data: 143.667 [ms]
[OGL LOG][Proc: 0]p: update_non_local_matrix_data: 0.385 [ms]
[OGL LOG][Proc: 0]p: regenerate_distributed_matrix: 378.802 [ms]
[OGL LOG][Proc: 0]p_matrix: call_update: 381.36 [ms]
[OGL LOG][Proc: 0]p_rhs: call_update: 4.271 [ms]
[OGL LOG][Proc: 0]p: init_precond: 0.039 [ms]
[OGL LOG][StoppingCriterion.H:237] Creating stopping criterion with minIter 1377 frequency 17
[OGL LOG][Proc: 0]p: generate_solver: 0.003 [ms]
[OGL LOG][Proc: 0]p: solve: 9773.96 [ms]
[OGL LOG][Proc: 0]p: copy_x_back: 10.819 [ms]
[OGL LOG][lduLduBase.H:330] 
Statistics:
	Time per iteration: 4256 [mu s]
	Time per residual norm calculation: 1292.000000 [mu s]
	Time per iteration and DOF: 0.157630 [ns]
	Retrieve results bandwidth 2.495000 [GByte/s]
[OGL LOG][Proc: 0]p: solve_multi_gpu: 10174 [ms]
nonecudaGKOCG:  Solving for p, Initial residual = 0.813588, Final residual = 9.54375e-05, No Iterations 2296
[INFO] SolveP: 10340.7 [ms]
time step continuity errors : sum local = 1.12355e-08, global = 1.07054e-21, cumulative = 1.09278e-20
[INFO] ContinuityError: 76.274 [ms]
[INFO] CorrectBoundary: 0.944 [ms]
[INFO] PISOStep: 11686.9 [ms]
[INFO] TimeStep: 29363.7 [ms]
ExecutionTime = 342.4 s  ClockTime = 344 s

Time = 0.002158

Courant Number mean: 0.0428475 max: 0.53225
[INFO] MatrixAssemblyU: 646.356 [ms]
DILUPBiCGStab:  Solving for Ux, Initial residual = 0.0166409, Final residual = 0.00136933, No Iterations 5
DILUPBiCGStab:  Solving for Uy, Initial residual = 0.0655685, Final residual = 0.00442758, No Iterations 5
DILUPBiCGStab:  Solving for Uz, Initial residual = 0.47921, Final residual = 0.0163228, No Iterations 5
[INFO] MomentumPredictor: 5199.16 [ms]
[INFO] MatrixAssemblyPI: 742.734 [ms]
[INFO] AdjustPhi: 44.014 [ms]
[INFO] ConstrainPressure: 0.003 [ms]
[INFO] MatrixAssemblyPII: 235.98 [ms]
[OGL LOG][Proc: 0]: global_index_init: 0.092 [ms]
[OGL LOG][Proc: 0]p_local_coeffs: call_update: 0 [ms]
[OGL LOG][Proc: 0]p_non_local_coeffs: call_update: 0 [ms]
[OGL LOG][Proc: 0]p: update_local_matrix_data: 150.034 [ms]
[OGL LOG][Proc: 0]p: update_non_local_matrix_data: 0.383 [ms]
[OGL LOG][Proc: 0]p: regenerate_distributed_matrix: 386.19 [ms]
[OGL LOG][Proc: 0]p_matrix: call_update: 388.794 [ms]
[OGL LOG][Proc: 0]p_rhs: call_update: 9.009 [ms]
[OGL LOG][Proc: 0]p: init_precond: 0.032 [ms]
[OGL LOG][StoppingCriterion.H:237] Creating stopping criterion with minIter 1377 frequency 17
[OGL LOG][Proc: 0]p: generate_solver: 0.002 [ms]
[OGL LOG][Proc: 0]p: solve: 9755.78 [ms]
[OGL LOG][Proc: 0]p: copy_x_back: 10.895 [ms]
[OGL LOG][lduLduBase.H:330] 
Statistics:
	Time per iteration: 4249 [mu s]
	Time per residual norm calculation: 1435.000000 [mu s]
	Time per iteration and DOF: 0.157370 [ns]
	Retrieve results bandwidth 2.478000 [GByte/s]
[OGL LOG][Proc: 0]p: solve_multi_gpu: 10166.3 [ms]
nonecudaGKOCG:  Solving for p, Initial residual = 0.902394, Final residual = 9.29711e-05, No Iterations 2296
[INFO] SolveP: 10338.5 [ms]
time step continuity errors : sum local = 1.08272e-08, global = 7.374e-22, cumulative = 1.16652e-20
[INFO] ContinuityError: 77.106 [ms]
[INFO] CorrectBoundary: 0.971 [ms]
[INFO] PISOStep: 11709.1 [ms]
[INFO] MatrixAssemblyPI: 727.944 [ms]
[INFO] AdjustPhi: 43.997 [ms]
[INFO] ConstrainPressure: 0.004 [ms]
[INFO] MatrixAssemblyPII: 232.721 [ms]
[OGL LOG][Proc: 0]: global_index_init: 0.173 [ms]
[OGL LOG][Proc: 0]p_local_coeffs: call_update: 0 [ms]
[OGL LOG][Proc: 0]p_non_local_coeffs: call_update: 0 [ms]
[OGL LOG][Proc: 0]p: update_local_matrix_data: 144.123 [ms]
[OGL LOG][Proc: 0]p: update_non_local_matrix_data: 0.399 [ms]
[OGL LOG][Proc: 0]p: regenerate_distributed_matrix: 378.771 [ms]
[OGL LOG][Proc: 0]p_matrix: call_update: 381.212 [ms]
[OGL LOG][Proc: 0]p_rhs: call_update: 4.402 [ms]
[OGL LOG][Proc: 0]p: init_precond: 0.038 [ms]
[OGL LOG][StoppingCriterion.H:237] Creating stopping criterion with minIter 1377 frequency 21
[OGL LOG][Proc: 0]p: generate_solver: 0.002 [ms]
[OGL LOG][Proc: 0]p: solve: 9826.53 [ms]
[OGL LOG][Proc: 0]p: copy_x_back: 10.731 [ms]
[OGL LOG][lduLduBase.H:330] 
Statistics:
	Time per iteration: 4252 [mu s]
	Time per residual norm calculation: 1295.000000 [mu s]
	Time per iteration and DOF: 0.157481 [ns]
	Retrieve results bandwidth 2.516000 [GByte/s]
[OGL LOG][Proc: 0]p: solve_multi_gpu: 10226.6 [ms]
nonecudaGKOCG:  Solving for p, Initial residual = 0.844293, Final residual = 7.2257e-05, No Iterations 2311
[INFO] SolveP: 10397.2 [ms]
time step continuity errors : sum local = 8.35605e-09, global = 9.41201e-22, cumulative = 1.26064e-20
[INFO] ContinuityError: 74.101 [ms]
[INFO] CorrectBoundary: 1.418 [ms]
[INFO] PISOStep: 11752 [ms]
[INFO] TimeStep: 29384.2 [ms]
ExecutionTime = 371.74 s  ClockTime = 374 s

Time = 0.002324

Courant Number mean: 0.0440892 max: 0.489795
[INFO] MatrixAssemblyU: 645.195 [ms]
DILUPBiCGStab:  Solving for Ux, Initial residual = 0.01641, Final residual = 0.0013447, No Iterations 5
DILUPBiCGStab:  Solving for Uy, Initial residual = 0.06044, Final residual = 0.00393027, No Iterations 5
DILUPBiCGStab:  Solving for Uz, Initial residual = 0.469703, Final residual = 0.0158262, No Iterations 5
[INFO] MomentumPredictor: 5197.81 [ms]
[INFO] MatrixAssemblyPI: 742.331 [ms]
[INFO] AdjustPhi: 43.964 [ms]
[INFO] ConstrainPressure: 0.003 [ms]
[INFO] MatrixAssemblyPII: 236.818 [ms]
[OGL LOG][Proc: 0]: global_index_init: 0.167 [ms]
[OGL LOG][Proc: 0]p_local_coeffs: call_update: 0 [ms]
[OGL LOG][Proc: 0]p_non_local_coeffs: call_update: 0 [ms]
[OGL LOG][Proc: 0]p: update_local_matrix_data: 151.051 [ms]
[OGL LOG][Proc: 0]p: update_non_local_matrix_data: 0.553 [ms]
[OGL LOG][Proc: 0]p: regenerate_distributed_matrix: 385.395 [ms]
[OGL LOG][Proc: 0]p_matrix: call_update: 388.127 [ms]
[OGL LOG][Proc: 0]p_rhs: call_update: 8.822 [ms]
[OGL LOG][Proc: 0]p: init_precond: 0.027 [ms]
[OGL LOG][StoppingCriterion.H:237] Creating stopping criterion with minIter 1386 frequency 17
[OGL LOG][Proc: 0]p: generate_solver: 0.001 [ms]
[OGL LOG][Proc: 0]p: solve: 9848.75 [ms]
[OGL LOG][Proc: 0]p: copy_x_back: 10.893 [ms]
[OGL LOG][lduLduBase.H:330] 
Statistics:
	Time per iteration: 4257 [mu s]
	Time per residual norm calculation: 1290.000000 [mu s]
	Time per iteration and DOF: 0.157667 [ns]
	Retrieve results bandwidth 2.478000 [GByte/s]
[OGL LOG][Proc: 0]p: solve_multi_gpu: 10258.6 [ms]
nonecudaGKOCG:  Solving for p, Initial residual = 0.88649, Final residual = 7.48788e-05, No Iterations 2313
[INFO] SolveP: 10431.8 [ms]
time step continuity errors : sum local = 9.07509e-09, global = 1.70228e-22, cumulative = 1.27766e-20
[INFO] ContinuityError: 75.564 [ms]
[INFO] CorrectBoundary: 1.03 [ms]
[INFO] PISOStep: 11799.8 [ms]
[INFO] MatrixAssemblyPI: 723.596 [ms]
[INFO] AdjustPhi: 44.122 [ms]
[INFO] ConstrainPressure: 0.003 [ms]
[INFO] MatrixAssemblyPII: 231.913 [ms]
[OGL LOG][Proc: 0]: global_index_init: 0.24 [ms]
[OGL LOG][Proc: 0]p_local_coeffs: call_update: 0 [ms]
[OGL LOG][Proc: 0]p_non_local_coeffs: call_update: 0 [ms]
[OGL LOG][Proc: 0]p: update_local_matrix_data: 142.891 [ms]
[OGL LOG][Proc: 0]p: update_non_local_matrix_data: 0.378 [ms]
[OGL LOG][Proc: 0]p: regenerate_distributed_matrix: 379.633 [ms]
[OGL LOG][Proc: 0]p_matrix: call_update: 382.455 [ms]
[OGL LOG][Proc: 0]p_rhs: call_update: 4.258 [ms]
[OGL LOG][Proc: 0]p: init_precond: 0.028 [ms]
[OGL LOG][StoppingCriterion.H:237] Creating stopping criterion with minIter 1387 frequency 17
[OGL LOG][Proc: 0]p: generate_solver: 0.002 [ms]
[OGL LOG][Proc: 0]p: solve: 9765.49 [ms]
[OGL LOG][Proc: 0]p: copy_x_back: 11.07 [ms]
[OGL LOG][lduLduBase.H:330] 
Statistics:
	Time per iteration: 4253 [mu s]
	Time per residual norm calculation: 1290.000000 [mu s]
	Time per iteration and DOF: 0.157519 [ns]
	Retrieve results bandwidth 2.439000 [GByte/s]
[OGL LOG][Proc: 0]p: solve_multi_gpu: 10166.4 [ms]
nonecudaGKOCG:  Solving for p, Initial residual = 0.814778, Final residual = 9.24209e-05, No Iterations 2296
[INFO] SolveP: 10331.7 [ms]
time step continuity errors : sum local = 1.13105e-08, global = -8.32711e-23, cumulative = 1.26934e-20
[INFO] ContinuityError: 79.975 [ms]
[INFO] CorrectBoundary: 0.945 [ms]
[INFO] PISOStep: 11679.8 [ms]
[INFO] TimeStep: 29398.1 [ms]
ExecutionTime = 401.09 s  ClockTime = 403 s

Time = 0.00249

Courant Number mean: 0.0453247 max: 0.540993
[INFO] MatrixAssemblyU: 643.963 [ms]
DILUPBiCGStab:  Solving for Ux, Initial residual = 0.0156582, Final residual = 0.00124692, No Iterations 5
DILUPBiCGStab:  Solving for Uy, Initial residual = 0.0613189, Final residual = 0.00392741, No Iterations 5
DILUPBiCGStab:  Solving for Uz, Initial residual = 0.48, Final residual = 0.0157266, No Iterations 5
[INFO] MomentumPredictor: 5176.99 [ms]
[INFO] MatrixAssemblyPI: 742.889 [ms]
[INFO] AdjustPhi: 43.636 [ms]
[INFO] ConstrainPressure: 0.004 [ms]
[INFO] MatrixAssemblyPII: 237.439 [ms]
[OGL LOG][Proc: 0]: global_index_init: 0.32 [ms]
[OGL LOG][Proc: 0]p_local_coeffs: call_update: 0 [ms]
[OGL LOG][Proc: 0]p_non_local_coeffs: call_update: 0 [ms]
[OGL LOG][Proc: 0]p: update_local_matrix_data: 150.13 [ms]
[OGL LOG][Proc: 0]p: update_non_local_matrix_data: 0.385 [ms]
[OGL LOG][Proc: 0]p: regenerate_distributed_matrix: 384.44 [ms]
[OGL LOG][Proc: 0]p_matrix: call_update: 386.83 [ms]
[OGL LOG][Proc: 0]p_rhs: call_update: 8.766 [ms]
[OGL LOG][Proc: 0]p: init_precond: 0.028 [ms]
[OGL LOG][StoppingCriterion.H:237] Creating stopping criterion with minIter 1377 frequency 17
[OGL LOG][Proc: 0]p: generate_solver: 0.002 [ms]
[OGL LOG][Proc: 0]p: solve: 9780.32 [ms]
[OGL LOG][Proc: 0]p: copy_x_back: 10.81 [ms]
[OGL LOG][lduLduBase.H:330] 
Statistics:
	Time per iteration: 4259 [mu s]
	Time per residual norm calculation: 1290.000000 [mu s]
	Time per iteration and DOF: 0.157741 [ns]
	Retrieve results bandwidth 2.497000 [GByte/s]
[OGL LOG][Proc: 0]p: solve_multi_gpu: 10188.1 [ms]
nonecudaGKOCG:  Solving for p, Initial residual = 0.903182, Final residual = 9.31123e-05, No Iterations 2296
[INFO] SolveP: 10364.2 [ms]
time step continuity errors : sum local = 1.13257e-08, global = 1.56098e-22, cumulative = 1.28495e-20
[INFO] ContinuityError: 76.062 [ms]
[INFO] CorrectBoundary: 6.872 [ms]
[INFO] PISOStep: 11738.7 [ms]
[INFO] MatrixAssemblyPI: 723.306 [ms]
[INFO] AdjustPhi: 44.28 [ms]
[INFO] ConstrainPressure: 0.003 [ms]
[INFO] MatrixAssemblyPII: 232.5 [ms]
[OGL LOG][Proc: 0]: global_index_init: 0.156 [ms]
[OGL LOG][Proc: 0]p_local_coeffs: call_update: 0 [ms]
[OGL LOG][Proc: 0]p_non_local_coeffs: call_update: 0 [ms]
[OGL LOG][Proc: 0]p: update_local_matrix_data: 142.098 [ms]
[OGL LOG][Proc: 0]p: update_non_local_matrix_data: 0.394 [ms]
[OGL LOG][Proc: 0]p: regenerate_distributed_matrix: 378.361 [ms]
[OGL LOG][Proc: 0]p_matrix: call_update: 380.908 [ms]
[OGL LOG][Proc: 0]p_rhs: call_update: 4.779 [ms]
[OGL LOG][Proc: 0]p: init_precond: 0.028 [ms]
[OGL LOG][StoppingCriterion.H:237] Creating stopping criterion with minIter 1377 frequency 17
[OGL LOG][Proc: 0]p: generate_solver: 0.001 [ms]
[OGL LOG][Proc: 0]p: solve: 9787.21 [ms]
[OGL LOG][Proc: 0]p: copy_x_back: 10.848 [ms]
[OGL LOG][lduLduBase.H:330] 
Statistics:
	Time per iteration: 4262 [mu s]
	Time per residual norm calculation: 1298.000000 [mu s]
	Time per iteration and DOF: 0.157852 [ns]
	Retrieve results bandwidth 2.488000 [GByte/s]
[OGL LOG][Proc: 0]p: solve_multi_gpu: 10189.5 [ms]
nonecudaGKOCG:  Solving for p, Initial residual = 0.84208, Final residual = 9.12218e-05, No Iterations 2296
[INFO] SolveP: 10357.2 [ms]
time step continuity errors : sum local = 1.10331e-08, global = 9.13073e-22, cumulative = 1.37625e-20
[INFO] ContinuityError: 74.216 [ms]
[INFO] CorrectBoundary: 1.148 [ms]
[INFO] PISOStep: 11707 [ms]
[INFO] TimeStep: 29345.4 [ms]
ExecutionTime = 430.38 s  ClockTime = 433 s

Time = 0.002656

Courant Number mean: 0.0464224 max: 0.492864
[INFO] MatrixAssemblyU: 656.936 [ms]
DILUPBiCGStab:  Solving for Ux, Initial residual = 0.015646, Final residual = 0.00124148, No Iterations 5
DILUPBiCGStab:  Solving for Uy, Initial residual = 0.0572862, Final residual = 0.00351488, No Iterations 5
DILUPBiCGStab:  Solving for Uz, Initial residual = 0.474114, Final residual = 0.0154145, No Iterations 5
[INFO] MomentumPredictor: 5178.67 [ms]
[INFO] MatrixAssemblyPI: 742.916 [ms]
[INFO] AdjustPhi: 44.047 [ms]
[INFO] ConstrainPressure: 0.003 [ms]
[INFO] MatrixAssemblyPII: 236.417 [ms]
[OGL LOG][Proc: 0]: global_index_init: 0.131 [ms]
[OGL LOG][Proc: 0]p_local_coeffs: call_update: 0 [ms]
[OGL LOG][Proc: 0]p_non_local_coeffs: call_update: 0 [ms]
[OGL LOG][Proc: 0]p: update_local_matrix_data: 150.27 [ms]
[OGL LOG][Proc: 0]p: update_non_local_matrix_data: 0.553 [ms]
[OGL LOG][Proc: 0]p: regenerate_distributed_matrix: 385.765 [ms]
[OGL LOG][Proc: 0]p_matrix: call_update: 388.339 [ms]
[OGL LOG][Proc: 0]p_rhs: call_update: 8.754 [ms]
[OGL LOG][Proc: 0]p: init_precond: 0.029 [ms]
[OGL LOG][StoppingCriterion.H:237] Creating stopping criterion with minIter 1377 frequency 17
[OGL LOG][Proc: 0]p: generate_solver: 0.002 [ms]
[OGL LOG][Proc: 0]p: solve: 9766.91 [ms]
[OGL LOG][Proc: 0]p: copy_x_back: 11.332 [ms]
[OGL LOG][lduLduBase.H:330] 
Statistics:
	Time per iteration: 4253 [mu s]
	Time per residual norm calculation: 1294.000000 [mu s]
	Time per iteration and DOF: 0.157519 [ns]
	Retrieve results bandwidth 2.382000 [GByte/s]
[OGL LOG][Proc: 0]p: solve_multi_gpu: 10177 [ms]
nonecudaGKOCG:  Solving for p, Initial residual = 0.889484, Final residual = 9.62259e-05, No Iterations 2296
[INFO] SolveP: 10349.3 [ms]
time step continuity errors : sum local = 1.21773e-08, global = 5.61237e-22, cumulative = 1.43238e-20
[INFO] ContinuityError: 77.059 [ms]
[INFO] CorrectBoundary: 1.007 [ms]
[INFO] PISOStep: 11719.1 [ms]
[INFO] MatrixAssemblyPI: 724.691 [ms]
[INFO] AdjustPhi: 43.981 [ms]
[INFO] ConstrainPressure: 0.002 [ms]
[INFO] MatrixAssemblyPII: 232.278 [ms]
[OGL LOG][Proc: 0]: global_index_init: 0.156 [ms]
[OGL LOG][Proc: 0]p_local_coeffs: call_update: 0 [ms]
[OGL LOG][Proc: 0]p_non_local_coeffs: call_update: 0 [ms]
[OGL LOG][Proc: 0]p: update_local_matrix_data: 144.804 [ms]
[OGL LOG][Proc: 0]p: update_non_local_matrix_data: 0.385 [ms]
[OGL LOG][Proc: 0]p: regenerate_distributed_matrix: 378.733 [ms]
[OGL LOG][Proc: 0]p_matrix: call_update: 381.006 [ms]
[OGL LOG][Proc: 0]p_rhs: call_update: 4.49 [ms]
[OGL LOG][Proc: 0]p: init_precond: 0.027 [ms]
[OGL LOG][StoppingCriterion.H:237] Creating stopping criterion with minIter 1377 frequency 17
[OGL LOG][Proc: 0]p: generate_solver: 0.002 [ms]
[OGL LOG][Proc: 0]p: solve: 9777.89 [ms]
[OGL LOG][Proc: 0]p: copy_x_back: 10.826 [ms]
[OGL LOG][lduLduBase.H:330] 
Statistics:
	Time per iteration: 4258 [mu s]
	Time per residual norm calculation: 1436.000000 [mu s]
	Time per iteration and DOF: 0.157704 [ns]
	Retrieve results bandwidth 2.493000 [GByte/s]
[OGL LOG][Proc: 0]p: solve_multi_gpu: 10176.1 [ms]
nonecudaGKOCG:  Solving for p, Initial residual = 0.816801, Final residual = 9.425e-05, No Iterations 2296
[INFO] SolveP: 10343.5 [ms]
time step continuity errors : sum local = 1.20284e-08, global = 1.20868e-21, cumulative = 1.55325e-20
[INFO] ContinuityError: 79.461 [ms]
[INFO] CorrectBoundary: 0.984 [ms]
[INFO] PISOStep: 11693.3 [ms]
[INFO] TimeStep: 29323.7 [ms]
ExecutionTime = 459.65 s  ClockTime = 462 s

Time = 0.002822

Courant Number mean: 0.0475331 max: 0.551149
[INFO] MatrixAssemblyU: 643.662 [ms]
DILUPBiCGStab:  Solving for Ux, Initial residual = 0.0150683, Final residual = 0.00114937, No Iterations 5
DILUPBiCGStab:  Solving for Uy, Initial residual = 0.0586176, Final residual = 0.00355384, No Iterations 5
DILUPBiCGStab:  Solving for Uz, Initial residual = 0.485566, Final residual = 0.0154506, No Iterations 5
[INFO] MomentumPredictor: 5187.05 [ms]
[INFO] MatrixAssemblyPI: 742.239 [ms]
[INFO] AdjustPhi: 44.101 [ms]
[INFO] ConstrainPressure: 0.002 [ms]
[INFO] MatrixAssemblyPII: 236.018 [ms]
[OGL LOG][Proc: 0]: global_index_init: 1.42 [ms]
[OGL LOG][Proc: 0]p_local_coeffs: call_update: 0 [ms]
[OGL LOG][Proc: 0]p_non_local_coeffs: call_update: 0 [ms]
[OGL LOG][Proc: 0]p: update_local_matrix_data: 148.504 [ms]
[OGL LOG][Proc: 0]p: update_non_local_matrix_data: 0.386 [ms]
[OGL LOG][Proc: 0]p: regenerate_distributed_matrix: 385.535 [ms]
[OGL LOG][Proc: 0]p_matrix: call_update: 387.842 [ms]
[OGL LOG][Proc: 0]p_rhs: call_update: 9.173 [ms]
[OGL LOG][Proc: 0]p: init_precond: 0.028 [ms]
[OGL LOG][StoppingCriterion.H:237] Creating stopping criterion with minIter 1377 frequency 21
[OGL LOG][Proc: 0]p: generate_solver: 0.002 [ms]
[OGL LOG][Proc: 0]p: solve: 9822.68 [ms]
[OGL LOG][Proc: 0]p: copy_x_back: 11.817 [ms]
[OGL LOG][lduLduBase.H:330] 
Statistics:
	Time per iteration: 4250 [mu s]
	Time per residual norm calculation: 1144.000000 [mu s]
	Time per iteration and DOF: 0.157407 [ns]
	Retrieve results bandwidth 2.284000 [GByte/s]
[OGL LOG][Proc: 0]p: solve_multi_gpu: 10233.6 [ms]
nonecudaGKOCG:  Solving for p, Initial residual = 0.90475, Final residual = 7.20332e-05, No Iterations 2311
[INFO] SolveP: 10408.8 [ms]
time step continuity errors : sum local = 9.19212e-09, global = 2.68102e-23, cumulative = 1.55593e-20
[INFO] ContinuityError: 76.703 [ms]
[INFO] CorrectBoundary: 1.263 [ms]
[INFO] PISOStep: 11784.7 [ms]
[INFO] MatrixAssemblyPI: 727.101 [ms]
[INFO] AdjustPhi: 43.944 [ms]
[INFO] ConstrainPressure: 0.003 [ms]
[INFO] MatrixAssemblyPII: 232.207 [ms]
[OGL LOG][Proc: 0]: global_index_init: 0.147 [ms]
[OGL LOG][Proc: 0]p_local_coeffs: call_update: 0 [ms]
[OGL LOG][Proc: 0]p_non_local_coeffs: call_update: 0 [ms]
[OGL LOG][Proc: 0]p: update_local_matrix_data: 145.992 [ms]
[OGL LOG][Proc: 0]p: update_non_local_matrix_data: 0.535 [ms]
[OGL LOG][Proc: 0]p: regenerate_distributed_matrix: 379.261 [ms]
[OGL LOG][Proc: 0]p_matrix: call_update: 381.785 [ms]
[OGL LOG][Proc: 0]p_rhs: call_update: 4.255 [ms]
[OGL LOG][Proc: 0]p: init_precond: 0.032 [ms]
[OGL LOG][StoppingCriterion.H:237] Creating stopping criterion with minIter 1386 frequency 17
[OGL LOG][Proc: 0]p: generate_solver: 0.002 [ms]
[OGL LOG][Proc: 0]p: solve: 9780.09 [ms]
[OGL LOG][Proc: 0]p: copy_x_back: 10.895 [ms]
[OGL LOG][lduLduBase.H:330] 
Statistics:
	Time per iteration: 4259 [mu s]
	Time per residual norm calculation: 1291.000000 [mu s]
	Time per iteration and DOF: 0.157741 [ns]
	Retrieve results bandwidth 2.478000 [GByte/s]
[OGL LOG][Proc: 0]p: solve_multi_gpu: 10178.7 [ms]
nonecudaGKOCG:  Solving for p, Initial residual = 0.840587, Final residual = 8.75301e-05, No Iterations 2296
[INFO] SolveP: 10347 [ms]
time step continuity errors : sum local = 1.11202e-08, global = 2.88651e-22, cumulative = 1.58479e-20
[INFO] ContinuityError: 80.713 [ms]
[INFO] CorrectBoundary: 0.97 [ms]
[INFO] PISOStep: 11699.1 [ms]
[INFO] TimeStep: 29394.1 [ms]
ExecutionTime = 488.98 s  ClockTime = 491 s

Time = 0.002988

Courant Number mean: 0.0485163 max: 0.496215
[INFO] MatrixAssemblyU: 644.912 [ms]
DILUPBiCGStab:  Solving for Ux, Initial residual = 0.0151944, Final residual = 0.00115576, No Iterations 5
DILUPBiCGStab:  Solving for Uy, Initial residual = 0.0555354, Final residual = 0.00320647, No Iterations 5
DILUPBiCGStab:  Solving for Uz, Initial residual = 0.481804, Final residual = 0.0152045, No Iterations 5
[INFO] MomentumPredictor: 5185.65 [ms]
[INFO] MatrixAssemblyPI: 742.91 [ms]
[INFO] AdjustPhi: 43.893 [ms]
[INFO] ConstrainPressure: 0.003 [ms]
[INFO] MatrixAssemblyPII: 236.904 [ms]
[OGL LOG][Proc: 0]: global_index_init: 0.225 [ms]
[OGL LOG][Proc: 0]p_local_coeffs: call_update: 0 [ms]
[OGL LOG][Proc: 0]p_non_local_coeffs: call_update: 0 [ms]
[OGL LOG][Proc: 0]p: update_local_matrix_data: 151.255 [ms]
[OGL LOG][Proc: 0]p: update_non_local_matrix_data: 0.392 [ms]
[OGL LOG][Proc: 0]p: regenerate_distributed_matrix: 385.775 [ms]
[OGL LOG][Proc: 0]p_matrix: call_update: 388.624 [ms]
[OGL LOG][Proc: 0]p_rhs: call_update: 8.945 [ms]
[OGL LOG][Proc: 0]p: init_precond: 0.028 [ms]
[OGL LOG][StoppingCriterion.H:237] Creating stopping criterion with minIter 1377 frequency 17
[OGL LOG][Proc: 0]p: generate_solver: 0.001 [ms]
[OGL LOG][Proc: 0]p: solve: 9775.18 [ms]
[OGL LOG][Proc: 0]p: copy_x_back: 11.075 [ms]
[OGL LOG][lduLduBase.H:330] 
Statistics:
	Time per iteration: 4257 [mu s]
	Time per residual norm calculation: 1143.000000 [mu s]
	Time per iteration and DOF: 0.157667 [ns]
	Retrieve results bandwidth 2.437000 [GByte/s]
[OGL LOG][Proc: 0]p: solve_multi_gpu: 10185.1 [ms]
nonecudaGKOCG:  Solving for p, Initial residual = 0.894196, Final residual = 9.92449e-05, No Iterations 2296
[INFO] SolveP: 10358.5 [ms]
time step continuity errors : sum local = 1.31677e-08, global = 4.69809e-22, cumulative = 1.63177e-20
[INFO] ContinuityError: 79.166 [ms]
[INFO] CorrectBoundary: 0.982 [ms]
[INFO] PISOStep: 11730.7 [ms]
[INFO] MatrixAssemblyPI: 725.45 [ms]
[INFO] AdjustPhi: 44.631 [ms]
[INFO] ConstrainPressure: 0.002 [ms]
[INFO] MatrixAssemblyPII: 232.295 [ms]
[OGL LOG][Proc: 0]: global_index_init: 0.166 [ms]
[OGL LOG][Proc: 0]p_local_coeffs: call_update: 0 [ms]
[OGL LOG][Proc: 0]p_non_local_coeffs: call_update: 0 [ms]
[OGL LOG][Proc: 0]p: update_local_matrix_data: 147.061 [ms]
[OGL LOG][Proc: 0]p: update_non_local_matrix_data: 0.408 [ms]
[OGL LOG][Proc: 0]p: regenerate_distributed_matrix: 377.768 [ms]
[OGL LOG][Proc: 0]p_matrix: call_update: 379.937 [ms]
[OGL LOG][Proc: 0]p_rhs: call_update: 4.699 [ms]
[OGL LOG][Proc: 0]p: init_precond: 0.025 [ms]
[OGL LOG][StoppingCriterion.H:237] Creating stopping criterion with minIter 1377 frequency 17
[OGL LOG][Proc: 0]p: generate_solver: 0.001 [ms]
[OGL LOG][Proc: 0]p: solve: 9781.03 [ms]
[OGL LOG][Proc: 0]p: copy_x_back: 10.728 [ms]
[OGL LOG][lduLduBase.H:330] 
Statistics:
	Time per iteration: 4260 [mu s]
	Time per residual norm calculation: 1291.000000 [mu s]
	Time per iteration and DOF: 0.157778 [ns]
	Retrieve results bandwidth 2.516000 [GByte/s]
[OGL LOG][Proc: 0]p: solve_multi_gpu: 10177.7 [ms]
nonecudaGKOCG:  Solving for p, Initial residual = 0.82006, Final residual = 9.49936e-05, No Iterations 2296
[INFO] SolveP: 10347.7 [ms]
time step continuity errors : sum local = 1.26966e-08, global = 2.69775e-22, cumulative = 1.65875e-20
[INFO] ContinuityError: 78.58 [ms]
[INFO] CorrectBoundary: 4.602 [ms]
[INFO] PISOStep: 11701 [ms]
[INFO] TimeStep: 29341.5 [ms]
ExecutionTime = 518.27 s  ClockTime = 521 s

Time = 0.003154

Courant Number mean: 0.0495292 max: 0.562891
[INFO] MatrixAssemblyU: 643.891 [ms]
DILUPBiCGStab:  Solving for Ux, Initial residual = 0.0147903, Final residual = 0.0010726, No Iterations 5
DILUPBiCGStab:  Solving for Uy, Initial residual = 0.0571415, Final residual = 0.00327085, No Iterations 5
DILUPBiCGStab:  Solving for Uz, Initial residual = 0.493591, Final residual = 0.0153025, No Iterations 5
[INFO] MomentumPredictor: 5193.98 [ms]
[INFO] MatrixAssemblyPI: 743.854 [ms]
[INFO] AdjustPhi: 43.989 [ms]
[INFO] ConstrainPressure: 0.002 [ms]
[INFO] MatrixAssemblyPII: 236.206 [ms]
[OGL LOG][Proc: 0]: global_index_init: 0.186 [ms]
[OGL LOG][Proc: 0]p_local_coeffs: call_update: 0 [ms]
[OGL LOG][Proc: 0]p_non_local_coeffs: call_update: 0 [ms]
[OGL LOG][Proc: 0]p: update_local_matrix_data: 151.916 [ms]
[OGL LOG][Proc: 0]p: update_non_local_matrix_data: 0.539 [ms]
[OGL LOG][Proc: 0]p: regenerate_distributed_matrix: 385.197 [ms]
[OGL LOG][Proc: 0]p_matrix: call_update: 387.979 [ms]
[OGL LOG][Proc: 0]p_rhs: call_update: 8.906 [ms]
[OGL LOG][Proc: 0]p: init_precond: 0.031 [ms]
[OGL LOG][StoppingCriterion.H:237] Creating stopping criterion with minIter 1377 frequency 17
[OGL LOG][Proc: 0]p: generate_solver: 0.001 [ms]
[OGL LOG][Proc: 0]p: solve: 9546.95 [ms]
[OGL LOG][Proc: 0]p: copy_x_back: 10.652 [ms]
[OGL LOG][lduLduBase.H:330] 
Statistics:
	Time per iteration: 4252 [mu s]
	Time per residual norm calculation: 1293.000000 [mu s]
	Time per iteration and DOF: 0.157481 [ns]
	Retrieve results bandwidth 2.534000 [GByte/s]
[OGL LOG][Proc: 0]p: solve_multi_gpu: 9956.21 [ms]
nonecudaGKOCG:  Solving for p, Initial residual = 0.907479, Final residual = 9.35579e-05, No Iterations 2245
[INFO] SolveP: 10133.8 [ms]
time step continuity errors : sum local = 1.25865e-08, global = 5.1056e-22, cumulative = 1.70981e-20
[INFO] ContinuityError: 75.861 [ms]
[INFO] CorrectBoundary: 0.991 [ms]
[INFO] PISOStep: 11508 [ms]
[INFO] MatrixAssemblyPI: 724.825 [ms]
[INFO] AdjustPhi: 44.058 [ms]
[INFO] ConstrainPressure: 0.002 [ms]
[INFO] MatrixAssemblyPII: 231.978 [ms]
[OGL LOG][Proc: 0]: global_index_init: 0.161 [ms]
[OGL LOG][Proc: 0]p_local_coeffs: call_update: 0 [ms]
[OGL LOG][Proc: 0]p_non_local_coeffs: call_update: 0 [ms]
[OGL LOG][Proc: 0]p: update_local_matrix_data: 142.073 [ms]
[OGL LOG][Proc: 0]p: update_non_local_matrix_data: 0.382 [ms]
[OGL LOG][Proc: 0]p: regenerate_distributed_matrix: 379.121 [ms]
[OGL LOG][Proc: 0]p_matrix: call_update: 381.978 [ms]
[OGL LOG][Proc: 0]p_rhs: call_update: 4.236 [ms]
[OGL LOG][Proc: 0]p: init_precond: 0.027 [ms]
[OGL LOG][StoppingCriterion.H:237] Creating stopping criterion with minIter 1347 frequency 17
[OGL LOG][Proc: 0]p: generate_solver: 0.002 [ms]
[OGL LOG][Proc: 0]p: solve: 9790.16 [ms]
[OGL LOG][Proc: 0]p: copy_x_back: 10.698 [ms]
[OGL LOG][lduLduBase.H:330] 
Statistics:
	Time per iteration: 4264 [mu s]
	Time per residual norm calculation: 1294.000000 [mu s]
	Time per iteration and DOF: 0.157926 [ns]
	Retrieve results bandwidth 2.523000 [GByte/s]
[OGL LOG][Proc: 0]p: solve_multi_gpu: 10193.2 [ms]
nonecudaGKOCG:  Solving for p, Initial residual = 0.840487, Final residual = 8.69849e-05, No Iterations 2296
[INFO] SolveP: 10358.2 [ms]
time step continuity errors : sum local = 1.1663e-08, global = 5.57547e-22, cumulative = 1.76556e-20
[INFO] ContinuityError: 75.645 [ms]
[INFO] CorrectBoundary: 1.009 [ms]
[INFO] PISOStep: 11703.4 [ms]
[INFO] TimeStep: 29124.6 [ms]
ExecutionTime = 547.34 s  ClockTime = 550 s

Time = 0.00332

Courant Number mean: 0.050419 max: 0.499825
[INFO] MatrixAssemblyU: 644.193 [ms]
DILUPBiCGStab:  Solving for Ux, Initial residual = 0.0150186, Final residual = 0.00108467, No Iterations 5
DILUPBiCGStab:  Solving for Uy, Initial residual = 0.0548281, Final residual = 0.00297749, No Iterations 5
DILUPBiCGStab:  Solving for Uz, Initial residual = 0.491739, Final residual = 0.0151487, No Iterations 5
[INFO] MomentumPredictor: 5183.38 [ms]
[INFO] MatrixAssemblyPI: 744.531 [ms]
[INFO] AdjustPhi: 44.09 [ms]
[INFO] ConstrainPressure: 0.002 [ms]
[INFO] MatrixAssemblyPII: 237.765 [ms]
[OGL LOG][Proc: 0]: global_index_init: 0.318 [ms]
[OGL LOG][Proc: 0]p_local_coeffs: call_update: 0 [ms]
[OGL LOG][Proc: 0]p_non_local_coeffs: call_update: 0 [ms]
[OGL LOG][Proc: 0]p: update_local_matrix_data: 147.526 [ms]
[OGL LOG][Proc: 0]p: update_non_local_matrix_data: 0.414 [ms]
[OGL LOG][Proc: 0]p: regenerate_distributed_matrix: 386.112 [ms]
[OGL LOG][Proc: 0]p_matrix: call_update: 389.501 [ms]
[OGL LOG][Proc: 0]p_rhs: call_update: 15.621 [ms]
[OGL LOG][Proc: 0]p: init_precond: 0.027 [ms]
[OGL LOG][StoppingCriterion.H:237] Creating stopping criterion with minIter 1377 frequency 17
[OGL LOG][Proc: 0]p: generate_solver: 0.001 [ms]
[OGL LOG][Proc: 0]p: solve: 9903.99 [ms]
[OGL LOG][Proc: 0]p: copy_x_back: 11.256 [ms]
[OGL LOG][lduLduBase.H:330] 
Statistics:
	Time per iteration: 4281 [mu s]
	Time per residual norm calculation: 1080.000000 [mu s]
	Time per iteration and DOF: 0.158556 [ns]
	Retrieve results bandwidth 2.398000 [GByte/s]
[OGL LOG][Proc: 0]p: solve_multi_gpu: 10342.3 [ms]
nonecudaGKOCG:  Solving for p, Initial residual = 0.899773, Final residual = 7.08491e-05, No Iterations 2313
[INFO] SolveP: 10512 [ms]
time step continuity errors : sum local = 9.90341e-09, global = 1.62752e-21, cumulative = 1.92831e-20
[INFO] ContinuityError: 75.548 [ms]
[INFO] CorrectBoundary: 0.978 [ms]
[INFO] PISOStep: 11884.4 [ms]
[INFO] MatrixAssemblyPI: 723.561 [ms]
[INFO] AdjustPhi: 44.128 [ms]
[INFO] ConstrainPressure: 0.003 [ms]
[INFO] MatrixAssemblyPII: 231.992 [ms]
[OGL LOG][Proc: 0]: global_index_init: 0.106 [ms]
[OGL LOG][Proc: 0]p_local_coeffs: call_update: 0 [ms]
[OGL LOG][Proc: 0]p_non_local_coeffs: call_update: 0 [ms]
[OGL LOG][Proc: 0]p: update_local_matrix_data: 142.753 [ms]
[OGL LOG][Proc: 0]p: update_non_local_matrix_data: 0.388 [ms]
[OGL LOG][Proc: 0]p: regenerate_distributed_matrix: 378.954 [ms]
[OGL LOG][Proc: 0]p_matrix: call_update: 381.408 [ms]
[OGL LOG][Proc: 0]p_rhs: call_update: 4.287 [ms]
[OGL LOG][Proc: 0]p: init_precond: 0.027 [ms]
[OGL LOG][StoppingCriterion.H:237] Creating stopping criterion with minIter 1387 frequency 17
[OGL LOG][Proc: 0]p: generate_solver: 0.002 [ms]
[OGL LOG][Proc: 0]p: solve: 9779.82 [ms]
[OGL LOG][Proc: 0]p: copy_x_back: 10.785 [ms]
[OGL LOG][lduLduBase.H:330] 
Statistics:
	Time per iteration: 4259 [mu s]
	Time per residual norm calculation: 999.000000 [mu s]
	Time per iteration and DOF: 0.157741 [ns]
	Retrieve results bandwidth 2.503000 [GByte/s]
[OGL LOG][Proc: 0]p: solve_multi_gpu: 10179.8 [ms]
nonecudaGKOCG:  Solving for p, Initial residual = 0.824717, Final residual = 9.43615e-05, No Iterations 2296
[INFO] SolveP: 10346.6 [ms]
time step continuity errors : sum local = 1.32752e-08, global = 1.58135e-21, cumulative = 2.08645e-20
[INFO] ContinuityError: 78.876 [ms]
[INFO] CorrectBoundary: 3.653 [ms]
[INFO] PISOStep: 11698 [ms]
[INFO] TimeStep: 29487.2 [ms]
ExecutionTime = 576.75 s  ClockTime = 579 s

End

Finalising parallel run
