/*---------------------------------------------------------------------------*\
| =========                 |                                                 |
| \\      /  F ield         | OpenFOAM: The Open Source CFD Toolbox           |
|  \\    /   O peration     | Version:  2306                                  |
|   \\  /    A nd           | Website:  www.openfoam.com                      |
|    \\/     M anipulation  |                                                 |
\*---------------------------------------------------------------------------*/
Build  : c423ebec-20231012 OPENFOAM=2306 version=v2306
Arch   : "LSB;label=32;scalar=64"
Exec   : icoFoam -parallel -case /hkfs/work/workspace/scratch/eq4036-l3d/workspace/bc2c4f96a57390c33623ad28676cb439/case
Date   : Dec 30 2023
Time   : 00:33:42
Host   : hkn0841.localdomain
PID    : 52122
I/O    : uncollated
Case   : /hkfs/work/workspace/scratch/eq4036-l3d/workspace/bc2c4f96a57390c33623ad28676cb439/case
nProcs : 76
Hosts  :
(
    (hkn0841.localdomain 76)
)
Pstream initialized with:
    floatTransfer      : false
    nProcsSimpleSum    : 0
    nonBlockingExchange: 0 (tuning: 0)
    exchange algorithm : -1
    commsType          : nonBlocking
    polling iterations : 0
trapFpe: Floating point exception trapping enabled (FOAM_SIGFPE).
fileModificationChecking : Monitoring run-time modified files using timeStampMaster (fileModificationSkew 5, maxFileModificationPolls 20)
allowSystemOperations : Allowing user-supplied system call operations

// * * * * * * * * * * * * * * * * * * * * * * * * * * * * * * * * * * * * * //
Create time

--> FOAM Warning : 
    From void* Foam::dlLibraryTable::openLibrary(const Foam::fileName&, bool)
    in file db/dynamicLibrary/dlLibraryTable/dlLibraryTable.C at line 188
    Could not load "libpetscFoam.so"
libpetscFoam.so: cannot open shared object file: No such file or directory
Create mesh for time = 0


PISO: Operating solver in PISO mode

Reading transportProperties

Reading field p

Reading field U

Reading/calculating face flux field phi


Starting time loop

Time = 0.000125

Courant Number mean: 8.02505e-18 max: 4.85723e-14
[INFO] MatrixAssemblyU: 538.815 [ms]
DILUPBiCGStab:  Solving for Ux, Initial residual = 1, Final residual = 0.0261796, No Iterations 5
DILUPBiCGStab:  Solving for Uy:  solution singularity
DILUPBiCGStab:  Solving for Uz:  solution singularity
[INFO] MomentumPredictor: 1776.31 [ms]
[INFO] MatrixAssemblyPI: 562.92 [ms]
[INFO] AdjustPhi: 28.913 [ms]
[INFO] ConstrainPressure: 0.007 [ms]
[INFO] MatrixAssemblyPII: 132.599 [ms]
DICPCG:  Solving for p, Initial residual = 1, Final residual = 9.56496e-05, No Iterations 1362
[INFO] SolveP: 116019 [ms]
time step continuity errors : sum local = 3.32944e-09, global = 2.846e-21, cumulative = 2.846e-21
[INFO] ContinuityError: 60.685 [ms]
[INFO] CorrectBoundary: 7.401 [ms]
[INFO] PISOStep: 117006 [ms]
[INFO] MatrixAssemblyPI: 541.428 [ms]
[INFO] AdjustPhi: 19.451 [ms]
[INFO] ConstrainPressure: 0.004 [ms]
[INFO] MatrixAssemblyPII: 132.683 [ms]
DICPCG:  Solving for p, Initial residual = 0.814204, Final residual = 9.98066e-05, No Iterations 1364
[INFO] SolveP: 115813 [ms]
time step continuity errors : sum local = 4.09373e-09, global = 2.61562e-21, cumulative = 5.46162e-21
[INFO] ContinuityError: 51.641 [ms]
[INFO] CorrectBoundary: 2.874 [ms]
[INFO] PISOStep: 116760 [ms]
[INFO] TimeStep: 236152 [ms]
ExecutionTime = 237.04 s  ClockTime = 238 s

Time = 0.00025

Courant Number mean: 0.0105485 max: 0.436449
[INFO] MatrixAssemblyU: 420.621 [ms]
DILUPBiCGStab:  Solving for Ux, Initial residual = 0.108666, Final residual = 0.0159869, No Iterations 5
DILUPBiCGStab:  Solving for Uy, Initial residual = 0.487227, Final residual = 0.0585703, No Iterations 5
DILUPBiCGStab:  Solving for Uz, Initial residual = 0.986288, Final residual = 0.139202, No Iterations 5
[INFO] MomentumPredictor: 3407.14 [ms]
[INFO] MatrixAssemblyPI: 552.793 [ms]
[INFO] AdjustPhi: 19.831 [ms]
[INFO] ConstrainPressure: 0.003 [ms]
[INFO] MatrixAssemblyPII: 132.305 [ms]
DICPCG:  Solving for p, Initial residual = 0.922269, Final residual = 9.96686e-05, No Iterations 679
[INFO] SolveP: 57698.1 [ms]
time step continuity errors : sum local = 9.20894e-09, global = 2.83534e-21, cumulative = 8.29696e-21
[INFO] ContinuityError: 52.932 [ms]
[INFO] CorrectBoundary: 4.981 [ms]
[INFO] PISOStep: 58661.3 [ms]
[INFO] MatrixAssemblyPI: 533.945 [ms]
[INFO] AdjustPhi: 19.258 [ms]
[INFO] ConstrainPressure: 0.003 [ms]
[INFO] MatrixAssemblyPII: 132.963 [ms]
DICPCG:  Solving for p, Initial residual = 0.840586, Final residual = 9.82405e-05, No Iterations 672
[INFO] SolveP: 57805.1 [ms]
time step continuity errors : sum local = 8.83606e-09, global = 2.57548e-21, cumulative = 1.08724e-20
[INFO] ContinuityError: 55.964 [ms]
[INFO] CorrectBoundary: 1.98 [ms]
[INFO] PISOStep: 58749.1 [ms]
[INFO] TimeStep: 121296 [ms]
ExecutionTime = 357.79 s  ClockTime = 360 s

Time = 0.000375

Courant Number mean: 0.0166095 max: 0.509379
[INFO] MatrixAssemblyU: 419.842 [ms]
DILUPBiCGStab:  Solving for Ux, Initial residual = 0.0536138, Final residual = 0.00657497, No Iterations 5
DILUPBiCGStab:  Solving for Uy, Initial residual = 0.260736, Final residual = 0.0301051, No Iterations 5
DILUPBiCGStab:  Solving for Uz, Initial residual = 0.868372, Final residual = 0.103748, No Iterations 5
[INFO] MomentumPredictor: 3399.07 [ms]
[INFO] MatrixAssemblyPI: 555.617 [ms]
[INFO] AdjustPhi: 18.755 [ms]
[INFO] ConstrainPressure: 0.003 [ms]
[INFO] MatrixAssemblyPII: 131.387 [ms]
DICPCG:  Solving for p, Initial residual = 0.948761, Final residual = 9.91981e-05, No Iterations 593
[INFO] SolveP: 50964.9 [ms]
time step continuity errors : sum local = 1.15175e-08, global = 3.43807e-21, cumulative = 1.43105e-20
[INFO] ContinuityError: 56.592 [ms]
[INFO] CorrectBoundary: 6.317 [ms]
[INFO] PISOStep: 51926.2 [ms]
[INFO] MatrixAssemblyPI: 538.522 [ms]
[INFO] AdjustPhi: 54.246 [ms]
[INFO] ConstrainPressure: 0.005 [ms]
[INFO] MatrixAssemblyPII: 131.354 [ms]
DICPCG:  Solving for p, Initial residual = 0.889249, Final residual = 9.71195e-05, No Iterations 589
[INFO] SolveP: 50656.6 [ms]
time step continuity errors : sum local = 1.03662e-08, global = 2.74528e-21, cumulative = 1.70558e-20
[INFO] ContinuityError: 55.237 [ms]
[INFO] CorrectBoundary: 2.676 [ms]
[INFO] PISOStep: 51645.2 [ms]
[INFO] TimeStep: 107445 [ms]
ExecutionTime = 464.77 s  ClockTime = 467 s

Time = 0.0005

Courant Number mean: 0.0202121 max: 0.476395
[INFO] MatrixAssemblyU: 418.298 [ms]
DILUPBiCGStab:  Solving for Ux, Initial residual = 0.0415968, Final residual = 0.00618863, No Iterations 5
DILUPBiCGStab:  Solving for Uy, Initial residual = 0.211154, Final residual = 0.0273664, No Iterations 5
DILUPBiCGStab:  Solving for Uz, Initial residual = 0.775915, Final residual = 0.0812459, No Iterations 5
[INFO] MomentumPredictor: 3389.28 [ms]
[INFO] MatrixAssemblyPI: 553.319 [ms]
[INFO] AdjustPhi: 22.014 [ms]
[INFO] ConstrainPressure: 0.003 [ms]
[INFO] MatrixAssemblyPII: 128.751 [ms]
DICPCG:  Solving for p, Initial residual = 0.945522, Final residual = 9.97106e-05, No Iterations 1248
[INFO] SolveP: 106329 [ms]
time step continuity errors : sum local = 1.24415e-08, global = 3.98381e-21, cumulative = 2.10396e-20
[INFO] ContinuityError: 54.2 [ms]
[INFO] CorrectBoundary: 4.437 [ms]
[INFO] PISOStep: 107292 [ms]
[INFO] MatrixAssemblyPI: 541.337 [ms]
[INFO] AdjustPhi: 22.117 [ms]
[INFO] ConstrainPressure: 0.003 [ms]
[INFO] MatrixAssemblyPII: 132.466 [ms]
DICPCG:  Solving for p, Initial residual = 0.867025, Final residual = 9.92155e-05, No Iterations 1247
[INFO] SolveP: 105939 [ms]
time step continuity errors : sum local = 1.25968e-08, global = 3.47575e-21, cumulative = 2.45153e-20
[INFO] ContinuityError: 54.584 [ms]
[INFO] CorrectBoundary: 2.36 [ms]
[INFO] PISOStep: 106891 [ms]
[INFO] TimeStep: 218048 [ms]
ExecutionTime = 681.83 s  ClockTime = 685 s

Time = 0.000625

Courant Number mean: 0.0232276 max: 0.551962
[INFO] MatrixAssemblyU: 418.32 [ms]
DILUPBiCGStab:  Solving for Ux, Initial residual = 0.0373033, Final residual = 0.00563479, No Iterations 5
DILUPBiCGStab:  Solving for Uy, Initial residual = 0.181648, Final residual = 0.0225543, No Iterations 5
DILUPBiCGStab:  Solving for Uz, Initial residual = 0.73913, Final residual = 0.0636922, No Iterations 5
[INFO] MomentumPredictor: 3423.89 [ms]
[INFO] MatrixAssemblyPI: 557.216 [ms]
[INFO] AdjustPhi: 29.405 [ms]
[INFO] ConstrainPressure: 0.003 [ms]
[INFO] MatrixAssemblyPII: 133.966 [ms]
DICPCG:  Solving for p, Initial residual = 0.959248, Final residual = 9.77197e-05, No Iterations 1242
[INFO] SolveP: 105725 [ms]
time step continuity errors : sum local = 1.37458e-08, global = 5.0588e-21, cumulative = 2.95742e-20
[INFO] ContinuityError: 56.268 [ms]
[INFO] CorrectBoundary: 4.447 [ms]
[INFO] PISOStep: 106702 [ms]
[INFO] MatrixAssemblyPI: 538.214 [ms]
[INFO] AdjustPhi: 55.42 [ms]
[INFO] ConstrainPressure: 0.004 [ms]
[INFO] MatrixAssemblyPII: 130.615 [ms]
DICPCG:  Solving for p, Initial residual = 0.899135, Final residual = 9.72718e-05, No Iterations 1241
[INFO] SolveP: 105656 [ms]
time step continuity errors : sum local = 1.36123e-08, global = 3.5702e-21, cumulative = 3.31443e-20
[INFO] ContinuityError: 54.057 [ms]
[INFO] CorrectBoundary: 1.689 [ms]
[INFO] PISOStep: 106643 [ms]
[INFO] TimeStep: 217244 [ms]
ExecutionTime = 898.11 s  ClockTime = 902 s

Time = 0.00075

Courant Number mean: 0.0255284 max: 0.48198
[INFO] MatrixAssemblyU: 418.555 [ms]
DILUPBiCGStab:  Solving for Ux, Initial residual = 0.0349481, Final residual = 0.00525311, No Iterations 5
DILUPBiCGStab:  Solving for Uy, Initial residual = 0.167045, Final residual = 0.0192437, No Iterations 5
DILUPBiCGStab:  Solving for Uz, Initial residual = 0.6784, Final residual = 0.0553509, No Iterations 5
[INFO] MomentumPredictor: 3417.09 [ms]
[INFO] MatrixAssemblyPI: 554.058 [ms]
[INFO] AdjustPhi: 36.682 [ms]
[INFO] ConstrainPressure: 0.005 [ms]
[INFO] MatrixAssemblyPII: 131.541 [ms]
DICPCG:  Solving for p, Initial residual = 0.955874, Final residual = 9.87666e-05, No Iterations 1225
[INFO] SolveP: 104197 [ms]
time step continuity errors : sum local = 1.58501e-08, global = 3.67387e-21, cumulative = 3.68182e-20
[INFO] ContinuityError: 53.601 [ms]
[INFO] CorrectBoundary: 4.642 [ms]
[INFO] PISOStep: 105178 [ms]
[INFO] MatrixAssemblyPI: 539.915 [ms]
[INFO] AdjustPhi: 20.97 [ms]
[INFO] ConstrainPressure: 0.005 [ms]
[INFO] MatrixAssemblyPII: 132.923 [ms]
DICPCG:  Solving for p, Initial residual = 0.879303, Final residual = 9.88838e-05, No Iterations 1215
[INFO] SolveP: 103101 [ms]
time step continuity errors : sum local = 1.61004e-08, global = 3.96241e-21, cumulative = 4.07806e-20
[INFO] ContinuityError: 58.502 [ms]
[INFO] CorrectBoundary: 6.416 [ms]
[INFO] PISOStep: 104051 [ms]
[INFO] TimeStep: 213120 [ms]
ExecutionTime = 1110.33 s  ClockTime = 1115 s

Time = 0.000875

Courant Number mean: 0.0276758 max: 0.60268
[INFO] MatrixAssemblyU: 420.449 [ms]
DILUPBiCGStab:  Solving for Ux, Initial residual = 0.0343115, Final residual = 0.00497176, No Iterations 5
DILUPBiCGStab:  Solving for Uy, Initial residual = 0.170224, Final residual = 0.0182095, No Iterations 5
DILUPBiCGStab:  Solving for Uz, Initial residual = 0.680328, Final residual = 0.0505889, No Iterations 5
[INFO] MomentumPredictor: 3417.04 [ms]
[INFO] MatrixAssemblyPI: 549.823 [ms]
[INFO] AdjustPhi: 25.897 [ms]
[INFO] ConstrainPressure: 0.004 [ms]
[INFO] MatrixAssemblyPII: 130.393 [ms]
DICPCG:  Solving for p, Initial residual = 0.965598, Final residual = 9.9122e-05, No Iterations 1198
[INFO] SolveP: 101590 [ms]
time step continuity errors : sum local = 1.76728e-08, global = 4.02179e-21, cumulative = 4.48024e-20
[INFO] ContinuityError: 59.806 [ms]
[INFO] CorrectBoundary: 4.466 [ms]
[INFO] PISOStep: 102555 [ms]
[INFO] MatrixAssemblyPI: 541.753 [ms]
[INFO] AdjustPhi: 18.726 [ms]
[INFO] ConstrainPressure: 0.004 [ms]
[INFO] MatrixAssemblyPII: 134.752 [ms]
DICPCG:  Solving for p, Initial residual = 0.903382, Final residual = 9.93203e-05, No Iterations 1197
[INFO] SolveP: 101464 [ms]
time step continuity errors : sum local = 1.7652e-08, global = 4.5617e-21, cumulative = 4.93641e-20
[INFO] ContinuityError: 53.358 [ms]
[INFO] CorrectBoundary: 3.344 [ms]
[INFO] PISOStep: 102409 [ms]
[INFO] TimeStep: 208865 [ms]
ExecutionTime = 1318.26 s  ClockTime = 1324 s

Time = 0.001

Courant Number mean: 0.0293994 max: 0.489529
[INFO] MatrixAssemblyU: 422.225 [ms]
DILUPBiCGStab:  Solving for Ux, Initial residual = 0.0351156, Final residual = 0.00477656, No Iterations 5
DILUPBiCGStab:  Solving for Uy, Initial residual = 0.162654, Final residual = 0.015819, No Iterations 5
DILUPBiCGStab:  Solving for Uz, Initial residual = 0.664613, Final residual = 0.0494804, No Iterations 5
[INFO] MomentumPredictor: 3414.61 [ms]
[INFO] MatrixAssemblyPI: 550.137 [ms]
[INFO] AdjustPhi: 21.498 [ms]
[INFO] ConstrainPressure: 0.003 [ms]
[INFO] MatrixAssemblyPII: 129.924 [ms]
DICPCG:  Solving for p, Initial residual = 0.963082, Final residual = 9.97001e-05, No Iterations 1202
[INFO] SolveP: 103092 [ms]
time step continuity errors : sum local = 2.01135e-08, global = 4.21587e-21, cumulative = 5.358e-20
[INFO] ContinuityError: 56.104 [ms]
[INFO] CorrectBoundary: 4.824 [ms]
[INFO] PISOStep: 104052 [ms]
[INFO] MatrixAssemblyPI: 540.546 [ms]
[INFO] AdjustPhi: 24.767 [ms]
[INFO] ConstrainPressure: 0.004 [ms]
[INFO] MatrixAssemblyPII: 133.898 [ms]
DICPCG:  Solving for p, Initial residual = 0.886632, Final residual = 9.77252e-05, No Iterations 1199
[INFO] SolveP: 101925 [ms]
time step continuity errors : sum local = 1.99828e-08, global = 4.39721e-21, cumulative = 5.79772e-20
[INFO] ContinuityError: 52.394 [ms]
[INFO] CorrectBoundary: 4.594 [ms]
[INFO] PISOStep: 102876 [ms]
[INFO] TimeStep: 210821 [ms]
ExecutionTime = 1528.14 s  ClockTime = 1535 s

Time = 0.001125

Courant Number mean: 0.0311552 max: 0.675199
[INFO] MatrixAssemblyU: 419.654 [ms]
DILUPBiCGStab:  Solving for Ux, Initial residual = 0.0358308, Final residual = 0.00450792, No Iterations 5
DILUPBiCGStab:  Solving for Uy, Initial residual = 0.177101, Final residual = 0.0163181, No Iterations 5
DILUPBiCGStab:  Solving for Uz, Initial residual = 0.682044, Final residual = 0.0468247, No Iterations 5
[INFO] MomentumPredictor: 3422.15 [ms]
[INFO] MatrixAssemblyPI: 556.735 [ms]
[INFO] AdjustPhi: 20.534 [ms]
[INFO] ConstrainPressure: 0.003 [ms]
[INFO] MatrixAssemblyPII: 132.848 [ms]
DICPCG:  Solving for p, Initial residual = 0.970235, Final residual = 9.80614e-05, No Iterations 1093
[INFO] SolveP: 93197.2 [ms]
time step continuity errors : sum local = 2.22312e-08, global = 4.88141e-21, cumulative = 6.28586e-20
[INFO] ContinuityError: 51.406 [ms]
[INFO] CorrectBoundary: 4.604 [ms]
[INFO] PISOStep: 94161.1 [ms]
[INFO] MatrixAssemblyPI: 542.658 [ms]
[INFO] AdjustPhi: 18.439 [ms]
[INFO] ConstrainPressure: 0.003 [ms]
[INFO] MatrixAssemblyPII: 134.519 [ms]
DICPCG:  Solving for p, Initial residual = 0.9063, Final residual = 9.71956e-05, No Iterations 1142
[INFO] SolveP: 96955.4 [ms]
time step continuity errors : sum local = 2.2005e-08, global = 5.1402e-21, cumulative = 6.79988e-20
[INFO] ContinuityError: 50.622 [ms]
[INFO] CorrectBoundary: 2.438 [ms]
[INFO] PISOStep: 97903.9 [ms]
[INFO] TimeStep: 195968 [ms]
ExecutionTime = 1723.26 s  ClockTime = 1731 s

Time = 0.00125

Courant Number mean: 0.032551 max: 0.503096
[INFO] MatrixAssemblyU: 421.974 [ms]
DILUPBiCGStab:  Solving for Ux, Initial residual = 0.0385469, Final residual = 0.00457816, No Iterations 5
DILUPBiCGStab:  Solving for Uy, Initial residual = 0.174117, Final residual = 0.0144422, No Iterations 5
DILUPBiCGStab:  Solving for Uz, Initial residual = 0.673592, Final residual = 0.0428428, No Iterations 5
[INFO] MomentumPredictor: 3381.33 [ms]
[INFO] MatrixAssemblyPI: 551.879 [ms]
[INFO] AdjustPhi: 33.883 [ms]
[INFO] ConstrainPressure: 0.004 [ms]
[INFO] MatrixAssemblyPII: 131.274 [ms]
DICPCG:  Solving for p, Initial residual = 0.9693, Final residual = 9.72087e-05, No Iterations 1198
[INFO] SolveP: 102070 [ms]
time step continuity errors : sum local = 2.52561e-08, global = 2.16841e-21, cumulative = 7.01672e-20
[INFO] ContinuityError: 50.92 [ms]
[INFO] CorrectBoundary: 5.26 [ms]
[INFO] PISOStep: 103050 [ms]
[INFO] MatrixAssemblyPI: 536.822 [ms]
[INFO] AdjustPhi: 20.438 [ms]
[INFO] ConstrainPressure: 0.003 [ms]
[INFO] MatrixAssemblyPII: 133.877 [ms]
DICPCG:  Solving for p, Initial residual = 0.893245, Final residual = 9.61272e-05, No Iterations 1197
[INFO] SolveP: 101876 [ms]
time step continuity errors : sum local = 2.52876e-08, global = 4.61606e-21, cumulative = 7.47833e-20
[INFO] ContinuityError: 51.361 [ms]
[INFO] CorrectBoundary: 2.456 [ms]
[INFO] PISOStep: 102821 [ms]
[INFO] TimeStep: 209730 [ms]
ExecutionTime = 1932.08 s  ClockTime = 1941 s

Time = 0.001375

Courant Number mean: 0.034091 max: 0.784403
[INFO] MatrixAssemblyU: 422.934 [ms]
DILUPBiCGStab:  Solving for Ux, Initial residual = 0.0405112, Final residual = 0.00436487, No Iterations 5
DILUPBiCGStab:  Solving for Uy, Initial residual = 0.194873, Final residual = 0.0156367, No Iterations 5
DILUPBiCGStab:  Solving for Uz, Initial residual = 0.68996, Final residual = 0.0427708, No Iterations 5
[INFO] MomentumPredictor: 3416.37 [ms]
[INFO] MatrixAssemblyPI: 552.09 [ms]
[INFO] AdjustPhi: 25.539 [ms]
[INFO] ConstrainPressure: 0.004 [ms]
[INFO] MatrixAssemblyPII: 130.31 [ms]
DICPCG:  Solving for p, Initial residual = 0.974538, Final residual = 9.84834e-05, No Iterations 1152
[INFO] SolveP: 98348.5 [ms]
time step continuity errors : sum local = 2.91725e-08, global = 6.20308e-21, cumulative = 8.09864e-20
[INFO] ContinuityError: 52.824 [ms]
[INFO] CorrectBoundary: 4.344 [ms]
[INFO] PISOStep: 99315.7 [ms]
[INFO] MatrixAssemblyPI: 542.578 [ms]
[INFO] AdjustPhi: 19.718 [ms]
[INFO] ConstrainPressure: 0.003 [ms]
[INFO] MatrixAssemblyPII: 133.535 [ms]
DICPCG:  Solving for p, Initial residual = 0.909189, Final residual = 9.99107e-05, No Iterations 1151
[INFO] SolveP: 97345.5 [ms]
time step continuity errors : sum local = 2.96058e-08, global = 5.29732e-21, cumulative = 8.62837e-20
[INFO] ContinuityError: 52.066 [ms]
[INFO] CorrectBoundary: 2.114 [ms]
[INFO] PISOStep: 98296.7 [ms]
[INFO] TimeStep: 201511 [ms]
ExecutionTime = 2132.72 s  ClockTime = 2142 s

Time = 0.0015

Courant Number mean: 0.0352743 max: 0.541806
[INFO] MatrixAssemblyU: 421.995 [ms]
DILUPBiCGStab:  Solving for Ux, Initial residual = 0.0449009, Final residual = 0.00460317, No Iterations 5
DILUPBiCGStab:  Solving for Uy, Initial residual = 0.196811, Final residual = 0.0143551, No Iterations 5
DILUPBiCGStab:  Solving for Uz, Initial residual = 0.696542, Final residual = 0.0446673, No Iterations 5
[INFO] MomentumPredictor: 3397.06 [ms]
[INFO] MatrixAssemblyPI: 549.821 [ms]
[INFO] AdjustPhi: 43.626 [ms]
[INFO] ConstrainPressure: 0.003 [ms]
[INFO] MatrixAssemblyPII: 130.117 [ms]
DICPCG:  Solving for p, Initial residual = 0.974412, Final residual = 9.77429e-05, No Iterations 1197
[INFO] SolveP: 102294 [ms]
time step continuity errors : sum local = 3.33906e-08, global = 4.30113e-21, cumulative = 9.05848e-20
[INFO] ContinuityError: 53.957 [ms]
[INFO] CorrectBoundary: 4.451 [ms]
[INFO] PISOStep: 103277 [ms]
[INFO] MatrixAssemblyPI: 541.934 [ms]
[INFO] AdjustPhi: 30.884 [ms]
[INFO] ConstrainPressure: 0.004 [ms]
[INFO] MatrixAssemblyPII: 133.6 [ms]
DICPCG:  Solving for p, Initial residual = 0.899602, Final residual = 9.8941e-05, No Iterations 1196
[INFO] SolveP: 101552 [ms]
time step continuity errors : sum local = 3.41877e-08, global = 4.87217e-21, cumulative = 9.5457e-20
[INFO] ContinuityError: 52.318 [ms]
[INFO] CorrectBoundary: 1.741 [ms]
[INFO] PISOStep: 102514 [ms]
[INFO] TimeStep: 209665 [ms]
ExecutionTime = 2341.5 s  ClockTime = 2352 s

Time = 0.001625

Courant Number mean: 0.0366916 max: 1.04406
[INFO] MatrixAssemblyU: 422.669 [ms]
DILUPBiCGStab:  Solving for Ux, Initial residual = 0.0483422, Final residual = 0.00450261, No Iterations 5
DILUPBiCGStab:  Solving for Uy, Initial residual = 0.221719, Final residual = 0.0158224, No Iterations 5
DILUPBiCGStab:  Solving for Uz, Initial residual = 0.710735, Final residual = 0.0426622, No Iterations 5
[INFO] MomentumPredictor: 3397.16 [ms]
[INFO] MatrixAssemblyPI: 551.144 [ms]
[INFO] AdjustPhi: 43.333 [ms]
[INFO] ConstrainPressure: 0.003 [ms]
[INFO] MatrixAssemblyPII: 130.89 [ms]
DICPCG:  Solving for p, Initial residual = 0.978042, Final residual = 9.78693e-05, No Iterations 1194
[INFO] SolveP: 101479 [ms]
time step continuity errors : sum local = 3.84686e-08, global = 6.52704e-21, cumulative = 1.01984e-19
[INFO] ContinuityError: 51.799 [ms]
[INFO] CorrectBoundary: 4.907 [ms]
[INFO] PISOStep: 102466 [ms]
[INFO] MatrixAssemblyPI: 541.923 [ms]
[INFO] AdjustPhi: 19.354 [ms]
[INFO] ConstrainPressure: 0.003 [ms]
[INFO] MatrixAssemblyPII: 133.107 [ms]
DICPCG:  Solving for p, Initial residual = 0.911864, Final residual = 9.99253e-05, No Iterations 1191
[INFO] SolveP: 101060 [ms]
time step continuity errors : sum local = 3.93508e-08, global = 5.09649e-21, cumulative = 1.07081e-19
[INFO] ContinuityError: 50.584 [ms]
[INFO] CorrectBoundary: 2.071 [ms]
[INFO] PISOStep: 102011 [ms]
[INFO] TimeStep: 208352 [ms]
ExecutionTime = 2548.95 s  ClockTime = 2560 s

Time = 0.00175

Courant Number mean: 0.0377312 max: 0.866646
[INFO] MatrixAssemblyU: 422.558 [ms]
DILUPBiCGStab:  Solving for Ux, Initial residual = 0.0547125, Final residual = 0.00485264, No Iterations 5
DILUPBiCGStab:  Solving for Uy, Initial residual = 0.229069, Final residual = 0.0151546, No Iterations 5
DILUPBiCGStab:  Solving for Uz, Initial residual = 0.711479, Final residual = 0.0431952, No Iterations 5
[INFO] MomentumPredictor: 3379.4 [ms]
[INFO] MatrixAssemblyPI: 554.054 [ms]
[INFO] AdjustPhi: 18.114 [ms]
[INFO] ConstrainPressure: 0.003 [ms]
[INFO] MatrixAssemblyPII: 130.815 [ms]
DICPCG:  Solving for p, Initial residual = 0.978514, Final residual = 9.85127e-05, No Iterations 1152
[INFO] SolveP: 97977.9 [ms]
time step continuity errors : sum local = 4.48986e-08, global = 6.74165e-21, cumulative = 1.13822e-19
[INFO] ContinuityError: 52.779 [ms]
[INFO] CorrectBoundary: 4.1 [ms]
[INFO] PISOStep: 98934.4 [ms]
[INFO] MatrixAssemblyPI: 544.947 [ms]
[INFO] AdjustPhi: 18.71 [ms]
[INFO] ConstrainPressure: 0.004 [ms]
[INFO] MatrixAssemblyPII: 133.426 [ms]
DICPCG:  Solving for p, Initial residual = 0.904745, Final residual = 9.90074e-05, No Iterations 1151
[INFO] SolveP: 97896.7 [ms]
time step continuity errors : sum local = 4.56039e-08, global = 5.05175e-21, cumulative = 1.18874e-19
[INFO] ContinuityError: 50.58 [ms]
[INFO] CorrectBoundary: 2.89 [ms]
[INFO] PISOStep: 98845.9 [ms]
[INFO] TimeStep: 201639 [ms]
ExecutionTime = 2749.74 s  ClockTime = 2762 s

Time = 0.001875

Courant Number mean: 0.0390882 max: 1.48104
[INFO] MatrixAssemblyU: 424.146 [ms]
DILUPBiCGStab:  Solving for Ux, Initial residual = 0.0599202, Final residual = 0.00490153, No Iterations 5
DILUPBiCGStab:  Solving for Uy, Initial residual = 0.257082, Final residual = 0.0167546, No Iterations 5
DILUPBiCGStab:  Solving for Uz, Initial residual = 0.721459, Final residual = 0.0422018, No Iterations 5
[INFO] MomentumPredictor: 3399.04 [ms]
[INFO] MatrixAssemblyPI: 549.685 [ms]
[INFO] AdjustPhi: 42.997 [ms]
[INFO] ConstrainPressure: 0.004 [ms]
[INFO] MatrixAssemblyPII: 129.877 [ms]
DICPCG:  Solving for p, Initial residual = 0.98079, Final residual = 9.95874e-05, No Iterations 1196
[INFO] SolveP: 101593 [ms]
time step continuity errors : sum local = 5.26048e-08, global = 4.42505e-21, cumulative = 1.23299e-19
[INFO] ContinuityError: 51.774 [ms]
[INFO] CorrectBoundary: 4.855 [ms]
[INFO] PISOStep: 102578 [ms]
[INFO] MatrixAssemblyPI: 538.622 [ms]
[INFO] AdjustPhi: 18.43 [ms]
[INFO] ConstrainPressure: 0.003 [ms]
[INFO] MatrixAssemblyPII: 133.472 [ms]
DICPCG:  Solving for p, Initial residual = 0.91371, Final residual = 9.48637e-05, No Iterations 1196
[INFO] SolveP: 101523 [ms]
time step continuity errors : sum local = 5.02737e-08, global = 6.14998e-21, cumulative = 1.29449e-19
[INFO] ContinuityError: 51.893 [ms]
[INFO] CorrectBoundary: 2.302 [ms]
[INFO] PISOStep: 102467 [ms]
[INFO] TimeStep: 208926 [ms]
ExecutionTime = 2957.76 s  ClockTime = 2971 s

Time = 0.002

Courant Number mean: 0.0400413 max: 1.41966
[INFO] MatrixAssemblyU: 421.003 [ms]
DILUPBiCGStab:  Solving for Ux, Initial residual = 0.0688363, Final residual = 0.00536535, No Iterations 5
DILUPBiCGStab:  Solving for Uy, Initial residual = 0.27014, Final residual = 0.0165602, No Iterations 5
DILUPBiCGStab:  Solving for Uz, Initial residual = 0.725171, Final residual = 0.0423234, No Iterations 5
[INFO] MomentumPredictor: 3381.02 [ms]
[INFO] MatrixAssemblyPI: 554.263 [ms]
[INFO] AdjustPhi: 26.952 [ms]
[INFO] ConstrainPressure: 0.004 [ms]
[INFO] MatrixAssemblyPII: 129.448 [ms]
DICPCG:  Solving for p, Initial residual = 0.981696, Final residual = 9.96772e-05, No Iterations 1199
[INFO] SolveP: 102136 [ms]
time step continuity errors : sum local = 6.13493e-08, global = 1.11808e-20, cumulative = 1.4063e-19
[INFO] ContinuityError: 51.343 [ms]
[INFO] CorrectBoundary: 4.623 [ms]
[INFO] PISOStep: 103106 [ms]
[INFO] MatrixAssemblyPI: 541.52 [ms]
[INFO] AdjustPhi: 17.511 [ms]
[INFO] ConstrainPressure: 0.004 [ms]
[INFO] MatrixAssemblyPII: 133.015 [ms]
DICPCG:  Solving for p, Initial residual = 0.908785, Final residual = 9.81733e-05, No Iterations 1198
[INFO] SolveP: 101858 [ms]
time step continuity errors : sum local = 6.10236e-08, global = 6.23053e-21, cumulative = 1.4686e-19
[INFO] ContinuityError: 50.748 [ms]
[INFO] CorrectBoundary: 1.755 [ms]
[INFO] PISOStep: 102804 [ms]
[INFO] TimeStep: 209769 [ms]
ExecutionTime = 3166.64 s  ClockTime = 3181 s

Time = 0.002125

Courant Number mean: 0.0413901 max: 2.15352
[INFO] MatrixAssemblyU: 420.337 [ms]
DILUPBiCGStab:  Solving for Ux, Initial residual = 0.0762922, Final residual = 0.00559144, No Iterations 5
DILUPBiCGStab:  Solving for Uy, Initial residual = 0.300765, Final residual = 0.0182306, No Iterations 5
DILUPBiCGStab:  Solving for Uz, Initial residual = 0.735917, Final residual = 0.0421334, No Iterations 5
[INFO] MomentumPredictor: 3403.46 [ms]
[INFO] MatrixAssemblyPI: 552.032 [ms]
[INFO] AdjustPhi: 26.503 [ms]
[INFO] ConstrainPressure: 0.003 [ms]
[INFO] MatrixAssemblyPII: 130.524 [ms]
DICPCG:  Solving for p, Initial residual = 0.982851, Final residual = 9.94537e-05, No Iterations 1154
[INFO] SolveP: 98080.6 [ms]
time step continuity errors : sum local = 7.14817e-08, global = 1.34815e-21, cumulative = 1.48208e-19
[INFO] ContinuityError: 52.316 [ms]
[INFO] CorrectBoundary: 4.443 [ms]
[INFO] PISOStep: 99049.9 [ms]
[INFO] MatrixAssemblyPI: 543.053 [ms]
[INFO] AdjustPhi: 19.352 [ms]
[INFO] ConstrainPressure: 0.004 [ms]
[INFO] MatrixAssemblyPII: 133.122 [ms]
DICPCG:  Solving for p, Initial residual = 0.914992, Final residual = 9.89353e-05, No Iterations 1156
[INFO] SolveP: 98276.6 [ms]
time step continuity errors : sum local = 7.14323e-08, global = 4.97616e-21, cumulative = 1.53185e-19
[INFO] ContinuityError: 55.626 [ms]
[INFO] CorrectBoundary: 4.454 [ms]
[INFO] PISOStep: 99232.1 [ms]
[INFO] TimeStep: 202166 [ms]
ExecutionTime = 3367.94 s  ClockTime = 3383 s

Time = 0.00225

Courant Number mean: 0.0423135 max: 2.30318
[INFO] MatrixAssemblyU: 427.174 [ms]
DILUPBiCGStab:  Solving for Ux, Initial residual = 0.0887792, Final residual = 0.00624541, No Iterations 5
DILUPBiCGStab:  Solving for Uy, Initial residual = 0.320052, Final residual = 0.0185239, No Iterations 5
DILUPBiCGStab:  Solving for Uz, Initial residual = 0.738884, Final residual = 0.0427904, No Iterations 5
[INFO] MomentumPredictor: 3430.65 [ms]
[INFO] MatrixAssemblyPI: 550.399 [ms]
[INFO] AdjustPhi: 21.752 [ms]
[INFO] ConstrainPressure: 0.004 [ms]
[INFO] MatrixAssemblyPII: 130.307 [ms]
DICPCG:  Solving for p, Initial residual = 0.984108, Final residual = 9.83287e-05, No Iterations 1200
[INFO] SolveP: 102438 [ms]
time step continuity errors : sum local = 8.28256e-08, global = 2.51901e-20, cumulative = 1.78375e-19
[INFO] ContinuityError: 51.459 [ms]
[INFO] CorrectBoundary: 4.519 [ms]
[INFO] PISOStep: 103397 [ms]
[INFO] MatrixAssemblyPI: 541.181 [ms]
[INFO] AdjustPhi: 19.93 [ms]
[INFO] ConstrainPressure: 0.004 [ms]
[INFO] MatrixAssemblyPII: 133.256 [ms]
DICPCG:  Solving for p, Initial residual = 0.911925, Final residual = 9.71101e-05, No Iterations 1199
[INFO] SolveP: 102485 [ms]
time step continuity errors : sum local = 8.25708e-08, global = 5.81237e-21, cumulative = 1.84187e-19
[INFO] ContinuityError: 51.618 [ms]
[INFO] CorrectBoundary: 2.462 [ms]
[INFO] PISOStep: 103435 [ms]
[INFO] TimeStep: 210752 [ms]
ExecutionTime = 3577.78 s  ClockTime = 3594 s

Time = 0.002375

Courant Number mean: 0.0437112 max: 3.18603
[INFO] MatrixAssemblyU: 422.97 [ms]
DILUPBiCGStab:  Solving for Ux, Initial residual = 0.0991917, Final residual = 0.00667109, No Iterations 5
DILUPBiCGStab:  Solving for Uy, Initial residual = 0.352107, Final residual = 0.0201879, No Iterations 5
DILUPBiCGStab:  Solving for Uz, Initial residual = 0.744625, Final residual = 0.0418764, No Iterations 5
[INFO] MomentumPredictor: 3414.58 [ms]
[INFO] MatrixAssemblyPI: 551.725 [ms]
[INFO] AdjustPhi: 21.067 [ms]
[INFO] ConstrainPressure: 0.004 [ms]
[INFO] MatrixAssemblyPII: 130.196 [ms]
DICPCG:  Solving for p, Initial residual = 0.984584, Final residual = 9.96589e-05, No Iterations 1195
[INFO] SolveP: 101886 [ms]
time step continuity errors : sum local = 9.87141e-08, global = 2.99837e-21, cumulative = 1.87185e-19
[INFO] ContinuityError: 51.153 [ms]
[INFO] CorrectBoundary: 4.66 [ms]
[INFO] PISOStep: 102841 [ms]
[INFO] MatrixAssemblyPI: 543.704 [ms]
[INFO] AdjustPhi: 19.575 [ms]
[INFO] ConstrainPressure: 0.005 [ms]
[INFO] MatrixAssemblyPII: 133.836 [ms]
DICPCG:  Solving for p, Initial residual = 0.916009, Final residual = 9.91467e-05, No Iterations 1194
[INFO] SolveP: 101517 [ms]
time step continuity errors : sum local = 9.87593e-08, global = 7.58672e-21, cumulative = 1.94772e-19
[INFO] ContinuityError: 51.702 [ms]
[INFO] CorrectBoundary: 1.881 [ms]
[INFO] PISOStep: 102468 [ms]
[INFO] TimeStep: 209202 [ms]
ExecutionTime = 3786.08 s  ClockTime = 3803 s

Time = 0.0025

Courant Number mean: 0.0446731 max: 3.69794
[INFO] MatrixAssemblyU: 421.287 [ms]
DILUPBiCGStab:  Solving for Ux, Initial residual = 0.116558, Final residual = 0.00761448, No Iterations 5
DILUPBiCGStab:  Solving for Uy, Initial residual = 0.376225, Final residual = 0.0208127, No Iterations 5
DILUPBiCGStab:  Solving for Uz, Initial residual = 0.743564, Final residual = 0.0419732, No Iterations 5
[INFO] MomentumPredictor: 3710.31 [ms]
[INFO] MatrixAssemblyPI: 554.038 [ms]
[INFO] AdjustPhi: 18.966 [ms]
[INFO] ConstrainPressure: 0.003 [ms]
[INFO] MatrixAssemblyPII: 131.235 [ms]
DICPCG:  Solving for p, Initial residual = 0.985625, Final residual = 9.74469e-05, No Iterations 1147
[INFO] SolveP: 98217.7 [ms]
time step continuity errors : sum local = 1.13811e-07, global = 5.92902e-21, cumulative = 2.00701e-19
[INFO] ContinuityError: 55.117 [ms]
[INFO] CorrectBoundary: 4.231 [ms]
[INFO] PISOStep: 99176.9 [ms]
[INFO] MatrixAssemblyPI: 539.361 [ms]
[INFO] AdjustPhi: 49.633 [ms]
[INFO] ConstrainPressure: 0.003 [ms]
[INFO] MatrixAssemblyPII: 134.022 [ms]
DICPCG:  Solving for p, Initial residual = 0.914052, Final residual = 9.86701e-05, No Iterations 1147
[INFO] SolveP: 97699.7 [ms]
time step continuity errors : sum local = 1.16296e-07, global = 7.72545e-21, cumulative = 2.08427e-19
[INFO] ContinuityError: 49.938 [ms]
[INFO] CorrectBoundary: 2.498 [ms]
[INFO] PISOStep: 98677.4 [ms]
[INFO] TimeStep: 202047 [ms]
ExecutionTime = 3987.3 s  ClockTime = 4005 s

End

Finalising parallel run
