/*---------------------------------------------------------------------------*\
| =========                 |                                                 |
| \\      /  F ield         | OpenFOAM: The Open Source CFD Toolbox           |
|  \\    /   O peration     | Version:  2306                                  |
|   \\  /    A nd           | Website:  www.openfoam.com                      |
|    \\/     M anipulation  |                                                 |
\*---------------------------------------------------------------------------*/
Build  : a6e826bd55-20230630 OPENFOAM=2306 version=v2306
Arch   : "LSB;label=32;scalar=64"
Exec   : icoFoam -parallel -case /tmp/lidDrivenCavity/workspace/bed8f03d7a656c487e182b3f3cd567c6/case
Date   : Jan 10 2024
Time   : 19:04:02
Host   : nla-gpu2.ianm.kit.edu
PID    : 435266
I/O    : uncollated
Case   : /tmp/lidDrivenCavity/workspace/bed8f03d7a656c487e182b3f3cd567c6/case
nProcs : 32
Hosts  :
(
    (nla-gpu2.ianm.kit.edu 32)
)
Pstream initialized with:
    floatTransfer      : false
    nProcsSimpleSum    : 0
    nonBlockingExchange: 0 (tuning: 0)
    exchange algorithm : -1
    commsType          : nonBlocking
    polling iterations : 0
trapFpe: Floating point exception trapping enabled (FOAM_SIGFPE).
fileModificationChecking : Monitoring run-time modified files using timeStampMaster (fileModificationSkew 5, maxFileModificationPolls 20)
allowSystemOperations : Allowing user-supplied system call operations

// * * * * * * * * * * * * * * * * * * * * * * * * * * * * * * * * * * * * * //
Create time

--> FOAM Warning : 
    From void* Foam::dlLibraryTable::openLibrary(const Foam::fileName&, bool)
    in file db/dynamicLibrary/dlLibraryTable/dlLibraryTable.C at line 188
    Could not load "libpetscFoam.so"
libpetscFoam.so: cannot open shared object file: No such file or directory
Create mesh for time = 0


PISO: Operating solver in PISO mode

Reading transportProperties

Reading field p

Reading field U

Reading/calculating face flux field phi


Starting time loop

Time = 0.000125

Courant Number mean: 8.02505e-18 max: 4.85723e-14
[INFO] MatrixAssemblyU: 554.716 [ms]
DILUPBiCGStab:  Solving for Ux, Initial residual = 1, Final residual = 0.0215184, No Iterations 5
DILUPBiCGStab:  Solving for Uy:  solution singularity
DILUPBiCGStab:  Solving for Uz:  solution singularity
[INFO] MomentumPredictor: 2076.51 [ms]
[INFO] MatrixAssemblyPI: 590.126 [ms]
[INFO] AdjustPhi: 27.618 [ms]
[INFO] ConstrainPressure: 0.007 [ms]
[INFO] MatrixAssemblyPII: 163.968 [ms]
[4] 
[4] 
[4] --> FOAM FATAL IO ERROR: (openfoam-2306)
[4] Entry 'smoother' not found in dictionary ""
[4] 
[4] 
[4]     From const Foam::entry& Foam::dictionary::lookupEntry(const Foam::word&, Foam::keyType::option) const
[4]     in file db/dictionary/dictionary.C at line 375.
[4] 
FOAM parallel run exiting
[4] 
application called MPI_Abort(MPI_COMM_WORLD, 1) - process 4
[cli_4]: aborting job:
application called MPI_Abort(MPI_COMM_WORLD, 1) - process 4
[16] 
[16] 
[16] --> FOAM FATAL IO ERROR: (openfoam-2306)
[16] Entry 'smoother' not found in dictionary ""
[16] 
[16] 
[16]     From const Foam::entry& Foam::dictionary::lookupEntry(const Foam::word&, Foam::keyType::option) const
[16]     in file db/dictionary/dictionary.C at line 375.
[16] 
FOAM parallel run exiting
[16] 
application called MPI_Abort(MPI_COMM_WORLD, 1) - process 16
[cli_16]: aborting job:
application called MPI_Abort(MPI_COMM_WORLD, 1) - process 16
[20] 
[20] 
[20] --> FOAM FATAL IO ERROR: (openfoam-2306)
[20] Entry 'smoother' not found in dictionary ""
[20] 
[20] 
[20]     From const Foam::entry& Foam::dictionary::lookupEntry(const Foam::word&, Foam::keyType::option) const
[20]     in file db/dictionary/dictionary.C at line 375.
[20] 
FOAM parallel run exiting
[20] 
application called MPI_Abort(MPI_COMM_WORLD, 1) - process 20
[cli_20]: aborting job:
application called MPI_Abort(MPI_COMM_WORLD, 1) - process 20
[0] 
[0] 
[0] --> FOAM FATAL IO ERROR: (openfoam-2306)
[0] Entry 'smoother' not found in dictionary ""
[0] 
[0] 
[0]     From const Foam::entry& Foam::dictionary::lookupEntry(const Foam::word&, Foam::keyType::option) const
[0]     in file db/dictionary/dictionary.C at line 375.
[0] 
FOAM parallel run exiting
[0] 
application called MPI_Abort(MPI_COMM_WORLD, 1) - process 0
[cli_0]: aborting job:
application called MPI_Abort(MPI_COMM_WORLD, 1) - process 0
[18] 
[18] 
[18] --> FOAM FATAL IO ERROR: (openfoam-2306)
[18] Entry 'smoother' not found in dictionary ""
[18] 
[18] 
[18]     From const Foam::entry& Foam::dictionary::lookupEntry(const Foam::word&, Foam::keyType::option) const
[18]     in file db/dictionary/dictionary.C at line 375.
[18] 
FOAM parallel run exiting
[18] 
application called MPI_Abort(MPI_COMM_WORLD, 1) - process 18
