/*---------------------------------------------------------------------------*\
| =========                 |                                                 |
| \\      /  F ield         | OpenFOAM: The Open Source CFD Toolbox           |
|  \\    /   O peration     | Version:  2306                                  |
|   \\  /    A nd           | Website:  www.openfoam.com                      |
|    \\/     M anipulation  |                                                 |
\*---------------------------------------------------------------------------*/
Build  : c423ebec-20231012 OPENFOAM=2306 version=v2306
Arch   : "LSB;label=32;scalar=64"
Exec   : icoFoam -parallel -case /hkfs/work/workspace/scratch/eq4036-l3d/workspace/9361f28b52c63f9bb5143f68a1e53455/case
Date   : Dec 30 2023
Time   : 00:53:51
Host   : hkn0842.localdomain
PID    : 3248613
I/O    : uncollated
Case   : /hkfs/work/workspace/scratch/eq4036-l3d/workspace/9361f28b52c63f9bb5143f68a1e53455/case
nProcs : 76
Hosts  :
(
    (hkn0842.localdomain 76)
)
Pstream initialized with:
    floatTransfer      : false
    nProcsSimpleSum    : 0
    nonBlockingExchange: 0 (tuning: 0)
    exchange algorithm : -1
    commsType          : nonBlocking
    polling iterations : 0
trapFpe: Floating point exception trapping enabled (FOAM_SIGFPE).
fileModificationChecking : Monitoring run-time modified files using timeStampMaster (fileModificationSkew 5, maxFileModificationPolls 20)
allowSystemOperations : Allowing user-supplied system call operations

// * * * * * * * * * * * * * * * * * * * * * * * * * * * * * * * * * * * * * //
Create time

--> FOAM Warning : 
    From void* Foam::dlLibraryTable::openLibrary(const Foam::fileName&, bool)
    in file db/dynamicLibrary/dlLibraryTable/dlLibraryTable.C at line 188
    Could not load "libpetscFoam.so"
libpetscFoam.so: cannot open shared object file: No such file or directory
Create mesh for time = 0


PISO: Operating solver in PISO mode

Reading transportProperties

Reading field p

Reading field U

Reading/calculating face flux field phi


Starting time loop

Time = 0.000166

Courant Number mean: 8.14055e-18 max: 3.11001e-14
[INFO] MatrixAssemblyU: 228.854 [ms]
DILUPBiCGStab:  Solving for Ux, Initial residual = 1, Final residual = 0.0214897, No Iterations 5
DILUPBiCGStab:  Solving for Uy:  solution singularity
DILUPBiCGStab:  Solving for Uz:  solution singularity
[INFO] MomentumPredictor: 791.634 [ms]
[INFO] MatrixAssemblyPI: 245.485 [ms]
[INFO] AdjustPhi: 13.707 [ms]
[INFO] ConstrainPressure: 0.007 [ms]
[INFO] MatrixAssemblyPII: 57.952 [ms]
nonePCG:  Solving for p, Initial residual = 1, Final residual = 9.74593e-05, No Iterations 2423
[INFO] SolveP: 56576.9 [ms]
time step continuity errors : sum local = 4.57793e-09, global = 5.9358e-21, cumulative = 5.9358e-21
[INFO] ContinuityError: 25.682 [ms]
[INFO] CorrectBoundary: 3.232 [ms]
[INFO] PISOStep: 57009.2 [ms]
[INFO] MatrixAssemblyPI: 234.043 [ms]
[INFO] AdjustPhi: 7.95 [ms]
[INFO] ConstrainPressure: 0.003 [ms]
[INFO] MatrixAssemblyPII: 58.323 [ms]
nonePCG:  Solving for p, Initial residual = 0.787798, Final residual = 9.98447e-05, No Iterations 2392
[INFO] SolveP: 56984.1 [ms]
time step continuity errors : sum local = 5.70643e-09, global = 1.52337e-21, cumulative = 7.45917e-21
[INFO] ContinuityError: 21.928 [ms]
[INFO] CorrectBoundary: 2.126 [ms]
[INFO] PISOStep: 57394.3 [ms]
[INFO] TimeStep: 115451 [ms]
ExecutionTime = 115.86 s  ClockTime = 117 s

Time = 0.000332

Courant Number mean: 0.0124838 max: 0.425553
[INFO] MatrixAssemblyU: 184.779 [ms]
DILUPBiCGStab:  Solving for Ux, Initial residual = 0.117264, Final residual = 0.0126674, No Iterations 5
DILUPBiCGStab:  Solving for Uy, Initial residual = 0.463102, Final residual = 0.0383886, No Iterations 5
DILUPBiCGStab:  Solving for Uz, Initial residual = 0.986964, Final residual = 0.0946237, No Iterations 5
[INFO] MomentumPredictor: 1410.21 [ms]
[INFO] MatrixAssemblyPI: 237.361 [ms]
[INFO] AdjustPhi: 8.647 [ms]
[INFO] ConstrainPressure: 0.003 [ms]
[INFO] MatrixAssemblyPII: 55.73 [ms]
nonePCG:  Solving for p, Initial residual = 0.889607, Final residual = 9.79345e-05, No Iterations 2378
[INFO] SolveP: 54888.5 [ms]
time step continuity errors : sum local = 1.03361e-08, global = 3.46584e-22, cumulative = 7.80575e-21
[INFO] ContinuityError: 22.076 [ms]
[INFO] CorrectBoundary: 2.357 [ms]
[INFO] PISOStep: 55304.9 [ms]
[INFO] MatrixAssemblyPI: 230.737 [ms]
[INFO] AdjustPhi: 8.171 [ms]
[INFO] ConstrainPressure: 0.003 [ms]
[INFO] MatrixAssemblyPII: 57.011 [ms]
nonePCG:  Solving for p, Initial residual = 0.801444, Final residual = 9.8958e-05, No Iterations 2374
[INFO] SolveP: 54590.3 [ms]
time step continuity errors : sum local = 1.0734e-08, global = 2.64782e-21, cumulative = 1.04536e-20
[INFO] ContinuityError: 22.694 [ms]
[INFO] CorrectBoundary: 2.375 [ms]
[INFO] PISOStep: 54997.7 [ms]
[INFO] TimeStep: 111924 [ms]
ExecutionTime = 227.21 s  ClockTime = 229 s

Time = 0.000498

Courant Number mean: 0.0194139 max: 0.490634
[INFO] MatrixAssemblyU: 184.195 [ms]
DILUPBiCGStab:  Solving for Ux, Initial residual = 0.0544213, Final residual = 0.00488359, No Iterations 5
DILUPBiCGStab:  Solving for Uy, Initial residual = 0.225717, Final residual = 0.0201479, No Iterations 5
DILUPBiCGStab:  Solving for Uz, Initial residual = 0.846881, Final residual = 0.0718767, No Iterations 5
[INFO] MomentumPredictor: 1426.93 [ms]
[INFO] MatrixAssemblyPI: 230.182 [ms]
[INFO] AdjustPhi: 22.08 [ms]
[INFO] ConstrainPressure: 0.002 [ms]
[INFO] MatrixAssemblyPII: 56.125 [ms]
nonePCG:  Solving for p, Initial residual = 0.91913, Final residual = 9.70802e-05, No Iterations 1149
[INFO] SolveP: 26355.5 [ms]
time step continuity errors : sum local = 1.15043e-08, global = 3.77821e-21, cumulative = 1.42318e-20
[INFO] ContinuityError: 23.374 [ms]
[INFO] CorrectBoundary: 2.243 [ms]
[INFO] PISOStep: 26776.9 [ms]
[INFO] MatrixAssemblyPI: 235.488 [ms]
[INFO] AdjustPhi: 8.373 [ms]
[INFO] ConstrainPressure: 0.006 [ms]
[INFO] MatrixAssemblyPII: 57.222 [ms]
nonePCG:  Solving for p, Initial residual = 0.857755, Final residual = 9.8891e-05, No Iterations 1146
[INFO] SolveP: 26412.5 [ms]
time step continuity errors : sum local = 1.11697e-08, global = 2.65295e-21, cumulative = 1.68847e-20
[INFO] ContinuityError: 21.156 [ms]
[INFO] CorrectBoundary: 1.543 [ms]
[INFO] PISOStep: 26827.1 [ms]
[INFO] TimeStep: 55242.5 [ms]
ExecutionTime = 282.15 s  ClockTime = 285 s

Time = 0.000664

Courant Number mean: 0.023493 max: 0.47114
[INFO] MatrixAssemblyU: 185.277 [ms]
DILUPBiCGStab:  Solving for Ux, Initial residual = 0.0385069, Final residual = 0.00387157, No Iterations 5
DILUPBiCGStab:  Solving for Uy, Initial residual = 0.17261, Final residual = 0.0168719, No Iterations 5
DILUPBiCGStab:  Solving for Uz, Initial residual = 0.720662, Final residual = 0.052252, No Iterations 5
[INFO] MomentumPredictor: 1425.86 [ms]
[INFO] MatrixAssemblyPI: 231.753 [ms]
[INFO] AdjustPhi: 20.633 [ms]
[INFO] ConstrainPressure: 0.003 [ms]
[INFO] MatrixAssemblyPII: 54.213 [ms]
nonePCG:  Solving for p, Initial residual = 0.897871, Final residual = 9.9406e-05, No Iterations 1150
[INFO] SolveP: 26516.9 [ms]
time step continuity errors : sum local = 1.28689e-08, global = 3.6468e-21, cumulative = 2.05315e-20
[INFO] ContinuityError: 25.783 [ms]
[INFO] CorrectBoundary: 2.011 [ms]
[INFO] PISOStep: 26938.2 [ms]
[INFO] MatrixAssemblyPI: 225.015 [ms]
[INFO] AdjustPhi: 14.355 [ms]
[INFO] ConstrainPressure: 0.003 [ms]
[INFO] MatrixAssemblyPII: 54.96 [ms]
nonePCG:  Solving for p, Initial residual = 0.814006, Final residual = 9.8653e-05, No Iterations 1128
[INFO] SolveP: 26083.6 [ms]
time step continuity errors : sum local = 1.23509e-08, global = 3.40264e-21, cumulative = 2.39342e-20
[INFO] ContinuityError: 22.693 [ms]
[INFO] CorrectBoundary: 1.809 [ms]
[INFO] PISOStep: 26491.6 [ms]
[INFO] TimeStep: 55064.8 [ms]
ExecutionTime = 336.93 s  ClockTime = 340 s

Time = 0.00083

Courant Number mean: 0.0269608 max: 0.503746
[INFO] MatrixAssemblyU: 185.534 [ms]
DILUPBiCGStab:  Solving for Ux, Initial residual = 0.0323435, Final residual = 0.00337451, No Iterations 5
DILUPBiCGStab:  Solving for Uy, Initial residual = 0.128932, Final residual = 0.0139317, No Iterations 5
DILUPBiCGStab:  Solving for Uz, Initial residual = 0.658815, Final residual = 0.0440446, No Iterations 5
[INFO] MomentumPredictor: 1410.69 [ms]
[INFO] MatrixAssemblyPI: 235.968 [ms]
[INFO] AdjustPhi: 9.465 [ms]
[INFO] ConstrainPressure: 0.002 [ms]
[INFO] MatrixAssemblyPII: 56.856 [ms]
nonePCG:  Solving for p, Initial residual = 0.916238, Final residual = 9.91648e-05, No Iterations 2140
[INFO] SolveP: 49046.3 [ms]
time step continuity errors : sum local = 1.17106e-08, global = 5.61297e-21, cumulative = 2.95472e-20
[INFO] ContinuityError: 23.083 [ms]
[INFO] CorrectBoundary: 5.796 [ms]
[INFO] PISOStep: 49459.8 [ms]
[INFO] MatrixAssemblyPI: 229.749 [ms]
[INFO] AdjustPhi: 13.667 [ms]
[INFO] ConstrainPressure: 0.002 [ms]
[INFO] MatrixAssemblyPII: 59.565 [ms]
nonePCG:  Solving for p, Initial residual = 0.85527, Final residual = 9.98392e-05, No Iterations 2138
[INFO] SolveP: 49718.8 [ms]
time step continuity errors : sum local = 1.16203e-08, global = 5.28138e-21, cumulative = 3.48285e-20
[INFO] ContinuityError: 23.05 [ms]
[INFO] CorrectBoundary: 2.864 [ms]
[INFO] PISOStep: 50132.8 [ms]
[INFO] TimeStep: 101214 [ms]
ExecutionTime = 437.63 s  ClockTime = 441 s

Time = 0.000996

Courant Number mean: 0.0296684 max: 0.477575
[INFO] MatrixAssemblyU: 188.524 [ms]
DILUPBiCGStab:  Solving for Ux, Initial residual = 0.0271036, Final residual = 0.00300626, No Iterations 5
DILUPBiCGStab:  Solving for Uy, Initial residual = 0.110851, Final residual = 0.0112137, No Iterations 5
DILUPBiCGStab:  Solving for Uz, Initial residual = 0.56504, Final residual = 0.0347211, No Iterations 5
[INFO] MomentumPredictor: 1438.61 [ms]
[INFO] MatrixAssemblyPI: 236.055 [ms]
[INFO] AdjustPhi: 10.63 [ms]
[INFO] ConstrainPressure: 0.002 [ms]
[INFO] MatrixAssemblyPII: 56.371 [ms]
nonePCG:  Solving for p, Initial residual = 0.894567, Final residual = 9.99636e-05, No Iterations 2317
[INFO] SolveP: 53161.2 [ms]
time step continuity errors : sum local = 1.2013e-08, global = 5.54686e-21, cumulative = 4.03754e-20
[INFO] ContinuityError: 24.419 [ms]
[INFO] CorrectBoundary: 3.67 [ms]
[INFO] PISOStep: 53575 [ms]
[INFO] MatrixAssemblyPI: 229.412 [ms]
[INFO] AdjustPhi: 25.656 [ms]
[INFO] ConstrainPressure: 0.003 [ms]
[INFO] MatrixAssemblyPII: 59.827 [ms]
nonePCG:  Solving for p, Initial residual = 0.813938, Final residual = 9.90281e-05, No Iterations 2301
[INFO] SolveP: 53243.2 [ms]
time step continuity errors : sum local = 1.20506e-08, global = 4.45317e-21, cumulative = 4.48286e-20
[INFO] ContinuityError: 22.24 [ms]
[INFO] CorrectBoundary: 2.305 [ms]
[INFO] PISOStep: 53671.7 [ms]
[INFO] TimeStep: 108901 [ms]
ExecutionTime = 545.96 s  ClockTime = 550 s

Time = 0.001162

Courant Number mean: 0.0320925 max: 0.509837
[INFO] MatrixAssemblyU: 186.535 [ms]
DILUPBiCGStab:  Solving for Ux, Initial residual = 0.0245015, Final residual = 0.00276498, No Iterations 5
DILUPBiCGStab:  Solving for Uy, Initial residual = 0.097508, Final residual = 0.0101524, No Iterations 5
DILUPBiCGStab:  Solving for Uz, Initial residual = 0.533399, Final residual = 0.0301864, No Iterations 5
[INFO] MomentumPredictor: 1411.25 [ms]
[INFO] MatrixAssemblyPI: 236.007 [ms]
[INFO] AdjustPhi: 10.677 [ms]
[INFO] ConstrainPressure: 0.002 [ms]
[INFO] MatrixAssemblyPII: 55.605 [ms]
nonePCG:  Solving for p, Initial residual = 0.911054, Final residual = 9.75043e-05, No Iterations 2296
[INFO] SolveP: 53222.4 [ms]
time step continuity errors : sum local = 1.12853e-08, global = 3.98795e-21, cumulative = 4.88165e-20
[INFO] ContinuityError: 23.831 [ms]
[INFO] CorrectBoundary: 2.099 [ms]
[INFO] PISOStep: 53638.7 [ms]
[INFO] MatrixAssemblyPI: 233.753 [ms]
[INFO] AdjustPhi: 8.757 [ms]
[INFO] ConstrainPressure: 0.003 [ms]
[INFO] MatrixAssemblyPII: 59.642 [ms]
nonePCG:  Solving for p, Initial residual = 0.848496, Final residual = 9.97355e-05, No Iterations 2294
[INFO] SolveP: 52724.6 [ms]
time step continuity errors : sum local = 1.14033e-08, global = 3.95877e-21, cumulative = 5.27753e-20
[INFO] ContinuityError: 21.785 [ms]
[INFO] CorrectBoundary: 2.446 [ms]
[INFO] PISOStep: 53137 [ms]
[INFO] TimeStep: 108399 [ms]
ExecutionTime = 653.83 s  ClockTime = 658 s

Time = 0.001328

Courant Number mean: 0.0341462 max: 0.480593
[INFO] MatrixAssemblyU: 187.374 [ms]
DILUPBiCGStab:  Solving for Ux, Initial residual = 0.0221307, Final residual = 0.00254217, No Iterations 5
DILUPBiCGStab:  Solving for Uy, Initial residual = 0.086005, Final residual = 0.0085913, No Iterations 5
DILUPBiCGStab:  Solving for Uz, Initial residual = 0.489639, Final residual = 0.0274214, No Iterations 5
[INFO] MomentumPredictor: 1419.66 [ms]
[INFO] MatrixAssemblyPI: 234.89 [ms]
[INFO] AdjustPhi: 10.629 [ms]
[INFO] ConstrainPressure: 0.002 [ms]
[INFO] MatrixAssemblyPII: 56.733 [ms]
nonePCG:  Solving for p, Initial residual = 0.889619, Final residual = 9.90362e-05, No Iterations 2299
[INFO] SolveP: 53233.4 [ms]
time step continuity errors : sum local = 1.16034e-08, global = 4.35768e-21, cumulative = 5.7133e-20
[INFO] ContinuityError: 24.735 [ms]
[INFO] CorrectBoundary: 3.638 [ms]
[INFO] PISOStep: 53648.4 [ms]
[INFO] MatrixAssemblyPI: 232.947 [ms]
[INFO] AdjustPhi: 9.027 [ms]
[INFO] ConstrainPressure: 0.004 [ms]
[INFO] MatrixAssemblyPII: 59.542 [ms]
nonePCG:  Solving for p, Initial residual = 0.810453, Final residual = 9.80564e-05, No Iterations 2297
[INFO] SolveP: 53450 [ms]
time step continuity errors : sum local = 1.16196e-08, global = 5.02798e-21, cumulative = 6.2161e-20
[INFO] ContinuityError: 23.169 [ms]
[INFO] CorrectBoundary: 3.622 [ms]
[INFO] PISOStep: 53863.1 [ms]
[INFO] TimeStep: 109144 [ms]
ExecutionTime = 762.42 s  ClockTime = 767 s

Time = 0.001494

Courant Number mean: 0.036052 max: 0.514851
[INFO] MatrixAssemblyU: 186.907 [ms]
DILUPBiCGStab:  Solving for Ux, Initial residual = 0.0204457, Final residual = 0.00235866, No Iterations 5
DILUPBiCGStab:  Solving for Uy, Initial residual = 0.0808071, Final residual = 0.0080486, No Iterations 5
DILUPBiCGStab:  Solving for Uz, Initial residual = 0.482902, Final residual = 0.0253983, No Iterations 5
[INFO] MomentumPredictor: 1423.52 [ms]
[INFO] MatrixAssemblyPI: 235.039 [ms]
[INFO] AdjustPhi: 10.947 [ms]
[INFO] ConstrainPressure: 0.003 [ms]
[INFO] MatrixAssemblyPII: 56.813 [ms]
nonePCG:  Solving for p, Initial residual = 0.90543, Final residual = 9.81561e-05, No Iterations 2074
[INFO] SolveP: 47904 [ms]
time step continuity errors : sum local = 1.10985e-08, global = 6.94117e-21, cumulative = 6.91021e-20
[INFO] ContinuityError: 24.932 [ms]
[INFO] CorrectBoundary: 3.432 [ms]
[INFO] PISOStep: 48318.4 [ms]
[INFO] MatrixAssemblyPI: 233.11 [ms]
[INFO] AdjustPhi: 12.344 [ms]
[INFO] ConstrainPressure: 0.003 [ms]
[INFO] MatrixAssemblyPII: 59.572 [ms]
nonePCG:  Solving for p, Initial residual = 0.842894, Final residual = 9.75638e-05, No Iterations 2073
[INFO] SolveP: 47801.6 [ms]
time step continuity errors : sum local = 1.09128e-08, global = 4.36095e-21, cumulative = 7.34631e-20
[INFO] ContinuityError: 24.04 [ms]
[INFO] CorrectBoundary: 2.07 [ms]
[INFO] PISOStep: 48220.1 [ms]
[INFO] TimeStep: 98175.5 [ms]
ExecutionTime = 860.11 s  ClockTime = 865 s

Time = 0.00166

Courant Number mean: 0.0377219 max: 0.482859
[INFO] MatrixAssemblyU: 186.097 [ms]
DILUPBiCGStab:  Solving for Ux, Initial residual = 0.0192199, Final residual = 0.00221868, No Iterations 5
DILUPBiCGStab:  Solving for Uy, Initial residual = 0.0722137, Final residual = 0.00700834, No Iterations 5
DILUPBiCGStab:  Solving for Uz, Initial residual = 0.457682, Final residual = 0.0235345, No Iterations 5
[INFO] MomentumPredictor: 1447.11 [ms]
[INFO] MatrixAssemblyPI: 235.245 [ms]
[INFO] AdjustPhi: 12.693 [ms]
[INFO] ConstrainPressure: 0.003 [ms]
[INFO] MatrixAssemblyPII: 56.519 [ms]
nonePCG:  Solving for p, Initial residual = 0.885961, Final residual = 9.95077e-05, No Iterations 2292
[INFO] SolveP: 53294.4 [ms]
time step continuity errors : sum local = 1.15053e-08, global = 5.85214e-21, cumulative = 7.93152e-20
[INFO] ContinuityError: 24.79 [ms]
[INFO] CorrectBoundary: 4.266 [ms]
[INFO] PISOStep: 53710.7 [ms]
[INFO] MatrixAssemblyPI: 232.068 [ms]
[INFO] AdjustPhi: 13.125 [ms]
[INFO] ConstrainPressure: 0.003 [ms]
[INFO] MatrixAssemblyPII: 59.555 [ms]
nonePCG:  Solving for p, Initial residual = 0.807223, Final residual = 9.98763e-05, No Iterations 2289
[INFO] SolveP: 53252.4 [ms]
time step continuity errors : sum local = 1.16723e-08, global = 4.77906e-21, cumulative = 8.40943e-20
[INFO] ContinuityError: 22.268 [ms]
[INFO] CorrectBoundary: 2.851 [ms]
[INFO] PISOStep: 53667.7 [ms]
[INFO] TimeStep: 109037 [ms]
ExecutionTime = 968.59 s  ClockTime = 974 s

Time = 0.001826

Courant Number mean: 0.0393099 max: 0.520114
[INFO] MatrixAssemblyU: 190.557 [ms]
DILUPBiCGStab:  Solving for Ux, Initial residual = 0.0179628, Final residual = 0.00205993, No Iterations 5
DILUPBiCGStab:  Solving for Uy, Initial residual = 0.0704367, Final residual = 0.00672928, No Iterations 5
DILUPBiCGStab:  Solving for Uz, Initial residual = 0.459172, Final residual = 0.0226819, No Iterations 5
[INFO] MomentumPredictor: 1415.1 [ms]
[INFO] MatrixAssemblyPI: 235.525 [ms]
[INFO] AdjustPhi: 19.497 [ms]
[INFO] ConstrainPressure: 0.003 [ms]
[INFO] MatrixAssemblyPII: 55.767 [ms]
nonePCG:  Solving for p, Initial residual = 0.903978, Final residual = 9.99905e-05, No Iterations 2076
[INFO] SolveP: 48742.4 [ms]
time step continuity errors : sum local = 1.13528e-08, global = 6.62644e-21, cumulative = 9.07207e-20
[INFO] ContinuityError: 24.172 [ms]
[INFO] CorrectBoundary: 5.03 [ms]
[INFO] PISOStep: 49170.5 [ms]
[INFO] MatrixAssemblyPI: 232.756 [ms]
[INFO] AdjustPhi: 13.164 [ms]
[INFO] ConstrainPressure: 0.003 [ms]
[INFO] MatrixAssemblyPII: 60.012 [ms]
nonePCG:  Solving for p, Initial residual = 0.839235, Final residual = 9.7872e-05, No Iterations 2074
[INFO] SolveP: 47863.8 [ms]
time step continuity errors : sum local = 1.10114e-08, global = 5.02049e-21, cumulative = 9.57412e-20
[INFO] ContinuityError: 22.565 [ms]
[INFO] CorrectBoundary: 2.242 [ms]
[INFO] PISOStep: 48280.5 [ms]
[INFO] TimeStep: 99082.9 [ms]
ExecutionTime = 1067.17 s  ClockTime = 1074 s

Time = 0.001992

Courant Number mean: 0.0407241 max: 0.485723
[INFO] MatrixAssemblyU: 186.923 [ms]
DILUPBiCGStab:  Solving for Ux, Initial residual = 0.0172999, Final residual = 0.00197847, No Iterations 5
DILUPBiCGStab:  Solving for Uy, Initial residual = 0.0636637, Final residual = 0.00594182, No Iterations 5
DILUPBiCGStab:  Solving for Uz, Initial residual = 0.447599, Final residual = 0.0228214, No Iterations 5
[INFO] MomentumPredictor: 1412.06 [ms]
[INFO] MatrixAssemblyPI: 235.838 [ms]
[INFO] AdjustPhi: 9.787 [ms]
[INFO] ConstrainPressure: 0.003 [ms]
[INFO] MatrixAssemblyPII: 56.344 [ms]
nonePCG:  Solving for p, Initial residual = 0.886341, Final residual = 9.93629e-05, No Iterations 2285
[INFO] SolveP: 52561.5 [ms]
time step continuity errors : sum local = 1.16965e-08, global = 6.0438e-21, cumulative = 1.01785e-19
[INFO] ContinuityError: 23.959 [ms]
[INFO] CorrectBoundary: 2.001 [ms]
[INFO] PISOStep: 52975.8 [ms]
[INFO] MatrixAssemblyPI: 229.457 [ms]
[INFO] AdjustPhi: 19.126 [ms]
[INFO] ConstrainPressure: 0.004 [ms]
[INFO] MatrixAssemblyPII: 59.51 [ms]
nonePCG:  Solving for p, Initial residual = 0.807976, Final residual = 9.9552e-05, No Iterations 2263
[INFO] SolveP: 52013.8 [ms]
time step continuity errors : sum local = 1.18341e-08, global = 5.31787e-21, cumulative = 1.07103e-19
[INFO] ContinuityError: 22.635 [ms]
[INFO] CorrectBoundary: 3.729 [ms]
[INFO] PISOStep: 52431.8 [ms]
[INFO] TimeStep: 107034 [ms]
ExecutionTime = 1173.66 s  ClockTime = 1181 s

Time = 0.002158

Courant Number mean: 0.0420939 max: 0.5258
[INFO] MatrixAssemblyU: 186.654 [ms]
DILUPBiCGStab:  Solving for Ux, Initial residual = 0.0163132, Final residual = 0.00183477, No Iterations 5
DILUPBiCGStab:  Solving for Uy, Initial residual = 0.0635213, Final residual = 0.00582493, No Iterations 5
DILUPBiCGStab:  Solving for Uz, Initial residual = 0.450379, Final residual = 0.0213771, No Iterations 5
[INFO] MomentumPredictor: 1416.41 [ms]
[INFO] MatrixAssemblyPI: 235.501 [ms]
[INFO] AdjustPhi: 14.104 [ms]
[INFO] ConstrainPressure: 0.003 [ms]
[INFO] MatrixAssemblyPII: 56.052 [ms]
nonePCG:  Solving for p, Initial residual = 0.903776, Final residual = 9.99585e-05, No Iterations 2078
[INFO] SolveP: 47906.9 [ms]
time step continuity errors : sum local = 1.16672e-08, global = 6.92859e-21, cumulative = 1.14031e-19
[INFO] ContinuityError: 22.82 [ms]
[INFO] CorrectBoundary: 2.11 [ms]
[INFO] PISOStep: 48327 [ms]
[INFO] MatrixAssemblyPI: 231.063 [ms]
[INFO] AdjustPhi: 12.237 [ms]
[INFO] ConstrainPressure: 0.003 [ms]
[INFO] MatrixAssemblyPII: 59.034 [ms]
nonePCG:  Solving for p, Initial residual = 0.837734, Final residual = 9.81449e-05, No Iterations 2076
[INFO] SolveP: 47765.5 [ms]
time step continuity errors : sum local = 1.13714e-08, global = 5.77826e-21, cumulative = 1.1981e-19
[INFO] ContinuityError: 22.435 [ms]
[INFO] CorrectBoundary: 2.31 [ms]
[INFO] PISOStep: 48179.3 [ms]
[INFO] TimeStep: 98135.4 [ms]
ExecutionTime = 1271.29 s  ClockTime = 1279 s

Time = 0.002324

Courant Number mean: 0.0433229 max: 0.488403
[INFO] MatrixAssemblyU: 185.954 [ms]
DILUPBiCGStab:  Solving for Ux, Initial residual = 0.0159433, Final residual = 0.00178726, No Iterations 5
DILUPBiCGStab:  Solving for Uy, Initial residual = 0.0581084, Final residual = 0.00519157, No Iterations 5
DILUPBiCGStab:  Solving for Uz, Initial residual = 0.441645, Final residual = 0.0213595, No Iterations 5
[INFO] MomentumPredictor: 1440.68 [ms]
[INFO] MatrixAssemblyPI: 236.51 [ms]
[INFO] AdjustPhi: 16.297 [ms]
[INFO] ConstrainPressure: 0.003 [ms]
[INFO] MatrixAssemblyPII: 55.753 [ms]
nonePCG:  Solving for p, Initial residual = 0.887614, Final residual = 9.974e-05, No Iterations 2229
[INFO] SolveP: 51649.4 [ms]
time step continuity errors : sum local = 1.20978e-08, global = 6.06683e-21, cumulative = 1.25877e-19
[INFO] ContinuityError: 23.148 [ms]
[INFO] CorrectBoundary: 3.589 [ms]
[INFO] PISOStep: 52073.3 [ms]
[INFO] MatrixAssemblyPI: 232.086 [ms]
[INFO] AdjustPhi: 10.635 [ms]
[INFO] ConstrainPressure: 0.003 [ms]
[INFO] MatrixAssemblyPII: 59.022 [ms]
nonePCG:  Solving for p, Initial residual = 0.810394, Final residual = 9.98488e-05, No Iterations 2243
[INFO] SolveP: 51729.3 [ms]
time step continuity errors : sum local = 1.22158e-08, global = 6.41005e-21, cumulative = 1.32287e-19
[INFO] ContinuityError: 23.055 [ms]
[INFO] CorrectBoundary: 2.626 [ms]
[INFO] PISOStep: 52141.8 [ms]
[INFO] TimeStep: 105868 [ms]
ExecutionTime = 1376.62 s  ClockTime = 1385 s

Time = 0.00249

Courant Number mean: 0.0445317 max: 0.532263
[INFO] MatrixAssemblyU: 186.916 [ms]
DILUPBiCGStab:  Solving for Ux, Initial residual = 0.0151879, Final residual = 0.00166199, No Iterations 5
DILUPBiCGStab:  Solving for Uy, Initial residual = 0.0586965, Final residual = 0.00516864, No Iterations 5
DILUPBiCGStab:  Solving for Uz, Initial residual = 0.448187, Final residual = 0.0206595, No Iterations 5
[INFO] MomentumPredictor: 1430.21 [ms]
[INFO] MatrixAssemblyPI: 232.499 [ms]
[INFO] AdjustPhi: 22.949 [ms]
[INFO] ConstrainPressure: 0.003 [ms]
[INFO] MatrixAssemblyPII: 56.036 [ms]
nonePCG:  Solving for p, Initial residual = 0.903502, Final residual = 9.99749e-05, No Iterations 2082
[INFO] SolveP: 48770.5 [ms]
time step continuity errors : sum local = 1.20748e-08, global = 7.55185e-21, cumulative = 1.39838e-19
[INFO] ContinuityError: 23.978 [ms]
[INFO] CorrectBoundary: 2.04 [ms]
[INFO] PISOStep: 49196.1 [ms]
[INFO] MatrixAssemblyPI: 232.637 [ms]
[INFO] AdjustPhi: 13.828 [ms]
[INFO] ConstrainPressure: 0.003 [ms]
[INFO] MatrixAssemblyPII: 59.86 [ms]
nonePCG:  Solving for p, Initial residual = 0.836425, Final residual = 9.8524e-05, No Iterations 2079
[INFO] SolveP: 47936.2 [ms]
time step continuity errors : sum local = 1.18304e-08, global = 6.63038e-21, cumulative = 1.46469e-19
[INFO] ContinuityError: 22.68 [ms]
[INFO] CorrectBoundary: 4.237 [ms]
[INFO] PISOStep: 48354.2 [ms]
[INFO] TimeStep: 99193 [ms]
ExecutionTime = 1475.32 s  ClockTime = 1484 s

Time = 0.002656

Courant Number mean: 0.0456196 max: 0.49097
[INFO] MatrixAssemblyU: 188.231 [ms]
DILUPBiCGStab:  Solving for Ux, Initial residual = 0.0150151, Final residual = 0.00164172, No Iterations 5
DILUPBiCGStab:  Solving for Uy, Initial residual = 0.0543798, Final residual = 0.00464364, No Iterations 5
DILUPBiCGStab:  Solving for Uz, Initial residual = 0.442748, Final residual = 0.0208576, No Iterations 5
[INFO] MomentumPredictor: 1418.59 [ms]
[INFO] MatrixAssemblyPI: 233.005 [ms]
[INFO] AdjustPhi: 13.923 [ms]
[INFO] ConstrainPressure: 0.002 [ms]
[INFO] MatrixAssemblyPII: 56.201 [ms]
nonePCG:  Solving for p, Initial residual = 0.889548, Final residual = 9.92972e-05, No Iterations 2287
[INFO] SolveP: 53033.1 [ms]
time step continuity errors : sum local = 1.24498e-08, global = 6.82417e-21, cumulative = 1.53293e-19
[INFO] ContinuityError: 23.034 [ms]
[INFO] CorrectBoundary: 1.996 [ms]
[INFO] PISOStep: 53446.7 [ms]
[INFO] MatrixAssemblyPI: 233.57 [ms]
[INFO] AdjustPhi: 9.407 [ms]
[INFO] ConstrainPressure: 0.003 [ms]
[INFO] MatrixAssemblyPII: 59.349 [ms]
nonePCG:  Solving for p, Initial residual = 0.812682, Final residual = 9.90789e-05, No Iterations 2284
[INFO] SolveP: 52427.2 [ms]
time step continuity errors : sum local = 1.25162e-08, global = 5.62203e-21, cumulative = 1.58915e-19
[INFO] ContinuityError: 22.108 [ms]
[INFO] CorrectBoundary: 4.205 [ms]
[INFO] PISOStep: 52840 [ms]
[INFO] TimeStep: 107920 [ms]
ExecutionTime = 1582.68 s  ClockTime = 1592 s

Time = 0.002822

Courant Number mean: 0.0467053 max: 0.539455
[INFO] MatrixAssemblyU: 185.548 [ms]
DILUPBiCGStab:  Solving for Ux, Initial residual = 0.0144116, Final residual = 0.00152578, No Iterations 5
DILUPBiCGStab:  Solving for Uy, Initial residual = 0.0552729, Final residual = 0.00467439, No Iterations 5
DILUPBiCGStab:  Solving for Uz, Initial residual = 0.449282, Final residual = 0.0200271, No Iterations 5
[INFO] MomentumPredictor: 1420.99 [ms]
[INFO] MatrixAssemblyPI: 237.483 [ms]
[INFO] AdjustPhi: 10.19 [ms]
[INFO] ConstrainPressure: 0.002 [ms]
[INFO] MatrixAssemblyPII: 56.995 [ms]
nonePCG:  Solving for p, Initial residual = 0.904325, Final residual = 9.96839e-05, No Iterations 2199
[INFO] SolveP: 50834.4 [ms]
time step continuity errors : sum local = 1.25021e-08, global = 6.58253e-21, cumulative = 1.65498e-19
[INFO] ContinuityError: 23.665 [ms]
[INFO] CorrectBoundary: 2.249 [ms]
[INFO] PISOStep: 51251.2 [ms]
[INFO] MatrixAssemblyPI: 233.698 [ms]
[INFO] AdjustPhi: 9.353 [ms]
[INFO] ConstrainPressure: 0.003 [ms]
[INFO] MatrixAssemblyPII: 59.746 [ms]
nonePCG:  Solving for p, Initial residual = 0.835005, Final residual = 9.97753e-05, No Iterations 2221
[INFO] SolveP: 51350.3 [ms]
time step continuity errors : sum local = 1.24571e-08, global = 7.39057e-21, cumulative = 1.72888e-19
[INFO] ContinuityError: 24.683 [ms]
[INFO] CorrectBoundary: 4.538 [ms]
[INFO] PISOStep: 51770.2 [ms]
[INFO] TimeStep: 104654 [ms]
ExecutionTime = 1686.8 s  ClockTime = 1696 s

Time = 0.002988

Courant Number mean: 0.0476817 max: 0.493563
[INFO] MatrixAssemblyU: 187.798 [ms]
DILUPBiCGStab:  Solving for Ux, Initial residual = 0.0143859, Final residual = 0.00152681, No Iterations 5
DILUPBiCGStab:  Solving for Uy, Initial residual = 0.0519162, Final residual = 0.00423255, No Iterations 5
DILUPBiCGStab:  Solving for Uz, Initial residual = 0.443711, Final residual = 0.0198184, No Iterations 5
[INFO] MomentumPredictor: 1441.99 [ms]
[INFO] MatrixAssemblyPI: 233.579 [ms]
[INFO] AdjustPhi: 16.101 [ms]
[INFO] ConstrainPressure: 0.003 [ms]
[INFO] MatrixAssemblyPII: 56.249 [ms]
nonePCG:  Solving for p, Initial residual = 0.893366, Final residual = 9.87142e-05, No Iterations 2285
[INFO] SolveP: 53847 [ms]
time step continuity errors : sum local = 1.28481e-08, global = 5.87517e-21, cumulative = 1.78763e-19
[INFO] ContinuityError: 23.96 [ms]
[INFO] CorrectBoundary: 2.043 [ms]
[INFO] PISOStep: 54264.6 [ms]
[INFO] MatrixAssemblyPI: 232.329 [ms]
[INFO] AdjustPhi: 9.802 [ms]
[INFO] ConstrainPressure: 0.003 [ms]
[INFO] MatrixAssemblyPII: 59.735 [ms]
nonePCG:  Solving for p, Initial residual = 0.815329, Final residual = 9.97001e-05, No Iterations 2281
[INFO] SolveP: 52574.8 [ms]
time step continuity errors : sum local = 1.30618e-08, global = 7.22064e-21, cumulative = 1.85984e-19
[INFO] ContinuityError: 21.966 [ms]
[INFO] CorrectBoundary: 4.548 [ms]
[INFO] PISOStep: 52986.6 [ms]
[INFO] TimeStep: 108908 [ms]
ExecutionTime = 1795.14 s  ClockTime = 1805 s

Time = 0.003154

Courant Number mean: 0.0486687 max: 0.54756
[INFO] MatrixAssemblyU: 187.167 [ms]
DILUPBiCGStab:  Solving for Ux, Initial residual = 0.0139075, Final residual = 0.0014188, No Iterations 5
DILUPBiCGStab:  Solving for Uy, Initial residual = 0.0529823, Final residual = 0.0042957, No Iterations 5
DILUPBiCGStab:  Solving for Uz, Initial residual = 0.45326, Final residual = 0.0197907, No Iterations 5
[INFO] MomentumPredictor: 1436.66 [ms]
[INFO] MatrixAssemblyPI: 232.875 [ms]
[INFO] AdjustPhi: 21.753 [ms]
[INFO] ConstrainPressure: 0.003 [ms]
[INFO] MatrixAssemblyPII: 55.966 [ms]
nonePCG:  Solving for p, Initial residual = 0.906052, Final residual = 9.89756e-05, No Iterations 2282
[INFO] SolveP: 53120.5 [ms]
time step continuity errors : sum local = 1.29582e-08, global = 7.21638e-21, cumulative = 1.932e-19
[INFO] ContinuityError: 23.463 [ms]
[INFO] CorrectBoundary: 2.787 [ms]
[INFO] PISOStep: 53544.7 [ms]
[INFO] MatrixAssemblyPI: 233.059 [ms]
[INFO] AdjustPhi: 10.861 [ms]
[INFO] ConstrainPressure: 0.004 [ms]
[INFO] MatrixAssemblyPII: 59.147 [ms]
nonePCG:  Solving for p, Initial residual = 0.834552, Final residual = 9.90504e-05, No Iterations 2277
[INFO] SolveP: 52363.6 [ms]
time step continuity errors : sum local = 1.29238e-08, global = 8.2181e-21, cumulative = 2.01418e-19
[INFO] ContinuityError: 22.787 [ms]
[INFO] CorrectBoundary: 5.425 [ms]
[INFO] PISOStep: 52777.8 [ms]
[INFO] TimeStep: 107973 [ms]
ExecutionTime = 1902.55 s  ClockTime = 1913 s

Time = 0.00332

Courant Number mean: 0.0495546 max: 0.496306
[INFO] MatrixAssemblyU: 186.156 [ms]
DILUPBiCGStab:  Solving for Ux, Initial residual = 0.0139745, Final residual = 0.00142938, No Iterations 5
DILUPBiCGStab:  Solving for Uy, Initial residual = 0.0503846, Final residual = 0.00392074, No Iterations 5
DILUPBiCGStab:  Solving for Uz, Initial residual = 0.449267, Final residual = 0.0195303, No Iterations 5
[INFO] MomentumPredictor: 1413.77 [ms]
[INFO] MatrixAssemblyPI: 236.195 [ms]
[INFO] AdjustPhi: 11.727 [ms]
[INFO] ConstrainPressure: 0.003 [ms]
[INFO] MatrixAssemblyPII: 56.07 [ms]
nonePCG:  Solving for p, Initial residual = 0.897889, Final residual = 9.95285e-05, No Iterations 2286
[INFO] SolveP: 53131.3 [ms]
time step continuity errors : sum local = 1.35015e-08, global = 7.1239e-21, cumulative = 2.08542e-19
[INFO] ContinuityError: 25.093 [ms]
[INFO] CorrectBoundary: 2.261 [ms]
[INFO] PISOStep: 53547.2 [ms]
[INFO] MatrixAssemblyPI: 232.54 [ms]
[INFO] AdjustPhi: 18.758 [ms]
[INFO] ConstrainPressure: 0.003 [ms]
[INFO] MatrixAssemblyPII: 59.782 [ms]
nonePCG:  Solving for p, Initial residual = 0.819421, Final residual = 9.98371e-05, No Iterations 2283
[INFO] SolveP: 52482.2 [ms]
time step continuity errors : sum local = 1.36213e-08, global = 5.64802e-21, cumulative = 2.1419e-19
[INFO] ContinuityError: 22.136 [ms]
[INFO] CorrectBoundary: 2.964 [ms]
[INFO] PISOStep: 52903.7 [ms]
[INFO] TimeStep: 108078 [ms]
ExecutionTime = 2010.08 s  ClockTime = 2021 s

End

Finalising parallel run
