/*---------------------------------------------------------------------------*\
| =========                 |                                                 |
| \\      /  F ield         | OpenFOAM: The Open Source CFD Toolbox           |
|  \\    /   O peration     | Version:  2312                                  |
|   \\  /    A nd           | Website:  www.openfoam.com                      |
|    \\/     M anipulation  |                                                 |
\*---------------------------------------------------------------------------*/
Build  : a46b310f-20240104 OPENFOAM=2312 version=v2312
Arch   : "LSB;label=32;scalar=64"
Exec   : icoFoam -parallel -case /hppfs/scratch/0B/di35yan/lidDriven3D/workspace/94e29f9cc0054304afc86f97f2bb1b38/case
Date   : Feb 18 2024
Time   : 21:43:18
Host   : i20r01c06s10
PID    : 105797
I/O    : uncollated
Case   : /hppfs/scratch/0B/di35yan/lidDriven3D/workspace/94e29f9cc0054304afc86f97f2bb1b38/case
nProcs : 16
Hosts  :
(
    (i20r01c06s10 8)
    (i20r02c01s06 8)
)
Pstream initialized with:
    floatTransfer      : false
    nProcsSimpleSum    : 0
    nonBlockingExchange: 0 (tuning: 0)
    exchange algorithm : 0
    commsType          : nonBlocking
    polling iterations : 0
trapFpe: Floating point exception trapping enabled (FOAM_SIGFPE).
fileModificationChecking : Monitoring run-time modified files using timeStampMaster (fileModificationSkew 5, maxFileModificationPolls 20)
allowSystemOperations : Allowing user-supplied system call operations

// * * * * * * * * * * * * * * * * * * * * * * * * * * * * * * * * * * * * * //
Create time

--> FOAM Warning : 
    From void* Foam::dlLibraryTable::openLibrary(const Foam::fileName&, bool)
    in file db/dynamicLibrary/dlLibraryTable/dlLibraryTable.C at line 188
    Could not load "libpetscFoam.so"
libpetscFoam.so: cannot open shared object file: No such file or directory
Create mesh for time = 0


PISO: Operating solver in PISO mode

Reading transportProperties

Reading field p

Reading field U

Reading/calculating face flux field phi


Starting time loop

Time = 0.000166

Courant Number mean: 8.14055e-18 max: 3.11001e-14
[INFO] MatrixAssemblyU: 221.348 [ms]
DILUPBiCGStab:  Solving for Ux, Initial residual = 1, Final residual = 0.0163135, No Iterations 5
DILUPBiCGStab:  Solving for Uy:  solution singularity
DILUPBiCGStab:  Solving for Uz:  solution singularity
[INFO] MomentumPredictor: 929.089 [ms]
[INFO] MatrixAssemblyPI: 186.91 [ms]
[INFO] AdjustPhi: 24.539 [ms]
[INFO] ConstrainPressure: 0.005 [ms]
[INFO] MatrixAssemblyPII: 61.041 [ms]
[OGL LOG][lduLduBase.H:119] Initialising OGL
	OGL commit:  34fc915+
	Branch: fix/cyclic_interfaces 
	Build type: Debug
	Ginkgo version: 1.8.0 ( develop)
	Ginkgo commit: fc86d48b78cebd2b2c5833a2dcf0fe40f615cf19
	MPI is GPU aware: 1
	Forces host buffer based communication: 0
	CPU ranks per GPU: 1
	Matrix format: Ell
	End OGL_INFO
[OGL LOG][Proc: 0]: global_index_init: 20.343 [ms]
[OGL LOG][Proc: 0]p_local_cols: call_init: 0.133 [ms]
[OGL LOG][Proc: 0]p_local_rows: call_init: 0.017 [ms]
[OGL LOG][Proc: 0]p_local_ldu_map: call_init: 0.021 [ms]
[OGL LOG][Proc: 0]p_local_coeffs: call_init: 2.026 [ms]
[OGL LOG][Proc: 0]p_non_local_cols: call_init: 0.024 [ms]
[OGL LOG][Proc: 0]p_non_local_rows: call_init: 0.014 [ms]
[OGL LOG][Proc: 0]p_non_local_ldu_map: call_init: 0.005 [ms]
[OGL LOG][Proc: 0]p_non_local_coeffs: call_init: 0.016 [ms]
[OGL LOG][Proc: 0]p: init_local_sparsity_pattern: 24964.7 [ms]
[OGL LOG][Proc: 0]p: init_non_local_sparsity_pattern: 63.116 [ms]
[OGL LOG][Proc: 0]p: update_local_matrix_data: 3452.73 [ms]
[OGL LOG][Proc: 0]p: update_non_local_matrix_data: 0.737 [ms]
[OGL LOG][Proc: 0]device_partition: call_init: 3.89 [ms]
[OGL LOG][Proc: 0]p_matrix: call_init: 338.318 [ms]
[OGL LOG][Proc: 0]p_rhs: call_init: 2.542 [ms]
[OGL LOG][Proc: 0]p_solution: call_init: 2.791 [ms]
[OGL LOG][Proc: 0]p: init_precond: 0.187 [ms]
[OGL LOG][StoppingCriterion.H:239] Creating stopping criterion with minIter 0 frequency 1
[OGL LOG][Proc: 0]p: generate_solver: 3.519 [ms]
[OGL LOG][Proc: 0]p: solve: 7096.86 [ms]
[OGL LOG][Proc: 0]p: copy_x_back: 3.154 [ms]
[OGL LOG][lduLduBase.H:330] 
Statistics:
	Time per iteration: 2920 [mu s]
	Time per residual norm calculation: 49647.000000 [mu s]
	Time per iteration and DOF: 0.108148 [ns]
	Retrieve results bandwidth 4.280000 [GByte/s]
[OGL LOG][Proc: 0]p: solve_multi_gpu: 7459.97 [ms]
nonedpcppGKOCG:  Solving for p, Initial residual = 1, Final residual = 9.97935e-05, No Iterations 2430
[INFO] SolveP: 35980.1 [ms]
time step continuity errors : sum local = 4.03247e-09, global = 1.61246e-21, cumulative = 1.61246e-21
[INFO] ContinuityError: 30.159 [ms]
[INFO] CorrectBoundary: 0.557 [ms]
[INFO] PISOStep: 36372.1 [ms]
[INFO] MatrixAssemblyPI: 195.55 [ms]
[INFO] AdjustPhi: 22.946 [ms]
[INFO] ConstrainPressure: 0.002 [ms]
[INFO] MatrixAssemblyPII: 60.191 [ms]
[OGL LOG][Proc: 0]: global_index_init: 0.47 [ms]
[OGL LOG][Proc: 0]p_local_coeffs: call_update: 0 [ms]
[OGL LOG][Proc: 0]p_non_local_coeffs: call_update: 0 [ms]
[OGL LOG][Proc: 0]p: update_local_matrix_data: 35.087 [ms]
[OGL LOG][Proc: 0]p: update_non_local_matrix_data: 0.573 [ms]
[OGL LOG][Proc: 0]p: regenerate_distributed_matrix: 122.354 [ms]
[OGL LOG][Proc: 0]p_matrix: call_update: 176.166 [ms]
[OGL LOG][Proc: 0]p_rhs: call_update: 4.244 [ms]
[OGL LOG][Proc: 0]p: init_precond: 0.051 [ms]
[OGL LOG][StoppingCriterion.H:239] Creating stopping criterion with minIter 0 frequency 1
[OGL LOG][Proc: 0]p: generate_solver: 0.021 [ms]
[OGL LOG][Proc: 0]p: solve: 6492.29 [ms]
[OGL LOG][Proc: 0]p: copy_x_back: 4.129 [ms]
[OGL LOG][lduLduBase.H:330] 
Statistics:
	Time per iteration: 2686 [mu s]
	Time per residual norm calculation: 213.000000 [mu s]
	Time per iteration and DOF: 0.099481 [ns]
	Retrieve results bandwidth 3.269000 [GByte/s]
[OGL LOG][Proc: 0]p: solve_multi_gpu: 6681.18 [ms]
nonedpcppGKOCG:  Solving for p, Initial residual = 0.80945, Final residual = 9.98421e-05, No Iterations 2417
[INFO] SolveP: 6723.94 [ms]
time step continuity errors : sum local = 4.92459e-09, global = -7.55205e-23, cumulative = 1.53694e-21
[INFO] ContinuityError: 30.211 [ms]
[INFO] CorrectBoundary: 7.859 [ms]
[INFO] PISOStep: 7118.21 [ms]
[INFO] TimeStep: 44672.8 [ms]
ExecutionTime = 43.43 s  ClockTime = 48 s

Time = 0.000332

Courant Number mean: 0.0128238 max: 0.426584
[INFO] MatrixAssemblyU: 178.603 [ms]
DILUPBiCGStab:  Solving for Ux, Initial residual = 0.116949, Final residual = 0.00979522, No Iterations 5
DILUPBiCGStab:  Solving for Uy, Initial residual = 0.460127, Final residual = 0.0314341, No Iterations 5
DILUPBiCGStab:  Solving for Uz, Initial residual = 0.988821, Final residual = 0.0739803, No Iterations 5
[INFO] MomentumPredictor: 1658.07 [ms]
[INFO] MatrixAssemblyPI: 179.764 [ms]
[INFO] AdjustPhi: 12.332 [ms]
[INFO] ConstrainPressure: 0.002 [ms]
[INFO] MatrixAssemblyPII: 58.318 [ms]
[OGL LOG][Proc: 0]: global_index_init: 0.062 [ms]
[OGL LOG][Proc: 0]p_local_coeffs: call_update: 0 [ms]
[OGL LOG][Proc: 0]p_non_local_coeffs: call_update: 0 [ms]
[OGL LOG][Proc: 0]p: update_local_matrix_data: 39.184 [ms]
[OGL LOG][Proc: 0]p: update_non_local_matrix_data: 0.632 [ms]
[OGL LOG][Proc: 0]p: regenerate_distributed_matrix: 121.76 [ms]
[OGL LOG][Proc: 0]p_matrix: call_update: 122.47 [ms]
[OGL LOG][Proc: 0]p_rhs: call_update: 2.669 [ms]
[OGL LOG][Proc: 0]p: init_precond: 0.032 [ms]
[OGL LOG][StoppingCriterion.H:239] Creating stopping criterion with minIter 1450 frequency 8
[OGL LOG][Proc: 0]p: generate_solver: 0.02 [ms]
[OGL LOG][Proc: 0]p: solve: 5822.7 [ms]
[OGL LOG][Proc: 0]p: copy_x_back: 3.289 [ms]
[OGL LOG][lduLduBase.H:330] 
Statistics:
	Time per iteration: 2441 [mu s]
	Time per residual norm calculation: 193.000000 [mu s]
	Time per iteration and DOF: 0.090407 [ns]
	Retrieve results bandwidth 4.104000 [GByte/s]
[OGL LOG][Proc: 0]p: solve_multi_gpu: 5953.13 [ms]
nonedpcppGKOCG:  Solving for p, Initial residual = 0.879092, Final residual = 8.50061e-05, No Iterations 2385
[INFO] SolveP: 5998.21 [ms]
time step continuity errors : sum local = 8.12774e-09, global = -4.84874e-22, cumulative = 1.05206e-21
[INFO] ContinuityError: 28.009 [ms]
[INFO] CorrectBoundary: 2.083 [ms]
[INFO] PISOStep: 6356.11 [ms]
[INFO] MatrixAssemblyPI: 185.757 [ms]
[INFO] AdjustPhi: 31.863 [ms]
[INFO] ConstrainPressure: 0.002 [ms]
[INFO] MatrixAssemblyPII: 58.271 [ms]
[OGL LOG][Proc: 0]: global_index_init: 0.052 [ms]
[OGL LOG][Proc: 0]p_local_coeffs: call_update: 0 [ms]
[OGL LOG][Proc: 0]p_non_local_coeffs: call_update: 0 [ms]
[OGL LOG][Proc: 0]p: update_local_matrix_data: 37.189 [ms]
[OGL LOG][Proc: 0]p: update_non_local_matrix_data: 0.612 [ms]
[OGL LOG][Proc: 0]p: regenerate_distributed_matrix: 120.155 [ms]
[OGL LOG][Proc: 0]p_matrix: call_update: 120.915 [ms]
[OGL LOG][Proc: 0]p_rhs: call_update: 3.248 [ms]
[OGL LOG][Proc: 0]p: init_precond: 0.038 [ms]
[OGL LOG][StoppingCriterion.H:239] Creating stopping criterion with minIter 1431 frequency 8
[OGL LOG][Proc: 0]p: generate_solver: 0.019 [ms]
[OGL LOG][Proc: 0]p: solve: 5884.49 [ms]
[OGL LOG][Proc: 0]p: copy_x_back: 3.132 [ms]
[OGL LOG][lduLduBase.H:330] 
Statistics:
	Time per iteration: 2475 [mu s]
	Time per residual norm calculation: 224.000000 [mu s]
	Time per iteration and DOF: 0.091667 [ns]
	Retrieve results bandwidth 4.310000 [GByte/s]
[OGL LOG][Proc: 0]p: solve_multi_gpu: 6015.82 [ms]
nonedpcppGKOCG:  Solving for p, Initial residual = 0.827177, Final residual = 9.99981e-05, No Iterations 2377
[INFO] SolveP: 6059.01 [ms]
time step continuity errors : sum local = 9.73767e-09, global = -2.41e-22, cumulative = 8.11063e-22
[INFO] ContinuityError: 33.508 [ms]
[INFO] CorrectBoundary: 8.006 [ms]
[INFO] PISOStep: 6447.54 [ms]
[INFO] TimeStep: 14666.7 [ms]
ExecutionTime = 58.1 s  ClockTime = 62 s

Time = 0.000498

Courant Number mean: 0.0197919 max: 0.49188
[INFO] MatrixAssemblyU: 179.752 [ms]
DILUPBiCGStab:  Solving for Ux, Initial residual = 0.0544439, Final residual = 0.00365185, No Iterations 5
DILUPBiCGStab:  Solving for Uy, Initial residual = 0.226344, Final residual = 0.0163738, No Iterations 5
DILUPBiCGStab:  Solving for Uz, Initial residual = 0.850521, Final residual = 0.0546897, No Iterations 5
[INFO] MomentumPredictor: 1547.49 [ms]
[INFO] MatrixAssemblyPI: 194.26 [ms]
[INFO] AdjustPhi: 17.695 [ms]
[INFO] ConstrainPressure: 0.002 [ms]
[INFO] MatrixAssemblyPII: 61.864 [ms]
[OGL LOG][Proc: 0]: global_index_init: 0.277 [ms]
[OGL LOG][Proc: 0]p_local_coeffs: call_update: 0 [ms]
[OGL LOG][Proc: 0]p_non_local_coeffs: call_update: 0 [ms]
[OGL LOG][Proc: 0]p: update_local_matrix_data: 41.401 [ms]
[OGL LOG][Proc: 0]p: update_non_local_matrix_data: 0.62 [ms]
[OGL LOG][Proc: 0]p: regenerate_distributed_matrix: 119.702 [ms]
[OGL LOG][Proc: 0]p_matrix: call_update: 120.412 [ms]
[OGL LOG][Proc: 0]p_rhs: call_update: 2.711 [ms]
[OGL LOG][Proc: 0]p: init_precond: 0.04 [ms]
[OGL LOG][StoppingCriterion.H:239] Creating stopping criterion with minIter 1426 frequency 9
[OGL LOG][Proc: 0]p: generate_solver: 0.02 [ms]
[OGL LOG][Proc: 0]p: solve: 3413.49 [ms]
[OGL LOG][Proc: 0]p: copy_x_back: 3.069 [ms]
[OGL LOG][lduLduBase.H:330] 
Statistics:
	Time per iteration: 2383 [mu s]
	Time per residual norm calculation: 244.000000 [mu s]
	Time per iteration and DOF: 0.088259 [ns]
	Retrieve results bandwidth 4.398000 [GByte/s]
[OGL LOG][Proc: 0]p: solve_multi_gpu: 3543.21 [ms]
nonedpcppGKOCG:  Solving for p, Initial residual = 0.914223, Final residual = 7.06926e-05, No Iterations 1432
[INFO] SolveP: 3591.05 [ms]
time step continuity errors : sum local = 7.89163e-09, global = 1.64053e-21, cumulative = 2.4516e-21
[INFO] ContinuityError: 28.421 [ms]
[INFO] CorrectBoundary: 4.612 [ms]
[INFO] PISOStep: 3973.04 [ms]
[INFO] MatrixAssemblyPI: 182.863 [ms]
[INFO] AdjustPhi: 14.739 [ms]
[INFO] ConstrainPressure: 0.002 [ms]
[INFO] MatrixAssemblyPII: 58.191 [ms]
[OGL LOG][Proc: 0]: global_index_init: 0.155 [ms]
[OGL LOG][Proc: 0]p_local_coeffs: call_update: 0 [ms]
[OGL LOG][Proc: 0]p_non_local_coeffs: call_update: 0 [ms]
[OGL LOG][Proc: 0]p: update_local_matrix_data: 36.348 [ms]
[OGL LOG][Proc: 0]p: update_non_local_matrix_data: 0.611 [ms]
[OGL LOG][Proc: 0]p: regenerate_distributed_matrix: 103.982 [ms]
[OGL LOG][Proc: 0]p_matrix: call_update: 104.744 [ms]
[OGL LOG][Proc: 0]p_rhs: call_update: 3.105 [ms]
[OGL LOG][Proc: 0]p: init_precond: 0.038 [ms]
[OGL LOG][StoppingCriterion.H:239] Creating stopping criterion with minIter 859 frequency 7
[OGL LOG][Proc: 0]p: generate_solver: 0.021 [ms]
[OGL LOG][Proc: 0]p: solve: 2819.37 [ms]
[OGL LOG][Proc: 0]p: copy_x_back: 3.119 [ms]
[OGL LOG][lduLduBase.H:330] 
Statistics:
	Time per iteration: 2438 [mu s]
	Time per residual norm calculation: 215.000000 [mu s]
	Time per iteration and DOF: 0.090296 [ns]
	Retrieve results bandwidth 4.328000 [GByte/s]
[OGL LOG][Proc: 0]p: solve_multi_gpu: 2932.99 [ms]
nonedpcppGKOCG:  Solving for p, Initial residual = 0.882795, Final residual = 8.99986e-05, No Iterations 1156
[INFO] SolveP: 2975.3 [ms]
time step continuity errors : sum local = 9.44806e-09, global = 1.23231e-21, cumulative = 3.68391e-21
[INFO] ContinuityError: 28.478 [ms]
[INFO] CorrectBoundary: 0.579 [ms]
[INFO] PISOStep: 3331.67 [ms]
[INFO] TimeStep: 9060.17 [ms]
ExecutionTime = 67.16 s  ClockTime = 71 s

Time = 0.000664

Courant Number mean: 0.0238776 max: 0.471995
[INFO] MatrixAssemblyU: 171.848 [ms]
DILUPBiCGStab:  Solving for Ux, Initial residual = 0.0385208, Final residual = 0.00293223, No Iterations 5
DILUPBiCGStab:  Solving for Uy, Initial residual = 0.174015, Final residual = 0.0133285, No Iterations 5
DILUPBiCGStab:  Solving for Uz, Initial residual = 0.735162, Final residual = 0.0386947, No Iterations 5
[INFO] MomentumPredictor: 1390.85 [ms]
[INFO] MatrixAssemblyPI: 182.82 [ms]
[INFO] AdjustPhi: 25.879 [ms]
[INFO] ConstrainPressure: 0.002 [ms]
[INFO] MatrixAssemblyPII: 58.345 [ms]
[OGL LOG][Proc: 0]: global_index_init: 0.271 [ms]
[OGL LOG][Proc: 0]p_local_coeffs: call_update: 0 [ms]
[OGL LOG][Proc: 0]p_non_local_coeffs: call_update: 0 [ms]
[OGL LOG][Proc: 0]p: update_local_matrix_data: 39.226 [ms]
[OGL LOG][Proc: 0]p: update_non_local_matrix_data: 0.58 [ms]
[OGL LOG][Proc: 0]p: regenerate_distributed_matrix: 103.261 [ms]
[OGL LOG][Proc: 0]p_matrix: call_update: 103.96 [ms]
[OGL LOG][Proc: 0]p_rhs: call_update: 3.295 [ms]
[OGL LOG][Proc: 0]p: init_precond: 0.037 [ms]
[OGL LOG][StoppingCriterion.H:239] Creating stopping criterion with minIter 693 frequency 6
[OGL LOG][Proc: 0]p: generate_solver: 0.021 [ms]
[OGL LOG][Proc: 0]p: solve: 2868.91 [ms]
[OGL LOG][Proc: 0]p: copy_x_back: 3.067 [ms]
[OGL LOG][lduLduBase.H:330] 
Statistics:
	Time per iteration: 2475 [mu s]
	Time per residual norm calculation: 211.000000 [mu s]
	Time per iteration and DOF: 0.091667 [ns]
	Retrieve results bandwidth 4.401000 [GByte/s]
[OGL LOG][Proc: 0]p: solve_multi_gpu: 2982.82 [ms]
nonedpcppGKOCG:  Solving for p, Initial residual = 0.891167, Final residual = 9.59764e-05, No Iterations 1159
[INFO] SolveP: 3028.18 [ms]
time step continuity errors : sum local = 1.15435e-08, global = 5.14851e-22, cumulative = 4.19876e-21
[INFO] ContinuityError: 28.566 [ms]
[INFO] CorrectBoundary: 1 [ms]
[INFO] PISOStep: 3396.32 [ms]
[INFO] MatrixAssemblyPI: 195.338 [ms]
[INFO] AdjustPhi: 33.323 [ms]
[INFO] ConstrainPressure: 0.002 [ms]
[INFO] MatrixAssemblyPII: 61.399 [ms]
[OGL LOG][Proc: 0]: global_index_init: 0.145 [ms]
[OGL LOG][Proc: 0]p_local_coeffs: call_update: 0 [ms]
[OGL LOG][Proc: 0]p_non_local_coeffs: call_update: 0 [ms]
[OGL LOG][Proc: 0]p: update_local_matrix_data: 37.29 [ms]
[OGL LOG][Proc: 0]p: update_non_local_matrix_data: 0.599 [ms]
[OGL LOG][Proc: 0]p: regenerate_distributed_matrix: 119.398 [ms]
[OGL LOG][Proc: 0]p_matrix: call_update: 120.139 [ms]
[OGL LOG][Proc: 0]p_rhs: call_update: 3.06 [ms]
[OGL LOG][Proc: 0]p: init_precond: 0.041 [ms]
[OGL LOG][StoppingCriterion.H:239] Creating stopping criterion with minIter 695 frequency 6
[OGL LOG][Proc: 0]p: generate_solver: 0.021 [ms]
[OGL LOG][Proc: 0]p: solve: 2849.61 [ms]
[OGL LOG][Proc: 0]p: copy_x_back: 3.025 [ms]
[OGL LOG][lduLduBase.H:330] 
Statistics:
	Time per iteration: 2484 [mu s]
	Time per residual norm calculation: 227.000000 [mu s]
	Time per iteration and DOF: 0.092000 [ns]
	Retrieve results bandwidth 4.462000 [GByte/s]
[OGL LOG][Proc: 0]p: solve_multi_gpu: 2978.45 [ms]
nonedpcppGKOCG:  Solving for p, Initial residual = 0.830986, Final residual = 9.84037e-05, No Iterations 1147
[INFO] SolveP: 3021.68 [ms]
time step continuity errors : sum local = 1.14551e-08, global = 2.36773e-22, cumulative = 4.43553e-21
[INFO] ContinuityError: 29.832 [ms]
[INFO] CorrectBoundary: 8.614 [ms]
[INFO] PISOStep: 3429.4 [ms]
[INFO] TimeStep: 8421.59 [ms]
ExecutionTime = 75.58 s  ClockTime = 80 s

Time = 0.00083

Courant Number mean: 0.027392 max: 0.505185
[INFO] MatrixAssemblyU: 170.817 [ms]
DILUPBiCGStab:  Solving for Ux, Initial residual = 0.0324284, Final residual = 0.00250834, No Iterations 5
DILUPBiCGStab:  Solving for Uy, Initial residual = 0.129832, Final residual = 0.0113456, No Iterations 5
DILUPBiCGStab:  Solving for Uz, Initial residual = 0.6856, Final residual = 0.0343807, No Iterations 5
[INFO] MomentumPredictor: 1598.83 [ms]
[INFO] MatrixAssemblyPI: 193.061 [ms]
[INFO] AdjustPhi: 15.1 [ms]
[INFO] ConstrainPressure: 0.002 [ms]
[INFO] MatrixAssemblyPII: 62.783 [ms]
[OGL LOG][Proc: 0]: global_index_init: 0.173 [ms]
[OGL LOG][Proc: 0]p_local_coeffs: call_update: 0 [ms]
[OGL LOG][Proc: 0]p_non_local_coeffs: call_update: 0 [ms]
[OGL LOG][Proc: 0]p: update_local_matrix_data: 41.746 [ms]
[OGL LOG][Proc: 0]p: update_non_local_matrix_data: 0.607 [ms]
[OGL LOG][Proc: 0]p: regenerate_distributed_matrix: 102.502 [ms]
[OGL LOG][Proc: 0]p_matrix: call_update: 103.214 [ms]
[OGL LOG][Proc: 0]p_rhs: call_update: 3.208 [ms]
[OGL LOG][Proc: 0]p: init_precond: 0.039 [ms]
[OGL LOG][StoppingCriterion.H:239] Creating stopping criterion with minIter 688 frequency 6
[OGL LOG][Proc: 0]p: generate_solver: 0.02 [ms]
[OGL LOG][Proc: 0]p: solve: 6095.24 [ms]
[OGL LOG][Proc: 0]p: copy_x_back: 3.16 [ms]
[OGL LOG][lduLduBase.H:330] 
Statistics:
	Time per iteration: 2564 [mu s]
	Time per residual norm calculation: 231.000000 [mu s]
	Time per iteration and DOF: 0.094963 [ns]
	Retrieve results bandwidth 4.272000 [GByte/s]
[OGL LOG][Proc: 0]p: solve_multi_gpu: 6206.93 [ms]
nonedpcppGKOCG:  Solving for p, Initial residual = 0.911482, Final residual = 9.95856e-05, No Iterations 2377
[INFO] SolveP: 6254.76 [ms]
time step continuity errors : sum local = 1.10812e-08, global = 5.77231e-22, cumulative = 5.01276e-21
[INFO] ContinuityError: 28.983 [ms]
[INFO] CorrectBoundary: 2.216 [ms]
[INFO] PISOStep: 6629.75 [ms]
[INFO] MatrixAssemblyPI: 189.865 [ms]
[INFO] AdjustPhi: 30.686 [ms]
[INFO] ConstrainPressure: 0.002 [ms]
[INFO] MatrixAssemblyPII: 57.163 [ms]
[OGL LOG][Proc: 0]: global_index_init: 0.057 [ms]
[OGL LOG][Proc: 0]p_local_coeffs: call_update: 0 [ms]
[OGL LOG][Proc: 0]p_non_local_coeffs: call_update: 0 [ms]
[OGL LOG][Proc: 0]p: update_local_matrix_data: 29.077 [ms]
[OGL LOG][Proc: 0]p: update_non_local_matrix_data: 0.603 [ms]
[OGL LOG][Proc: 0]p: regenerate_distributed_matrix: 121.948 [ms]
[OGL LOG][Proc: 0]p_matrix: call_update: 122.666 [ms]
[OGL LOG][Proc: 0]p_rhs: call_update: 2.706 [ms]
[OGL LOG][Proc: 0]p: init_precond: 0.046 [ms]
[OGL LOG][StoppingCriterion.H:239] Creating stopping criterion with minIter 1426 frequency 9
[OGL LOG][Proc: 0]p: generate_solver: 0.019 [ms]
[OGL LOG][Proc: 0]p: solve: 6006.38 [ms]
[OGL LOG][Proc: 0]p: copy_x_back: 3.723 [ms]
[OGL LOG][lduLduBase.H:330] 
Statistics:
	Time per iteration: 2526 [mu s]
	Time per residual norm calculation: 209.000000 [mu s]
	Time per iteration and DOF: 0.093556 [ns]
	Retrieve results bandwidth 3.626000 [GByte/s]
[OGL LOG][Proc: 0]p: solve_multi_gpu: 6146.25 [ms]
nonedpcppGKOCG:  Solving for p, Initial residual = 0.873378, Final residual = 9.5233e-05, No Iterations 2377
[INFO] SolveP: 6183.16 [ms]
time step continuity errors : sum local = 1.0462e-08, global = 1.80125e-21, cumulative = 6.81401e-21
[INFO] ContinuityError: 33.194 [ms]
[INFO] CorrectBoundary: 0.505 [ms]
[INFO] PISOStep: 6579.7 [ms]
[INFO] TimeStep: 15004.2 [ms]
ExecutionTime = 90.58 s  ClockTime = 95 s

Time = 0.000996

Courant Number mean: 0.0301232 max: 0.478357
[INFO] MatrixAssemblyU: 179.724 [ms]
DILUPBiCGStab:  Solving for Ux, Initial residual = 0.0271215, Final residual = 0.00227254, No Iterations 5
DILUPBiCGStab:  Solving for Uy, Initial residual = 0.112074, Final residual = 0.00907364, No Iterations 5
DILUPBiCGStab:  Solving for Uz, Initial residual = 0.589074, Final residual = 0.0271366, No Iterations 5
[INFO] MomentumPredictor: 1435.6 [ms]
[INFO] MatrixAssemblyPI: 194.64 [ms]
[INFO] AdjustPhi: 15.434 [ms]
[INFO] ConstrainPressure: 0.002 [ms]
[INFO] MatrixAssemblyPII: 62.697 [ms]
[OGL LOG][Proc: 0]: global_index_init: 0.156 [ms]
[OGL LOG][Proc: 0]p_local_coeffs: call_update: 0 [ms]
[OGL LOG][Proc: 0]p_non_local_coeffs: call_update: 0 [ms]
[OGL LOG][Proc: 0]p: update_local_matrix_data: 43.077 [ms]
[OGL LOG][Proc: 0]p: update_non_local_matrix_data: 0.604 [ms]
[OGL LOG][Proc: 0]p: regenerate_distributed_matrix: 120.411 [ms]
[OGL LOG][Proc: 0]p_matrix: call_update: 121.189 [ms]
[OGL LOG][Proc: 0]p_rhs: call_update: 2.223 [ms]
[OGL LOG][Proc: 0]p: init_precond: 0.033 [ms]
[OGL LOG][StoppingCriterion.H:239] Creating stopping criterion with minIter 1426 frequency 8
[OGL LOG][Proc: 0]p: generate_solver: 0.019 [ms]
[OGL LOG][Proc: 0]p: solve: 5747.88 [ms]
[OGL LOG][Proc: 0]p: copy_x_back: 3.123 [ms]
[OGL LOG][lduLduBase.H:330] 
Statistics:
	Time per iteration: 2418 [mu s]
	Time per residual norm calculation: 252.000000 [mu s]
	Time per iteration and DOF: 0.089556 [ns]
	Retrieve results bandwidth 4.322000 [GByte/s]
[OGL LOG][Proc: 0]p: solve_multi_gpu: 5875.27 [ms]
nonedpcppGKOCG:  Solving for p, Initial residual = 0.88938, Final residual = 8.94498e-05, No Iterations 2377
[INFO] SolveP: 5926.36 [ms]
time step continuity errors : sum local = 1.01786e-08, global = 1.215e-21, cumulative = 8.02901e-21
[INFO] ContinuityError: 28.775 [ms]
[INFO] CorrectBoundary: 14.013 [ms]
[INFO] PISOStep: 6309.26 [ms]
[INFO] MatrixAssemblyPI: 181.172 [ms]
[INFO] AdjustPhi: 31.815 [ms]
[INFO] ConstrainPressure: 0.002 [ms]
[INFO] MatrixAssemblyPII: 57.153 [ms]
[OGL LOG][Proc: 0]: global_index_init: 1.844 [ms]
[OGL LOG][Proc: 0]p_local_coeffs: call_update: 0 [ms]
[OGL LOG][Proc: 0]p_non_local_coeffs: call_update: 0 [ms]
[OGL LOG][Proc: 0]p: update_local_matrix_data: 36.764 [ms]
[OGL LOG][Proc: 0]p: update_non_local_matrix_data: 0.565 [ms]
[OGL LOG][Proc: 0]p: regenerate_distributed_matrix: 120.42 [ms]
[OGL LOG][Proc: 0]p_matrix: call_update: 121.148 [ms]
[OGL LOG][Proc: 0]p_rhs: call_update: 2.736 [ms]
[OGL LOG][Proc: 0]p: init_precond: 0.045 [ms]
[OGL LOG][StoppingCriterion.H:239] Creating stopping criterion with minIter 1426 frequency 10
[OGL LOG][Proc: 0]p: generate_solver: 0.02 [ms]
[OGL LOG][Proc: 0]p: solve: 5728.65 [ms]
[OGL LOG][Proc: 0]p: copy_x_back: 3.211 [ms]
[OGL LOG][lduLduBase.H:330] 
Statistics:
	Time per iteration: 2416 [mu s]
	Time per residual norm calculation: 221.000000 [mu s]
	Time per iteration and DOF: 0.089481 [ns]
	Retrieve results bandwidth 4.204000 [GByte/s]
[OGL LOG][Proc: 0]p: solve_multi_gpu: 5859.3 [ms]
nonedpcppGKOCG:  Solving for p, Initial residual = 0.826271, Final residual = 9.76206e-05, No Iterations 2371
[INFO] SolveP: 5903.7 [ms]
time step continuity errors : sum local = 1.12752e-08, global = -1.32344e-22, cumulative = 7.89667e-21
[INFO] ContinuityError: 28.617 [ms]
[INFO] CorrectBoundary: 1.105 [ms]
[INFO] PISOStep: 6284.19 [ms]
[INFO] TimeStep: 14235.3 [ms]
ExecutionTime = 104.82 s  ClockTime = 109 s

Time = 0.001162

Courant Number mean: 0.0325867 max: 0.512236
[INFO] MatrixAssemblyU: 170.407 [ms]
DILUPBiCGStab:  Solving for Ux, Initial residual = 0.0246056, Final residual = 0.00211874, No Iterations 5
DILUPBiCGStab:  Solving for Uy, Initial residual = 0.098604, Final residual = 0.00833201, No Iterations 5
DILUPBiCGStab:  Solving for Uz, Initial residual = 0.562129, Final residual = 0.023946, No Iterations 5
[INFO] MomentumPredictor: 1541.43 [ms]
[INFO] MatrixAssemblyPI: 193.456 [ms]
[INFO] AdjustPhi: 14.835 [ms]
[INFO] ConstrainPressure: 0.002 [ms]
[INFO] MatrixAssemblyPII: 62.664 [ms]
[OGL LOG][Proc: 0]: global_index_init: 0.088 [ms]
[OGL LOG][Proc: 0]p_local_coeffs: call_update: 0 [ms]
[OGL LOG][Proc: 0]p_non_local_coeffs: call_update: 0 [ms]
[OGL LOG][Proc: 0]p: update_local_matrix_data: 41.342 [ms]
[OGL LOG][Proc: 0]p: update_non_local_matrix_data: 0.578 [ms]
[OGL LOG][Proc: 0]p: regenerate_distributed_matrix: 119.899 [ms]
[OGL LOG][Proc: 0]p_matrix: call_update: 120.627 [ms]
[OGL LOG][Proc: 0]p_rhs: call_update: 2.988 [ms]
[OGL LOG][Proc: 0]p: init_precond: 0.042 [ms]
[OGL LOG][StoppingCriterion.H:239] Creating stopping criterion with minIter 1422 frequency 9
[OGL LOG][Proc: 0]p: generate_solver: 0.02 [ms]
[OGL LOG][Proc: 0]p: solve: 5212.27 [ms]
[OGL LOG][Proc: 0]p: copy_x_back: 3.14 [ms]
[OGL LOG][lduLduBase.H:330] 
Statistics:
	Time per iteration: 2382 [mu s]
	Time per residual norm calculation: 203.000000 [mu s]
	Time per iteration and DOF: 0.088222 [ns]
	Retrieve results bandwidth 4.299000 [GByte/s]
[OGL LOG][Proc: 0]p: solve_multi_gpu: 5342.29 [ms]
nonedpcppGKOCG:  Solving for p, Initial residual = 0.907347, Final residual = 9.64585e-05, No Iterations 2188
[INFO] SolveP: 5389.67 [ms]
time step continuity errors : sum local = 1.07223e-08, global = 1.61479e-22, cumulative = 8.05814e-21
[INFO] ContinuityError: 28.813 [ms]
[INFO] CorrectBoundary: 8.366 [ms]
[INFO] PISOStep: 5775.71 [ms]
[INFO] MatrixAssemblyPI: 181.548 [ms]
[INFO] AdjustPhi: 33.025 [ms]
[INFO] ConstrainPressure: 0.002 [ms]
[INFO] MatrixAssemblyPII: 58.325 [ms]
[OGL LOG][Proc: 0]: global_index_init: 0.089 [ms]
[OGL LOG][Proc: 0]p_local_coeffs: call_update: 0 [ms]
[OGL LOG][Proc: 0]p_non_local_coeffs: call_update: 0 [ms]
[OGL LOG][Proc: 0]p: update_local_matrix_data: 35.604 [ms]
[OGL LOG][Proc: 0]p: update_non_local_matrix_data: 0.617 [ms]
[OGL LOG][Proc: 0]p: regenerate_distributed_matrix: 121.525 [ms]
[OGL LOG][Proc: 0]p_matrix: call_update: 122.24 [ms]
[OGL LOG][Proc: 0]p_rhs: call_update: 3.246 [ms]
[OGL LOG][Proc: 0]p: init_precond: 0.04 [ms]
[OGL LOG][StoppingCriterion.H:239] Creating stopping criterion with minIter 1312 frequency 8
[OGL LOG][Proc: 0]p: generate_solver: 0.02 [ms]
[OGL LOG][Proc: 0]p: solve: 5921.19 [ms]
[OGL LOG][Proc: 0]p: copy_x_back: 3.205 [ms]
[OGL LOG][lduLduBase.H:330] 
Statistics:
	Time per iteration: 2586 [mu s]
	Time per residual norm calculation: 216.000000 [mu s]
	Time per iteration and DOF: 0.095778 [ns]
	Retrieve results bandwidth 4.212000 [GByte/s]
[OGL LOG][Proc: 0]p: solve_multi_gpu: 6056.64 [ms]
nonedpcppGKOCG:  Solving for p, Initial residual = 0.862367, Final residual = 9.57367e-05, No Iterations 2289
[INFO] SolveP: 6098.18 [ms]
time step continuity errors : sum local = 1.05263e-08, global = -8.71828e-22, cumulative = 7.18632e-21
[INFO] ContinuityError: 28.492 [ms]
[INFO] CorrectBoundary: 0.543 [ms]
[INFO] PISOStep: 6479.2 [ms]
[INFO] TimeStep: 13997.9 [ms]
ExecutionTime = 118.82 s  ClockTime = 123 s

Time = 0.001328

Courant Number mean: 0.0346583 max: 0.48128
[INFO] MatrixAssemblyU: 169.318 [ms]
DILUPBiCGStab:  Solving for Ux, Initial residual = 0.0221936, Final residual = 0.00198908, No Iterations 5
DILUPBiCGStab:  Solving for Uy, Initial residual = 0.0873552, Final residual = 0.00700949, No Iterations 5
DILUPBiCGStab:  Solving for Uz, Initial residual = 0.521417, Final residual = 0.0222207, No Iterations 5
[INFO] MomentumPredictor: 1562.89 [ms]
[INFO] MatrixAssemblyPI: 192.484 [ms]
[INFO] AdjustPhi: 16.778 [ms]
[INFO] ConstrainPressure: 0.002 [ms]
[INFO] MatrixAssemblyPII: 62.468 [ms]
[OGL LOG][Proc: 0]: global_index_init: 0.131 [ms]
[OGL LOG][Proc: 0]p_local_coeffs: call_update: 0 [ms]
[OGL LOG][Proc: 0]p_non_local_coeffs: call_update: 0 [ms]
[OGL LOG][Proc: 0]p: update_local_matrix_data: 41.454 [ms]
[OGL LOG][Proc: 0]p: update_non_local_matrix_data: 0.583 [ms]
[OGL LOG][Proc: 0]p: regenerate_distributed_matrix: 102.889 [ms]
[OGL LOG][Proc: 0]p_matrix: call_update: 103.608 [ms]
[OGL LOG][Proc: 0]p_rhs: call_update: 2.463 [ms]
[OGL LOG][Proc: 0]p: init_precond: 0.039 [ms]
[OGL LOG][StoppingCriterion.H:239] Creating stopping criterion with minIter 1373 frequency 9
[OGL LOG][Proc: 0]p: generate_solver: 0.02 [ms]
[OGL LOG][Proc: 0]p: solve: 5590.51 [ms]
[OGL LOG][Proc: 0]p: copy_x_back: 3.345 [ms]
[OGL LOG][lduLduBase.H:330] 
Statistics:
	Time per iteration: 2425 [mu s]
	Time per residual norm calculation: 223.000000 [mu s]
	Time per iteration and DOF: 0.089815 [ns]
	Retrieve results bandwidth 4.035000 [GByte/s]
[OGL LOG][Proc: 0]p: solve_multi_gpu: 5702.65 [ms]
nonedpcppGKOCG:  Solving for p, Initial residual = 0.885802, Final residual = 9.57724e-05, No Iterations 2305
[INFO] SolveP: 5751.98 [ms]
time step continuity errors : sum local = 1.08248e-08, global = 6.62556e-22, cumulative = 7.84887e-21
[INFO] ContinuityError: 27.952 [ms]
[INFO] CorrectBoundary: 0.792 [ms]
[INFO] PISOStep: 6131.23 [ms]
[INFO] MatrixAssemblyPI: 202.107 [ms]
[INFO] AdjustPhi: 10.021 [ms]
[INFO] ConstrainPressure: 0.002 [ms]
[INFO] MatrixAssemblyPII: 65.387 [ms]
[OGL LOG][Proc: 0]: global_index_init: 0.068 [ms]
[OGL LOG][Proc: 0]p_local_coeffs: call_update: 0 [ms]
[OGL LOG][Proc: 0]p_non_local_coeffs: call_update: 0 [ms]
[OGL LOG][Proc: 0]p: update_local_matrix_data: 38.847 [ms]
[OGL LOG][Proc: 0]p: update_non_local_matrix_data: 0.64 [ms]
[OGL LOG][Proc: 0]p: regenerate_distributed_matrix: 122.118 [ms]
[OGL LOG][Proc: 0]p_matrix: call_update: 123.143 [ms]
[OGL LOG][Proc: 0]p_rhs: call_update: 1.667 [ms]
[OGL LOG][Proc: 0]p: init_precond: 0.039 [ms]
[OGL LOG][StoppingCriterion.H:239] Creating stopping criterion with minIter 1383 frequency 9
[OGL LOG][Proc: 0]p: generate_solver: 0.02 [ms]
[OGL LOG][Proc: 0]p: solve: 5604.5 [ms]
[OGL LOG][Proc: 0]p: copy_x_back: 3.803 [ms]
[OGL LOG][lduLduBase.H:330] 
Statistics:
	Time per iteration: 2431 [mu s]
	Time per residual norm calculation: 197.000000 [mu s]
	Time per iteration and DOF: 0.090037 [ns]
	Retrieve results bandwidth 3.549000 [GByte/s]
[OGL LOG][Proc: 0]p: solve_multi_gpu: 5734.93 [ms]
nonedpcppGKOCG:  Solving for p, Initial residual = 0.820073, Final residual = 8.999e-05, No Iterations 2305
[INFO] SolveP: 5779.63 [ms]
time step continuity errors : sum local = 1.03095e-08, global = 1.20423e-22, cumulative = 7.9693e-21
[INFO] ContinuityError: 29.912 [ms]
[INFO] CorrectBoundary: 7.903 [ms]
[INFO] PISOStep: 6169.13 [ms]
[INFO] TimeStep: 14063.9 [ms]
ExecutionTime = 132.88 s  ClockTime = 137 s

Time = 0.001494

Courant Number mean: 0.0365912 max: 0.51842
[INFO] MatrixAssemblyU: 172.124 [ms]
DILUPBiCGStab:  Solving for Ux, Initial residual = 0.020622, Final residual = 0.00185741, No Iterations 5
DILUPBiCGStab:  Solving for Uy, Initial residual = 0.0822843, Final residual = 0.00660577, No Iterations 5
DILUPBiCGStab:  Solving for Uz, Initial residual = 0.515738, Final residual = 0.020412, No Iterations 5
[INFO] MomentumPredictor: 1632.38 [ms]
[INFO] MatrixAssemblyPI: 194.092 [ms]
[INFO] AdjustPhi: 15.475 [ms]
[INFO] ConstrainPressure: 0.002 [ms]
[INFO] MatrixAssemblyPII: 62.168 [ms]
[OGL LOG][Proc: 0]: global_index_init: 0.148 [ms]
[OGL LOG][Proc: 0]p_local_coeffs: call_update: 0 [ms]
[OGL LOG][Proc: 0]p_non_local_coeffs: call_update: 0 [ms]
[OGL LOG][Proc: 0]p: update_local_matrix_data: 40.18 [ms]
[OGL LOG][Proc: 0]p: update_non_local_matrix_data: 0.667 [ms]
[OGL LOG][Proc: 0]p: regenerate_distributed_matrix: 104.086 [ms]
[OGL LOG][Proc: 0]p_matrix: call_update: 104.775 [ms]
[OGL LOG][Proc: 0]p_rhs: call_update: 3.575 [ms]
[OGL LOG][Proc: 0]p: init_precond: 0.032 [ms]
[OGL LOG][StoppingCriterion.H:239] Creating stopping criterion with minIter 1383 frequency 8
[OGL LOG][Proc: 0]p: generate_solver: 0.017 [ms]
[OGL LOG][Proc: 0]p: solve: 5065.77 [ms]
[OGL LOG][Proc: 0]p: copy_x_back: 3.088 [ms]
[OGL LOG][lduLduBase.H:330] 
Statistics:
	Time per iteration: 2415 [mu s]
	Time per residual norm calculation: 206.000000 [mu s]
	Time per iteration and DOF: 0.089444 [ns]
	Retrieve results bandwidth 4.371000 [GByte/s]
[OGL LOG][Proc: 0]p: solve_multi_gpu: 5181.19 [ms]
nonedpcppGKOCG:  Solving for p, Initial residual = 0.90327, Final residual = 8.82031e-05, No Iterations 2097
[INFO] SolveP: 5229.76 [ms]
time step continuity errors : sum local = 9.76739e-09, global = 7.40112e-22, cumulative = 8.70941e-21
[INFO] ContinuityError: 27.815 [ms]
[INFO] CorrectBoundary: 8.624 [ms]
[INFO] PISOStep: 5611.91 [ms]
[INFO] MatrixAssemblyPI: 180.823 [ms]
[INFO] AdjustPhi: 31.621 [ms]
[INFO] ConstrainPressure: 0.002 [ms]
[INFO] MatrixAssemblyPII: 58.613 [ms]
[OGL LOG][Proc: 0]: global_index_init: 0.127 [ms]
[OGL LOG][Proc: 0]p_local_coeffs: call_update: 0 [ms]
[OGL LOG][Proc: 0]p_non_local_coeffs: call_update: 0 [ms]
[OGL LOG][Proc: 0]p: update_local_matrix_data: 37.446 [ms]
[OGL LOG][Proc: 0]p: update_non_local_matrix_data: 0.602 [ms]
[OGL LOG][Proc: 0]p: regenerate_distributed_matrix: 121.579 [ms]
[OGL LOG][Proc: 0]p_matrix: call_update: 122.631 [ms]
[OGL LOG][Proc: 0]p_rhs: call_update: 1.572 [ms]
[OGL LOG][Proc: 0]p: init_precond: 0.042 [ms]
[OGL LOG][StoppingCriterion.H:239] Creating stopping criterion with minIter 1258 frequency 8
[OGL LOG][Proc: 0]p: generate_solver: 0.021 [ms]
[OGL LOG][Proc: 0]p: solve: 5130.52 [ms]
[OGL LOG][Proc: 0]p: copy_x_back: 3.198 [ms]
[OGL LOG][lduLduBase.H:330] 
Statistics:
	Time per iteration: 2455 [mu s]
	Time per residual norm calculation: 231.000000 [mu s]
	Time per iteration and DOF: 0.090926 [ns]
	Retrieve results bandwidth 4.221000 [GByte/s]
[OGL LOG][Proc: 0]p: solve_multi_gpu: 5260.88 [ms]
nonedpcppGKOCG:  Solving for p, Initial residual = 0.853753, Final residual = 9.2371e-05, No Iterations 2089
[INFO] SolveP: 5305.24 [ms]
time step continuity errors : sum local = 1.01299e-08, global = -2.15408e-24, cumulative = 8.70725e-21
[INFO] ContinuityError: 29.806 [ms]
[INFO] CorrectBoundary: 1.833 [ms]
[INFO] PISOStep: 5694.38 [ms]
[INFO] TimeStep: 13138.2 [ms]
ExecutionTime = 146.03 s  ClockTime = 150 s

Time = 0.00166

Courant Number mean: 0.0382731 max: 0.483673
[INFO] MatrixAssemblyU: 170.073 [ms]
DILUPBiCGStab:  Solving for Ux, Initial residual = 0.0194302, Final residual = 0.00177008, No Iterations 5
DILUPBiCGStab:  Solving for Uy, Initial residual = 0.0739342, Final residual = 0.00573333, No Iterations 5
DILUPBiCGStab:  Solving for Uz, Initial residual = 0.492161, Final residual = 0.0192522, No Iterations 5
[INFO] MomentumPredictor: 1603.14 [ms]
[INFO] MatrixAssemblyPI: 195.878 [ms]
[INFO] AdjustPhi: 15.859 [ms]
[INFO] ConstrainPressure: 0.002 [ms]
[INFO] MatrixAssemblyPII: 62.202 [ms]
[OGL LOG][Proc: 0]: global_index_init: 0.111 [ms]
[OGL LOG][Proc: 0]p_local_coeffs: call_update: 0 [ms]
[OGL LOG][Proc: 0]p_non_local_coeffs: call_update: 0 [ms]
[OGL LOG][Proc: 0]p: update_local_matrix_data: 41.636 [ms]
[OGL LOG][Proc: 0]p: update_non_local_matrix_data: 0.583 [ms]
[OGL LOG][Proc: 0]p: regenerate_distributed_matrix: 102.21 [ms]
[OGL LOG][Proc: 0]p_matrix: call_update: 102.953 [ms]
[OGL LOG][Proc: 0]p_rhs: call_update: 2.928 [ms]
[OGL LOG][Proc: 0]p: init_precond: 0.042 [ms]
[OGL LOG][StoppingCriterion.H:239] Creating stopping criterion with minIter 1253 frequency 9
[OGL LOG][Proc: 0]p: generate_solver: 0.021 [ms]
[OGL LOG][Proc: 0]p: solve: 5506.29 [ms]
[OGL LOG][Proc: 0]p: copy_x_back: 3.096 [ms]
[OGL LOG][lduLduBase.H:330] 
Statistics:
	Time per iteration: 2388 [mu s]
	Time per residual norm calculation: 199.000000 [mu s]
	Time per iteration and DOF: 0.088444 [ns]
	Retrieve results bandwidth 4.360000 [GByte/s]
[OGL LOG][Proc: 0]p: solve_multi_gpu: 5618.05 [ms]
nonedpcppGKOCG:  Solving for p, Initial residual = 0.884602, Final residual = 9.09528e-05, No Iterations 2305
[INFO] SolveP: 5665.95 [ms]
time step continuity errors : sum local = 1.03895e-08, global = 9.55193e-22, cumulative = 9.66245e-21
[INFO] ContinuityError: 28.6 [ms]
[INFO] CorrectBoundary: 12.015 [ms]
[INFO] PISOStep: 6050.81 [ms]
[INFO] MatrixAssemblyPI: 180.94 [ms]
[INFO] AdjustPhi: 30.795 [ms]
[INFO] ConstrainPressure: 0.002 [ms]
[INFO] MatrixAssemblyPII: 58.313 [ms]
[OGL LOG][Proc: 0]: global_index_init: 0.152 [ms]
[OGL LOG][Proc: 0]p_local_coeffs: call_update: 0 [ms]
[OGL LOG][Proc: 0]p_non_local_coeffs: call_update: 0 [ms]
[OGL LOG][Proc: 0]p: update_local_matrix_data: 36.97 [ms]
[OGL LOG][Proc: 0]p: update_non_local_matrix_data: 0.647 [ms]
[OGL LOG][Proc: 0]p: regenerate_distributed_matrix: 121.268 [ms]
[OGL LOG][Proc: 0]p_matrix: call_update: 122.03 [ms]
[OGL LOG][Proc: 0]p_rhs: call_update: 2.443 [ms]
[OGL LOG][Proc: 0]p: init_precond: 0.039 [ms]
[OGL LOG][StoppingCriterion.H:239] Creating stopping criterion with minIter 1383 frequency 8
[OGL LOG][Proc: 0]p: generate_solver: 0.02 [ms]
[OGL LOG][Proc: 0]p: solve: 5508.32 [ms]
[OGL LOG][Proc: 0]p: copy_x_back: 3.239 [ms]
[OGL LOG][lduLduBase.H:330] 
Statistics:
	Time per iteration: 2398 [mu s]
	Time per residual norm calculation: 199.000000 [mu s]
	Time per iteration and DOF: 0.088815 [ns]
	Retrieve results bandwidth 4.167000 [GByte/s]
[OGL LOG][Proc: 0]p: solve_multi_gpu: 5638.48 [ms]
nonedpcppGKOCG:  Solving for p, Initial residual = 0.815803, Final residual = 9.86996e-05, No Iterations 2297
[INFO] SolveP: 5682.55 [ms]
time step continuity errors : sum local = 1.14143e-08, global = 1.31495e-21, cumulative = 1.09774e-20
[INFO] ContinuityError: 29.288 [ms]
[INFO] CorrectBoundary: 0.454 [ms]
[INFO] PISOStep: 6061.77 [ms]
[INFO] TimeStep: 13912.5 [ms]
ExecutionTime = 159.93 s  ClockTime = 164 s

Time = 0.001826

Courant Number mean: 0.0398821 max: 0.525023
[INFO] MatrixAssemblyU: 170.041 [ms]
DILUPBiCGStab:  Solving for Ux, Initial residual = 0.0182455, Final residual = 0.00164759, No Iterations 5
DILUPBiCGStab:  Solving for Uy, Initial residual = 0.0723398, Final residual = 0.00551704, No Iterations 5
DILUPBiCGStab:  Solving for Uz, Initial residual = 0.494487, Final residual = 0.0183226, No Iterations 5
[INFO] MomentumPredictor: 1428.95 [ms]
[INFO] MatrixAssemblyPI: 192.932 [ms]
[INFO] AdjustPhi: 15.052 [ms]
[INFO] ConstrainPressure: 0.002 [ms]
[INFO] MatrixAssemblyPII: 62.296 [ms]
[OGL LOG][Proc: 0]: global_index_init: 0.104 [ms]
[OGL LOG][Proc: 0]p_local_coeffs: call_update: 0 [ms]
[OGL LOG][Proc: 0]p_non_local_coeffs: call_update: 0 [ms]
[OGL LOG][Proc: 0]p: update_local_matrix_data: 40.931 [ms]
[OGL LOG][Proc: 0]p: update_non_local_matrix_data: 0.596 [ms]
[OGL LOG][Proc: 0]p: regenerate_distributed_matrix: 120.922 [ms]
[OGL LOG][Proc: 0]p_matrix: call_update: 121.634 [ms]
[OGL LOG][Proc: 0]p_rhs: call_update: 2.883 [ms]
[OGL LOG][Proc: 0]p: init_precond: 0.038 [ms]
[OGL LOG][StoppingCriterion.H:239] Creating stopping criterion with minIter 1378 frequency 8
[OGL LOG][Proc: 0]p: generate_solver: 0.02 [ms]
[OGL LOG][Proc: 0]p: solve: 5706.9 [ms]
[OGL LOG][Proc: 0]p: copy_x_back: 3.177 [ms]
[OGL LOG][lduLduBase.H:330] 
Statistics:
	Time per iteration: 2484 [mu s]
	Time per residual norm calculation: 211.000000 [mu s]
	Time per iteration and DOF: 0.092000 [ns]
	Retrieve results bandwidth 4.249000 [GByte/s]
[OGL LOG][Proc: 0]p: solve_multi_gpu: 5837.87 [ms]
nonedpcppGKOCG:  Solving for p, Initial residual = 0.903416, Final residual = 9.53863e-05, No Iterations 2297
[INFO] SolveP: 5885.06 [ms]
time step continuity errors : sum local = 1.08419e-08, global = 1.51129e-23, cumulative = 1.09925e-20
[INFO] ContinuityError: 27.736 [ms]
[INFO] CorrectBoundary: 1.191 [ms]
[INFO] PISOStep: 6260.78 [ms]
[INFO] MatrixAssemblyPI: 189.84 [ms]
[INFO] AdjustPhi: 22.979 [ms]
[INFO] ConstrainPressure: 0.002 [ms]
[INFO] MatrixAssemblyPII: 61.857 [ms]
[OGL LOG][Proc: 0]: global_index_init: 0.033 [ms]
[OGL LOG][Proc: 0]p_local_coeffs: call_update: 0 [ms]
[OGL LOG][Proc: 0]p_non_local_coeffs: call_update: 0 [ms]
[OGL LOG][Proc: 0]p: update_local_matrix_data: 37.565 [ms]
[OGL LOG][Proc: 0]p: update_non_local_matrix_data: 0.668 [ms]
[OGL LOG][Proc: 0]p: regenerate_distributed_matrix: 120.978 [ms]
[OGL LOG][Proc: 0]p_matrix: call_update: 121.706 [ms]
[OGL LOG][Proc: 0]p_rhs: call_update: 3.009 [ms]
[OGL LOG][Proc: 0]p: init_precond: 0.037 [ms]
[OGL LOG][StoppingCriterion.H:239] Creating stopping criterion with minIter 1378 frequency 9
[OGL LOG][Proc: 0]p: generate_solver: 0.018 [ms]
[OGL LOG][Proc: 0]p: solve: 5758.16 [ms]
[OGL LOG][Proc: 0]p: copy_x_back: 3.211 [ms]
[OGL LOG][lduLduBase.H:330] 
Statistics:
	Time per iteration: 2507 [mu s]
	Time per residual norm calculation: 224.000000 [mu s]
	Time per iteration and DOF: 0.092852 [ns]
	Retrieve results bandwidth 4.204000 [GByte/s]
[OGL LOG][Proc: 0]p: solve_multi_gpu: 5888.42 [ms]
nonedpcppGKOCG:  Solving for p, Initial residual = 0.849024, Final residual = 9.20926e-05, No Iterations 2296
[INFO] SolveP: 5932.37 [ms]
time step continuity errors : sum local = 1.03809e-08, global = 4.98537e-22, cumulative = 1.1491e-20
[INFO] ContinuityError: 24.039 [ms]
[INFO] CorrectBoundary: 0.465 [ms]
[INFO] PISOStep: 6321.91 [ms]
[INFO] TimeStep: 14213.8 [ms]
ExecutionTime = 174.15 s  ClockTime = 178 s

Time = 0.001992

Courant Number mean: 0.0413038 max: 0.486766
[INFO] MatrixAssemblyU: 180.828 [ms]
DILUPBiCGStab:  Solving for Ux, Initial residual = 0.0176537, Final residual = 0.00159439, No Iterations 5
DILUPBiCGStab:  Solving for Uy, Initial residual = 0.0658183, Final residual = 0.0048562, No Iterations 5
DILUPBiCGStab:  Solving for Uz, Initial residual = 0.480362, Final residual = 0.0178582, No Iterations 5
[INFO] MomentumPredictor: 1382.9 [ms]
[INFO] MatrixAssemblyPI: 197.443 [ms]
[INFO] AdjustPhi: 13.431 [ms]
[INFO] ConstrainPressure: 0.002 [ms]
[INFO] MatrixAssemblyPII: 64.158 [ms]
[OGL LOG][Proc: 0]: global_index_init: 0.043 [ms]
[OGL LOG][Proc: 0]p_local_coeffs: call_update: 0 [ms]
[OGL LOG][Proc: 0]p_non_local_coeffs: call_update: 0 [ms]
[OGL LOG][Proc: 0]p: update_local_matrix_data: 43.028 [ms]
[OGL LOG][Proc: 0]p: update_non_local_matrix_data: 0.58 [ms]
[OGL LOG][Proc: 0]p: regenerate_distributed_matrix: 103.297 [ms]
[OGL LOG][Proc: 0]p_matrix: call_update: 104.01 [ms]
[OGL LOG][Proc: 0]p_rhs: call_update: 2.62 [ms]
[OGL LOG][Proc: 0]p: init_precond: 0.038 [ms]
[OGL LOG][StoppingCriterion.H:239] Creating stopping criterion with minIter 1377 frequency 9
[OGL LOG][Proc: 0]p: generate_solver: 0.019 [ms]
[OGL LOG][Proc: 0]p: solve: 5793.77 [ms]
[OGL LOG][Proc: 0]p: copy_x_back: 3.874 [ms]
[OGL LOG][lduLduBase.H:330] 
Statistics:
	Time per iteration: 2523 [mu s]
	Time per residual norm calculation: 239.000000 [mu s]
	Time per iteration and DOF: 0.093444 [ns]
	Retrieve results bandwidth 3.484000 [GByte/s]
[OGL LOG][Proc: 0]p: solve_multi_gpu: 5905.48 [ms]
nonedpcppGKOCG:  Solving for p, Initial residual = 0.886199, Final residual = 9.80522e-05, No Iterations 2296
[INFO] SolveP: 5955.83 [ms]
time step continuity errors : sum local = 1.15861e-08, global = 3.63574e-22, cumulative = 1.18546e-20
[INFO] ContinuityError: 30.488 [ms]
[INFO] CorrectBoundary: 0.522 [ms]
[INFO] PISOStep: 6338.51 [ms]
[INFO] MatrixAssemblyPI: 189.634 [ms]
[INFO] AdjustPhi: 27.643 [ms]
[INFO] ConstrainPressure: 0.002 [ms]
[INFO] MatrixAssemblyPII: 59.557 [ms]
[OGL LOG][Proc: 0]: global_index_init: 0.035 [ms]
[OGL LOG][Proc: 0]p_local_coeffs: call_update: 0 [ms]
[OGL LOG][Proc: 0]p_non_local_coeffs: call_update: 0 [ms]
[OGL LOG][Proc: 0]p: update_local_matrix_data: 37.776 [ms]
[OGL LOG][Proc: 0]p: update_non_local_matrix_data: 0.651 [ms]
[OGL LOG][Proc: 0]p: regenerate_distributed_matrix: 123.311 [ms]
[OGL LOG][Proc: 0]p_matrix: call_update: 124.14 [ms]
[OGL LOG][Proc: 0]p_rhs: call_update: 2.318 [ms]
[OGL LOG][Proc: 0]p: init_precond: 0.034 [ms]
[OGL LOG][StoppingCriterion.H:239] Creating stopping criterion with minIter 1377 frequency 9
[OGL LOG][Proc: 0]p: generate_solver: 0.016 [ms]
[OGL LOG][Proc: 0]p: solve: 5676.03 [ms]
[OGL LOG][Proc: 0]p: copy_x_back: 3.619 [ms]
[OGL LOG][lduLduBase.H:330] 
Statistics:
	Time per iteration: 2472 [mu s]
	Time per residual norm calculation: 212.000000 [mu s]
	Time per iteration and DOF: 0.091556 [ns]
	Retrieve results bandwidth 3.730000 [GByte/s]
[OGL LOG][Proc: 0]p: solve_multi_gpu: 5808.22 [ms]
nonedpcppGKOCG:  Solving for p, Initial residual = 0.815935, Final residual = 9.22948e-05, No Iterations 2296
[INFO] SolveP: 5852.19 [ms]
time step continuity errors : sum local = 1.10262e-08, global = 1.01446e-21, cumulative = 1.28691e-20
[INFO] ContinuityError: 27.767 [ms]
[INFO] CorrectBoundary: 0.422 [ms]
[INFO] PISOStep: 6239.71 [ms]
[INFO] TimeStep: 14166.9 [ms]
ExecutionTime = 188.32 s  ClockTime = 193 s

Time = 0.002158

Courant Number mean: 0.0426919 max: 0.53261
[INFO] MatrixAssemblyU: 175.119 [ms]
DILUPBiCGStab:  Solving for Ux, Initial residual = 0.0167153, Final residual = 0.00147954, No Iterations 5
DILUPBiCGStab:  Solving for Uy, Initial residual = 0.0658889, Final residual = 0.00476399, No Iterations 5
DILUPBiCGStab:  Solving for Uz, Initial residual = 0.487659, Final residual = 0.0174101, No Iterations 5
[INFO] MomentumPredictor: 1421.04 [ms]
[INFO] MatrixAssemblyPI: 198.35 [ms]
[INFO] AdjustPhi: 12.608 [ms]
[INFO] ConstrainPressure: 0.002 [ms]
[INFO] MatrixAssemblyPII: 64.04 [ms]
[OGL LOG][Proc: 0]: global_index_init: 0.046 [ms]
[OGL LOG][Proc: 0]p_local_coeffs: call_update: 0 [ms]
[OGL LOG][Proc: 0]p_non_local_coeffs: call_update: 0 [ms]
[OGL LOG][Proc: 0]p: update_local_matrix_data: 42.776 [ms]
[OGL LOG][Proc: 0]p: update_non_local_matrix_data: 0.582 [ms]
[OGL LOG][Proc: 0]p: regenerate_distributed_matrix: 121.862 [ms]
[OGL LOG][Proc: 0]p_matrix: call_update: 122.934 [ms]
[OGL LOG][Proc: 0]p_rhs: call_update: 1.54 [ms]
[OGL LOG][Proc: 0]p: init_precond: 0.043 [ms]
[OGL LOG][StoppingCriterion.H:239] Creating stopping criterion with minIter 1377 frequency 9
[OGL LOG][Proc: 0]p: generate_solver: 0.02 [ms]
[OGL LOG][Proc: 0]p: solve: 5889.58 [ms]
[OGL LOG][Proc: 0]p: copy_x_back: 3.241 [ms]
[OGL LOG][lduLduBase.H:330] 
Statistics:
	Time per iteration: 2565 [mu s]
	Time per residual norm calculation: 223.000000 [mu s]
	Time per iteration and DOF: 0.095000 [ns]
	Retrieve results bandwidth 4.165000 [GByte/s]
[OGL LOG][Proc: 0]p: solve_multi_gpu: 6018.93 [ms]
nonedpcppGKOCG:  Solving for p, Initial residual = 0.904142, Final residual = 9.45611e-05, No Iterations 2296
[INFO] SolveP: 6068.86 [ms]
time step continuity errors : sum local = 1.11831e-08, global = 1.57856e-21, cumulative = 1.44476e-20
[INFO] ContinuityError: 26.342 [ms]
[INFO] CorrectBoundary: 4.506 [ms]
[INFO] PISOStep: 6454.3 [ms]
[INFO] MatrixAssemblyPI: 196 [ms]
[INFO] AdjustPhi: 16.848 [ms]
[INFO] ConstrainPressure: 0.002 [ms]
[INFO] MatrixAssemblyPII: 59.492 [ms]
[OGL LOG][Proc: 0]: global_index_init: 0.034 [ms]
[OGL LOG][Proc: 0]p_local_coeffs: call_update: 0 [ms]
[OGL LOG][Proc: 0]p_non_local_coeffs: call_update: 0 [ms]
[OGL LOG][Proc: 0]p: update_local_matrix_data: 38.472 [ms]
[OGL LOG][Proc: 0]p: update_non_local_matrix_data: 0.603 [ms]
[OGL LOG][Proc: 0]p: regenerate_distributed_matrix: 121.513 [ms]
[OGL LOG][Proc: 0]p_matrix: call_update: 122.248 [ms]
[OGL LOG][Proc: 0]p_rhs: call_update: 2.59 [ms]
[OGL LOG][Proc: 0]p: init_precond: 0.038 [ms]
[OGL LOG][StoppingCriterion.H:239] Creating stopping criterion with minIter 1377 frequency 9
[OGL LOG][Proc: 0]p: generate_solver: 0.02 [ms]
[OGL LOG][Proc: 0]p: solve: 6066.68 [ms]
[OGL LOG][Proc: 0]p: copy_x_back: 3.299 [ms]
[OGL LOG][lduLduBase.H:330] 
Statistics:
	Time per iteration: 2642 [mu s]
	Time per residual norm calculation: 270.000000 [mu s]
	Time per iteration and DOF: 0.097852 [ns]
	Retrieve results bandwidth 4.092000 [GByte/s]
[OGL LOG][Proc: 0]p: solve_multi_gpu: 6196.93 [ms]
nonedpcppGKOCG:  Solving for p, Initial residual = 0.846197, Final residual = 8.95228e-05, No Iterations 2296
[INFO] SolveP: 6241.36 [ms]
time step continuity errors : sum local = 1.05147e-08, global = 9.43372e-22, cumulative = 1.5391e-20
[INFO] ContinuityError: 21.699 [ms]
[INFO] CorrectBoundary: 0.409 [ms]
[INFO] PISOStep: 6617.5 [ms]
[INFO] TimeStep: 14699.4 [ms]
ExecutionTime = 203.02 s  ClockTime = 207 s

Time = 0.002324

Courant Number mean: 0.0439262 max: 0.489818
[INFO] MatrixAssemblyU: 175.59 [ms]
DILUPBiCGStab:  Solving for Ux, Initial residual = 0.016476, Final residual = 0.00145429, No Iterations 5
DILUPBiCGStab:  Solving for Uy, Initial residual = 0.0607018, Final residual = 0.00423211, No Iterations 5
DILUPBiCGStab:  Solving for Uz, Initial residual = 0.478381, Final residual = 0.0170352, No Iterations 5
[INFO] MomentumPredictor: 1385.62 [ms]
[INFO] MatrixAssemblyPI: 198.789 [ms]
[INFO] AdjustPhi: 12.55 [ms]
[INFO] ConstrainPressure: 0.002 [ms]
[INFO] MatrixAssemblyPII: 64.046 [ms]
[OGL LOG][Proc: 0]: global_index_init: 0.035 [ms]
[OGL LOG][Proc: 0]p_local_coeffs: call_update: 0 [ms]
[OGL LOG][Proc: 0]p_non_local_coeffs: call_update: 0 [ms]
[OGL LOG][Proc: 0]p: update_local_matrix_data: 42.764 [ms]
[OGL LOG][Proc: 0]p: update_non_local_matrix_data: 0.556 [ms]
[OGL LOG][Proc: 0]p: regenerate_distributed_matrix: 103.596 [ms]
[OGL LOG][Proc: 0]p_matrix: call_update: 104.636 [ms]
[OGL LOG][Proc: 0]p_rhs: call_update: 1.855 [ms]
[OGL LOG][Proc: 0]p: init_precond: 0.038 [ms]
[OGL LOG][StoppingCriterion.H:239] Creating stopping criterion with minIter 1377 frequency 10
[OGL LOG][Proc: 0]p: generate_solver: 0.02 [ms]
[OGL LOG][Proc: 0]p: solve: 5939.71 [ms]
[OGL LOG][Proc: 0]p: copy_x_back: 3.161 [ms]
[OGL LOG][lduLduBase.H:330] 
Statistics:
	Time per iteration: 2581 [mu s]
	Time per residual norm calculation: 236.000000 [mu s]
	Time per iteration and DOF: 0.095593 [ns]
	Retrieve results bandwidth 4.270000 [GByte/s]
[OGL LOG][Proc: 0]p: solve_multi_gpu: 6050.87 [ms]
nonedpcppGKOCG:  Solving for p, Initial residual = 0.888623, Final residual = 8.6436e-05, No Iterations 2301
[INFO] SolveP: 6101.63 [ms]
time step continuity errors : sum local = 1.06394e-08, global = 6.56139e-22, cumulative = 1.60472e-20
[INFO] ContinuityError: 24.97 [ms]
[INFO] CorrectBoundary: 5.743 [ms]
[INFO] PISOStep: 6486.03 [ms]
[INFO] MatrixAssemblyPI: 188.995 [ms]
[INFO] AdjustPhi: 24.456 [ms]
[INFO] ConstrainPressure: 0.002 [ms]
[INFO] MatrixAssemblyPII: 59.329 [ms]
[OGL LOG][Proc: 0]: global_index_init: 0.033 [ms]
[OGL LOG][Proc: 0]p_local_coeffs: call_update: 0 [ms]
[OGL LOG][Proc: 0]p_non_local_coeffs: call_update: 0 [ms]
[OGL LOG][Proc: 0]p: update_local_matrix_data: 37.323 [ms]
[OGL LOG][Proc: 0]p: update_non_local_matrix_data: 0.629 [ms]
[OGL LOG][Proc: 0]p: regenerate_distributed_matrix: 121.576 [ms]
[OGL LOG][Proc: 0]p_matrix: call_update: 122.368 [ms]
[OGL LOG][Proc: 0]p_rhs: call_update: 2.516 [ms]
[OGL LOG][Proc: 0]p: init_precond: 0.036 [ms]
[OGL LOG][StoppingCriterion.H:239] Creating stopping criterion with minIter 1380 frequency 9
[OGL LOG][Proc: 0]p: generate_solver: 0.02 [ms]
[OGL LOG][Proc: 0]p: solve: 5645.52 [ms]
[OGL LOG][Proc: 0]p: copy_x_back: 3.219 [ms]
[OGL LOG][lduLduBase.H:330] 
Statistics:
	Time per iteration: 2458 [mu s]
	Time per residual norm calculation: 256.000000 [mu s]
	Time per iteration and DOF: 0.091037 [ns]
	Retrieve results bandwidth 4.193000 [GByte/s]
[OGL LOG][Proc: 0]p: solve_multi_gpu: 5776.33 [ms]
nonedpcppGKOCG:  Solving for p, Initial residual = 0.817192, Final residual = 9.03529e-05, No Iterations 2296
[INFO] SolveP: 5820.34 [ms]
time step continuity errors : sum local = 1.12285e-08, global = 7.22021e-22, cumulative = 1.67692e-20
[INFO] ContinuityError: 27.793 [ms]
[INFO] CorrectBoundary: 2.267 [ms]
[INFO] PISOStep: 6205.16 [ms]
[INFO] TimeStep: 14275.6 [ms]
ExecutionTime = 217.29 s  ClockTime = 222 s

Time = 0.00249

Courant Number mean: 0.0451537 max: 0.541226
[INFO] MatrixAssemblyU: 175.573 [ms]
DILUPBiCGStab:  Solving for Ux, Initial residual = 0.0157226, Final residual = 0.00134391, No Iterations 5
DILUPBiCGStab:  Solving for Uy, Initial residual = 0.0615809, Final residual = 0.00421541, No Iterations 5
DILUPBiCGStab:  Solving for Uz, Initial residual = 0.487666, Final residual = 0.0167953, No Iterations 5
[INFO] MomentumPredictor: 1658.57 [ms]
[INFO] MatrixAssemblyPI: 198.168 [ms]
[INFO] AdjustPhi: 28.074 [ms]
[INFO] ConstrainPressure: 0.002 [ms]
[INFO] MatrixAssemblyPII: 65.002 [ms]
[OGL LOG][Proc: 0]: global_index_init: 0.047 [ms]
[OGL LOG][Proc: 0]p_local_coeffs: call_update: 0 [ms]
[OGL LOG][Proc: 0]p_non_local_coeffs: call_update: 0 [ms]
[OGL LOG][Proc: 0]p: update_local_matrix_data: 42.745 [ms]
[OGL LOG][Proc: 0]p: update_non_local_matrix_data: 0.574 [ms]
[OGL LOG][Proc: 0]p: regenerate_distributed_matrix: 121.533 [ms]
[OGL LOG][Proc: 0]p_matrix: call_update: 122.249 [ms]
[OGL LOG][Proc: 0]p_rhs: call_update: 2.632 [ms]
[OGL LOG][Proc: 0]p: init_precond: 0.035 [ms]
[OGL LOG][StoppingCriterion.H:239] Creating stopping criterion with minIter 1377 frequency 10
[OGL LOG][Proc: 0]p: generate_solver: 0.02 [ms]
[OGL LOG][Proc: 0]p: solve: 5642.2 [ms]
[OGL LOG][Proc: 0]p: copy_x_back: 3.181 [ms]
[OGL LOG][lduLduBase.H:330] 
Statistics:
	Time per iteration: 2452 [mu s]
	Time per residual norm calculation: 217.000000 [mu s]
	Time per iteration and DOF: 0.090815 [ns]
	Retrieve results bandwidth 4.243000 [GByte/s]
[OGL LOG][Proc: 0]p: solve_multi_gpu: 5772.42 [ms]
nonedpcppGKOCG:  Solving for p, Initial residual = 0.904997, Final residual = 8.38659e-05, No Iterations 2301
[INFO] SolveP: 5822.63 [ms]
time step continuity errors : sum local = 1.03651e-08, global = -2.96122e-22, cumulative = 1.6473e-20
[INFO] ContinuityError: 29.559 [ms]
[INFO] CorrectBoundary: 4.581 [ms]
[INFO] PISOStep: 6229.15 [ms]
[INFO] MatrixAssemblyPI: 190.858 [ms]
[INFO] AdjustPhi: 21.779 [ms]
[INFO] ConstrainPressure: 0.002 [ms]
[INFO] MatrixAssemblyPII: 61.896 [ms]
[OGL LOG][Proc: 0]: global_index_init: 0.033 [ms]
[OGL LOG][Proc: 0]p_local_coeffs: call_update: 0 [ms]
[OGL LOG][Proc: 0]p_non_local_coeffs: call_update: 0 [ms]
[OGL LOG][Proc: 0]p: update_local_matrix_data: 37.849 [ms]
[OGL LOG][Proc: 0]p: update_non_local_matrix_data: 0.645 [ms]
[OGL LOG][Proc: 0]p: regenerate_distributed_matrix: 120.887 [ms]
[OGL LOG][Proc: 0]p_matrix: call_update: 121.636 [ms]
[OGL LOG][Proc: 0]p_rhs: call_update: 2.458 [ms]
[OGL LOG][Proc: 0]p: init_precond: 0.036 [ms]
[OGL LOG][StoppingCriterion.H:239] Creating stopping criterion with minIter 1380 frequency 9
[OGL LOG][Proc: 0]p: generate_solver: 0.019 [ms]
[OGL LOG][Proc: 0]p: solve: 5797.2 [ms]
[OGL LOG][Proc: 0]p: copy_x_back: 3.863 [ms]
[OGL LOG][lduLduBase.H:330] 
Statistics:
	Time per iteration: 2524 [mu s]
	Time per residual norm calculation: 211.000000 [mu s]
	Time per iteration and DOF: 0.093481 [ns]
	Retrieve results bandwidth 3.494000 [GByte/s]
[OGL LOG][Proc: 0]p: solve_multi_gpu: 5927.1 [ms]
nonedpcppGKOCG:  Solving for p, Initial residual = 0.844039, Final residual = 8.76601e-05, No Iterations 2296
[INFO] SolveP: 5970.94 [ms]
time step continuity errors : sum local = 1.07741e-08, global = 4.21235e-22, cumulative = 1.68943e-20
[INFO] ContinuityError: 25.258 [ms]
[INFO] CorrectBoundary: 0.525 [ms]
[INFO] PISOStep: 6361.92 [ms]
[INFO] TimeStep: 14450.8 [ms]
ExecutionTime = 231.74 s  ClockTime = 236 s

Time = 0.002656

Courant Number mean: 0.0462455 max: 0.492918
[INFO] MatrixAssemblyU: 184.719 [ms]
DILUPBiCGStab:  Solving for Ux, Initial residual = 0.0156968, Final residual = 0.00133877, No Iterations 5
DILUPBiCGStab:  Solving for Uy, Initial residual = 0.057492, Final residual = 0.00377542, No Iterations 5
DILUPBiCGStab:  Solving for Uz, Initial residual = 0.481454, Final residual = 0.0165094, No Iterations 5
[INFO] MomentumPredictor: 1598.38 [ms]
[INFO] MatrixAssemblyPI: 199.453 [ms]
[INFO] AdjustPhi: 13.43 [ms]
[INFO] ConstrainPressure: 0.002 [ms]
[INFO] MatrixAssemblyPII: 63.896 [ms]
[OGL LOG][Proc: 0]: global_index_init: 0.034 [ms]
[OGL LOG][Proc: 0]p_local_coeffs: call_update: 0 [ms]
[OGL LOG][Proc: 0]p_non_local_coeffs: call_update: 0 [ms]
[OGL LOG][Proc: 0]p: update_local_matrix_data: 43.085 [ms]
[OGL LOG][Proc: 0]p: update_non_local_matrix_data: 0.623 [ms]
[OGL LOG][Proc: 0]p: regenerate_distributed_matrix: 121.779 [ms]
[OGL LOG][Proc: 0]p_matrix: call_update: 122.894 [ms]
[OGL LOG][Proc: 0]p_rhs: call_update: 2.921 [ms]
[OGL LOG][Proc: 0]p: init_precond: 0.035 [ms]
[OGL LOG][StoppingCriterion.H:239] Creating stopping criterion with minIter 1377 frequency 9
[OGL LOG][Proc: 0]p: generate_solver: 0.02 [ms]
[OGL LOG][Proc: 0]p: solve: 5665.96 [ms]
[OGL LOG][Proc: 0]p: copy_x_back: 3.16 [ms]
[OGL LOG][lduLduBase.H:330] 
Statistics:
	Time per iteration: 2467 [mu s]
	Time per residual norm calculation: 217.000000 [mu s]
	Time per iteration and DOF: 0.091370 [ns]
	Retrieve results bandwidth 4.272000 [GByte/s]
[OGL LOG][Proc: 0]p: solve_multi_gpu: 5796.14 [ms]
nonedpcppGKOCG:  Solving for p, Initial residual = 0.891515, Final residual = 9.39114e-05, No Iterations 2296
[INFO] SolveP: 5845.7 [ms]
time step continuity errors : sum local = 1.20676e-08, global = 4.00518e-22, cumulative = 1.72948e-20
[INFO] ContinuityError: 28.395 [ms]
[INFO] CorrectBoundary: 4.534 [ms]
[INFO] PISOStep: 6224.02 [ms]
[INFO] MatrixAssemblyPI: 186.884 [ms]
[INFO] AdjustPhi: 24.455 [ms]
[INFO] ConstrainPressure: 0.002 [ms]
[INFO] MatrixAssemblyPII: 59.7 [ms]
[OGL LOG][Proc: 0]: global_index_init: 0.062 [ms]
[OGL LOG][Proc: 0]p_local_coeffs: call_update: 0 [ms]
[OGL LOG][Proc: 0]p_non_local_coeffs: call_update: 0 [ms]
[OGL LOG][Proc: 0]p: update_local_matrix_data: 37.807 [ms]
[OGL LOG][Proc: 0]p: update_non_local_matrix_data: 0.645 [ms]
[OGL LOG][Proc: 0]p: regenerate_distributed_matrix: 121.237 [ms]
[OGL LOG][Proc: 0]p_matrix: call_update: 122.265 [ms]
[OGL LOG][Proc: 0]p_rhs: call_update: 1.894 [ms]
[OGL LOG][Proc: 0]p: init_precond: 0.043 [ms]
[OGL LOG][StoppingCriterion.H:239] Creating stopping criterion with minIter 1377 frequency 9
[OGL LOG][Proc: 0]p: generate_solver: 0.02 [ms]
[OGL LOG][Proc: 0]p: solve: 5840.64 [ms]
[OGL LOG][Proc: 0]p: copy_x_back: 3.222 [ms]
[OGL LOG][lduLduBase.H:330] 
Statistics:
	Time per iteration: 2543 [mu s]
	Time per residual norm calculation: 217.000000 [mu s]
	Time per iteration and DOF: 0.094185 [ns]
	Retrieve results bandwidth 4.189000 [GByte/s]
[OGL LOG][Proc: 0]p: solve_multi_gpu: 5969.29 [ms]
nonedpcppGKOCG:  Solving for p, Initial residual = 0.819141, Final residual = 8.81457e-05, No Iterations 2296
[INFO] SolveP: 6013.83 [ms]
time step continuity errors : sum local = 1.14211e-08, global = 6.03124e-22, cumulative = 1.78979e-20
[INFO] ContinuityError: 28.753 [ms]
[INFO] CorrectBoundary: 2.713 [ms]
[INFO] PISOStep: 6403.12 [ms]
[INFO] TimeStep: 14435.7 [ms]
ExecutionTime = 246.18 s  ClockTime = 250 s

Time = 0.002822

Courant Number mean: 0.0473494 max: 0.551299
[INFO] MatrixAssemblyU: 175.506 [ms]
DILUPBiCGStab:  Solving for Ux, Initial residual = 0.0151175, Final residual = 0.00123585, No Iterations 5
DILUPBiCGStab:  Solving for Uy, Initial residual = 0.0587991, Final residual = 0.00380468, No Iterations 5
DILUPBiCGStab:  Solving for Uz, Initial residual = 0.491988, Final residual = 0.016444, No Iterations 5
[INFO] MomentumPredictor: 1615.46 [ms]
[INFO] MatrixAssemblyPI: 197.097 [ms]
[INFO] AdjustPhi: 12.603 [ms]
[INFO] ConstrainPressure: 0.002 [ms]
[INFO] MatrixAssemblyPII: 63.838 [ms]
[OGL LOG][Proc: 0]: global_index_init: 0.033 [ms]
[OGL LOG][Proc: 0]p_local_coeffs: call_update: 0 [ms]
[OGL LOG][Proc: 0]p_non_local_coeffs: call_update: 0 [ms]
[OGL LOG][Proc: 0]p: update_local_matrix_data: 43.231 [ms]
[OGL LOG][Proc: 0]p: update_non_local_matrix_data: 0.663 [ms]
[OGL LOG][Proc: 0]p: regenerate_distributed_matrix: 122.496 [ms]
[OGL LOG][Proc: 0]p_matrix: call_update: 123.502 [ms]
[OGL LOG][Proc: 0]p_rhs: call_update: 1.652 [ms]
[OGL LOG][Proc: 0]p: init_precond: 0.041 [ms]
[OGL LOG][StoppingCriterion.H:239] Creating stopping criterion with minIter 1377 frequency 9
[OGL LOG][Proc: 0]p: generate_solver: 0.02 [ms]
[OGL LOG][Proc: 0]p: solve: 5628.14 [ms]
[OGL LOG][Proc: 0]p: copy_x_back: 3.215 [ms]
[OGL LOG][lduLduBase.H:330] 
Statistics:
	Time per iteration: 2451 [mu s]
	Time per residual norm calculation: 208.000000 [mu s]
	Time per iteration and DOF: 0.090778 [ns]
	Retrieve results bandwidth 4.199000 [GByte/s]
[OGL LOG][Proc: 0]p: solve_multi_gpu: 5757.98 [ms]
nonedpcppGKOCG:  Solving for p, Initial residual = 0.906302, Final residual = 9.32878e-05, No Iterations 2296
[INFO] SolveP: 5809.06 [ms]
time step continuity errors : sum local = 1.20868e-08, global = -1.51738e-22, cumulative = 1.77462e-20
[INFO] ContinuityError: 25.49 [ms]
[INFO] CorrectBoundary: 5.484 [ms]
[INFO] PISOStep: 6181.88 [ms]
[INFO] MatrixAssemblyPI: 189.618 [ms]
[INFO] AdjustPhi: 23.903 [ms]
[INFO] ConstrainPressure: 0.002 [ms]
[INFO] MatrixAssemblyPII: 59.805 [ms]
[OGL LOG][Proc: 0]: global_index_init: 0.036 [ms]
[OGL LOG][Proc: 0]p_local_coeffs: call_update: 0 [ms]
[OGL LOG][Proc: 0]p_non_local_coeffs: call_update: 0 [ms]
[OGL LOG][Proc: 0]p: update_local_matrix_data: 37.928 [ms]
[OGL LOG][Proc: 0]p: update_non_local_matrix_data: 0.628 [ms]
[OGL LOG][Proc: 0]p: regenerate_distributed_matrix: 122.996 [ms]
[OGL LOG][Proc: 0]p_matrix: call_update: 123.976 [ms]
[OGL LOG][Proc: 0]p_rhs: call_update: 1.56 [ms]
[OGL LOG][Proc: 0]p: init_precond: 0.039 [ms]
[OGL LOG][StoppingCriterion.H:239] Creating stopping criterion with minIter 1377 frequency 9
[OGL LOG][Proc: 0]p: generate_solver: 0.021 [ms]
[OGL LOG][Proc: 0]p: solve: 5734.48 [ms]
[OGL LOG][Proc: 0]p: copy_x_back: 3.36 [ms]
[OGL LOG][lduLduBase.H:330] 
Statistics:
	Time per iteration: 2497 [mu s]
	Time per residual norm calculation: 231.000000 [mu s]
	Time per iteration and DOF: 0.092481 [ns]
	Retrieve results bandwidth 4.017000 [GByte/s]
[OGL LOG][Proc: 0]p: solve_multi_gpu: 5865.13 [ms]
nonedpcppGKOCG:  Solving for p, Initial residual = 0.84236, Final residual = 8.78846e-05, No Iterations 2296
[INFO] SolveP: 5909.13 [ms]
time step continuity errors : sum local = 1.13374e-08, global = 7.10967e-22, cumulative = 1.84572e-20
[INFO] ContinuityError: 21.443 [ms]
[INFO] CorrectBoundary: 0.447 [ms]
[INFO] PISOStep: 6284.34 [ms]
[INFO] TimeStep: 14281.3 [ms]
ExecutionTime = 260.47 s  ClockTime = 265 s

Time = 0.002988

Courant Number mean: 0.0483286 max: 0.496233
[INFO] MatrixAssemblyU: 175.443 [ms]
DILUPBiCGStab:  Solving for Ux, Initial residual = 0.0152258, Final residual = 0.00124279, No Iterations 5
DILUPBiCGStab:  Solving for Uy, Initial residual = 0.0556674, Final residual = 0.00343566, No Iterations 5
DILUPBiCGStab:  Solving for Uz, Initial residual = 0.48806, Final residual = 0.0162126, No Iterations 5
[INFO] MomentumPredictor: 1382.18 [ms]
[INFO] MatrixAssemblyPI: 197.234 [ms]
[INFO] AdjustPhi: 14.338 [ms]
[INFO] ConstrainPressure: 0.002 [ms]
[INFO] MatrixAssemblyPII: 63.915 [ms]
[OGL LOG][Proc: 0]: global_index_init: 0.034 [ms]
[OGL LOG][Proc: 0]p_local_coeffs: call_update: 0 [ms]
[OGL LOG][Proc: 0]p_non_local_coeffs: call_update: 0 [ms]
[OGL LOG][Proc: 0]p: update_local_matrix_data: 43.095 [ms]
[OGL LOG][Proc: 0]p: update_non_local_matrix_data: 0.654 [ms]
[OGL LOG][Proc: 0]p: regenerate_distributed_matrix: 122.381 [ms]
[OGL LOG][Proc: 0]p_matrix: call_update: 123.355 [ms]
[OGL LOG][Proc: 0]p_rhs: call_update: 1.638 [ms]
[OGL LOG][Proc: 0]p: init_precond: 0.041 [ms]
[OGL LOG][StoppingCriterion.H:239] Creating stopping criterion with minIter 1377 frequency 9
[OGL LOG][Proc: 0]p: generate_solver: 0.021 [ms]
[OGL LOG][Proc: 0]p: solve: 5470.52 [ms]
[OGL LOG][Proc: 0]p: copy_x_back: 3.13 [ms]
[OGL LOG][lduLduBase.H:330] 
Statistics:
	Time per iteration: 2382 [mu s]
	Time per residual norm calculation: 215.000000 [mu s]
	Time per iteration and DOF: 0.088222 [ns]
	Retrieve results bandwidth 4.313000 [GByte/s]
[OGL LOG][Proc: 0]p: solve_multi_gpu: 5599.86 [ms]
nonedpcppGKOCG:  Solving for p, Initial residual = 0.895999, Final residual = 9.01339e-05, No Iterations 2296
[INFO] SolveP: 5649.58 [ms]
time step continuity errors : sum local = 1.21343e-08, global = -1.59552e-22, cumulative = 1.82976e-20
[INFO] ContinuityError: 29.959 [ms]
[INFO] CorrectBoundary: 5.047 [ms]
[INFO] PISOStep: 6029.66 [ms]
[INFO] MatrixAssemblyPI: 190.937 [ms]
[INFO] AdjustPhi: 21.766 [ms]
[INFO] ConstrainPressure: 0.003 [ms]
[INFO] MatrixAssemblyPII: 59.569 [ms]
[OGL LOG][Proc: 0]: global_index_init: 0.04 [ms]
[OGL LOG][Proc: 0]p_local_coeffs: call_update: 0 [ms]
[OGL LOG][Proc: 0]p_non_local_coeffs: call_update: 0 [ms]
[OGL LOG][Proc: 0]p: update_local_matrix_data: 37.503 [ms]
[OGL LOG][Proc: 0]p: update_non_local_matrix_data: 0.567 [ms]
[OGL LOG][Proc: 0]p: regenerate_distributed_matrix: 104.631 [ms]
[OGL LOG][Proc: 0]p_matrix: call_update: 105.688 [ms]
[OGL LOG][Proc: 0]p_rhs: call_update: 1.66 [ms]
[OGL LOG][Proc: 0]p: init_precond: 0.038 [ms]
[OGL LOG][StoppingCriterion.H:239] Creating stopping criterion with minIter 1377 frequency 9
[OGL LOG][Proc: 0]p: generate_solver: 0.021 [ms]
[OGL LOG][Proc: 0]p: solve: 5791.56 [ms]
[OGL LOG][Proc: 0]p: copy_x_back: 4.023 [ms]
[OGL LOG][lduLduBase.H:330] 
Statistics:
	Time per iteration: 2522 [mu s]
	Time per residual norm calculation: 225.000000 [mu s]
	Time per iteration and DOF: 0.093407 [ns]
	Retrieve results bandwidth 3.355000 [GByte/s]
[OGL LOG][Proc: 0]p: solve_multi_gpu: 5904.22 [ms]
nonedpcppGKOCG:  Solving for p, Initial residual = 0.822301, Final residual = 8.62893e-05, No Iterations 2296
[INFO] SolveP: 5947.53 [ms]
time step continuity errors : sum local = 1.17009e-08, global = 3.90322e-22, cumulative = 1.86879e-20
[INFO] ContinuityError: 25.621 [ms]
[INFO] CorrectBoundary: 0.508 [ms]
[INFO] PISOStep: 6333.58 [ms]
[INFO] TimeStep: 13944 [ms]
ExecutionTime = 274.4 s  ClockTime = 279 s

Time = 0.003154

Courant Number mean: 0.0493356 max: 0.562804
[INFO] MatrixAssemblyU: 183.905 [ms]
DILUPBiCGStab:  Solving for Ux, Initial residual = 0.0148199, Final residual = 0.00115055, No Iterations 5
DILUPBiCGStab:  Solving for Uy, Initial residual = 0.0572322, Final residual = 0.00349296, No Iterations 5
DILUPBiCGStab:  Solving for Uz, Initial residual = 0.499124, Final residual = 0.0162406, No Iterations 5
[INFO] MomentumPredictor: 1545.96 [ms]
[INFO] MatrixAssemblyPI: 198.766 [ms]
[INFO] AdjustPhi: 12.678 [ms]
[INFO] ConstrainPressure: 0.002 [ms]
[INFO] MatrixAssemblyPII: 64.126 [ms]
[OGL LOG][Proc: 0]: global_index_init: 0.036 [ms]
[OGL LOG][Proc: 0]p_local_coeffs: call_update: 0 [ms]
[OGL LOG][Proc: 0]p_non_local_coeffs: call_update: 0 [ms]
[OGL LOG][Proc: 0]p: update_local_matrix_data: 42.643 [ms]
[OGL LOG][Proc: 0]p: update_non_local_matrix_data: 0.618 [ms]
[OGL LOG][Proc: 0]p: regenerate_distributed_matrix: 120.84 [ms]
[OGL LOG][Proc: 0]p_matrix: call_update: 121.535 [ms]
[OGL LOG][Proc: 0]p_rhs: call_update: 3.128 [ms]
[OGL LOG][Proc: 0]p: init_precond: 0.031 [ms]
[OGL LOG][StoppingCriterion.H:239] Creating stopping criterion with minIter 1377 frequency 9
[OGL LOG][Proc: 0]p: generate_solver: 0.016 [ms]
[OGL LOG][Proc: 0]p: solve: 5619.83 [ms]
[OGL LOG][Proc: 0]p: copy_x_back: 3.048 [ms]
[OGL LOG][lduLduBase.H:330] 
Statistics:
	Time per iteration: 2447 [mu s]
	Time per residual norm calculation: 218.000000 [mu s]
	Time per iteration and DOF: 0.090630 [ns]
	Retrieve results bandwidth 4.429000 [GByte/s]
[OGL LOG][Proc: 0]p: solve_multi_gpu: 5749.81 [ms]
nonedpcppGKOCG:  Solving for p, Initial residual = 0.908926, Final residual = 9.5425e-05, No Iterations 2296
[INFO] SolveP: 5799.37 [ms]
time step continuity errors : sum local = 1.30206e-08, global = -1.40884e-21, cumulative = 1.72791e-20
[INFO] ContinuityError: 23.842 [ms]
[INFO] CorrectBoundary: 1.002 [ms]
[INFO] PISOStep: 6176.84 [ms]
[INFO] MatrixAssemblyPI: 190.615 [ms]
[INFO] AdjustPhi: 9.841 [ms]
[INFO] ConstrainPressure: 0.002 [ms]
[INFO] MatrixAssemblyPII: 59.771 [ms]
[OGL LOG][Proc: 0]: global_index_init: 0.038 [ms]
[OGL LOG][Proc: 0]p_local_coeffs: call_update: 0 [ms]
[OGL LOG][Proc: 0]p_non_local_coeffs: call_update: 0 [ms]
[OGL LOG][Proc: 0]p: update_local_matrix_data: 38.233 [ms]
[OGL LOG][Proc: 0]p: update_non_local_matrix_data: 0.553 [ms]
[OGL LOG][Proc: 0]p: regenerate_distributed_matrix: 114.264 [ms]
[OGL LOG][Proc: 0]p_matrix: call_update: 114.999 [ms]
[OGL LOG][Proc: 0]p_rhs: call_update: 2.315 [ms]
[OGL LOG][Proc: 0]p: init_precond: 0.038 [ms]
[OGL LOG][StoppingCriterion.H:239] Creating stopping criterion with minIter 1377 frequency 9
[OGL LOG][Proc: 0]p: generate_solver: 0.017 [ms]
[OGL LOG][Proc: 0]p: solve: 5789.41 [ms]
[OGL LOG][Proc: 0]p: copy_x_back: 3.264 [ms]
[OGL LOG][lduLduBase.H:330] 
Statistics:
	Time per iteration: 2521 [mu s]
	Time per residual norm calculation: 256.000000 [mu s]
	Time per iteration and DOF: 0.093370 [ns]
	Retrieve results bandwidth 4.136000 [GByte/s]
[OGL LOG][Proc: 0]p: solve_multi_gpu: 5910.98 [ms]
nonedpcppGKOCG:  Solving for p, Initial residual = 0.84204, Final residual = 8.97066e-05, No Iterations 2296
[INFO] SolveP: 5955.1 [ms]
time step continuity errors : sum local = 1.22003e-08, global = 1.27925e-21, cumulative = 1.85583e-20
[INFO] ContinuityError: 27.074 [ms]
[INFO] CorrectBoundary: 0.491 [ms]
[INFO] PISOStep: 6316.35 [ms]
[INFO] TimeStep: 14248.1 [ms]
ExecutionTime = 288.66 s  ClockTime = 293 s

Time = 0.00332

Courant Number mean: 0.0502223 max: 0.499824
[INFO] MatrixAssemblyU: 174.973 [ms]
DILUPBiCGStab:  Solving for Ux, Initial residual = 0.0150263, Final residual = 0.00116336, No Iterations 5
DILUPBiCGStab:  Solving for Uy, Initial residual = 0.0548738, Final residual = 0.0031831, No Iterations 5
DILUPBiCGStab:  Solving for Uz, Initial residual = 0.497097, Final residual = 0.0160843, No Iterations 5
[INFO] MomentumPredictor: 1619.24 [ms]
[INFO] MatrixAssemblyPI: 197.1 [ms]
[INFO] AdjustPhi: 28.442 [ms]
[INFO] ConstrainPressure: 0.002 [ms]
[INFO] MatrixAssemblyPII: 63.68 [ms]
[OGL LOG][Proc: 0]: global_index_init: 0.034 [ms]
[OGL LOG][Proc: 0]p_local_coeffs: call_update: 0 [ms]
[OGL LOG][Proc: 0]p_non_local_coeffs: call_update: 0 [ms]
[OGL LOG][Proc: 0]p: update_local_matrix_data: 43.004 [ms]
[OGL LOG][Proc: 0]p: update_non_local_matrix_data: 0.629 [ms]
[OGL LOG][Proc: 0]p: regenerate_distributed_matrix: 120.683 [ms]
[OGL LOG][Proc: 0]p_matrix: call_update: 121.408 [ms]
[OGL LOG][Proc: 0]p_rhs: call_update: 2.47 [ms]
[OGL LOG][Proc: 0]p: init_precond: 0.042 [ms]
[OGL LOG][StoppingCriterion.H:239] Creating stopping criterion with minIter 1377 frequency 10
[OGL LOG][Proc: 0]p: generate_solver: 0.021 [ms]
[OGL LOG][Proc: 0]p: solve: 5563.23 [ms]
[OGL LOG][Proc: 0]p: copy_x_back: 3.038 [ms]
[OGL LOG][lduLduBase.H:330] 
Statistics:
	Time per iteration: 2417 [mu s]
	Time per residual norm calculation: 218.000000 [mu s]
	Time per iteration and DOF: 0.089519 [ns]
	Retrieve results bandwidth 4.443000 [GByte/s]
[OGL LOG][Proc: 0]p: solve_multi_gpu: 5691.74 [ms]
nonedpcppGKOCG:  Solving for p, Initial residual = 0.9015, Final residual = 8.89797e-05, No Iterations 2301
[INFO] SolveP: 5742.94 [ms]
time step continuity errors : sum local = 1.26066e-08, global = 4.60716e-22, cumulative = 1.9019e-20
[INFO] ContinuityError: 28.44 [ms]
[INFO] CorrectBoundary: 13.595 [ms]
[INFO] PISOStep: 6148.56 [ms]
[INFO] MatrixAssemblyPI: 182.144 [ms]
[INFO] AdjustPhi: 30.183 [ms]
[INFO] ConstrainPressure: 0.002 [ms]
[INFO] MatrixAssemblyPII: 58.385 [ms]
[OGL LOG][Proc: 0]: global_index_init: 0.102 [ms]
[OGL LOG][Proc: 0]p_local_coeffs: call_update: 0 [ms]
[OGL LOG][Proc: 0]p_non_local_coeffs: call_update: 0 [ms]
[OGL LOG][Proc: 0]p: update_local_matrix_data: 37.938 [ms]
[OGL LOG][Proc: 0]p: update_non_local_matrix_data: 0.579 [ms]
[OGL LOG][Proc: 0]p: regenerate_distributed_matrix: 121.128 [ms]
[OGL LOG][Proc: 0]p_matrix: call_update: 121.84 [ms]
[OGL LOG][Proc: 0]p_rhs: call_update: 2.716 [ms]
[OGL LOG][Proc: 0]p: init_precond: 0.04 [ms]
[OGL LOG][StoppingCriterion.H:239] Creating stopping criterion with minIter 1380 frequency 9
[OGL LOG][Proc: 0]p: generate_solver: 0.02 [ms]
[OGL LOG][Proc: 0]p: solve: 5642.21 [ms]
[OGL LOG][Proc: 0]p: copy_x_back: 3.173 [ms]
[OGL LOG][lduLduBase.H:330] 
Statistics:
	Time per iteration: 2457 [mu s]
	Time per residual norm calculation: 205.000000 [mu s]
	Time per iteration and DOF: 0.091000 [ns]
	Retrieve results bandwidth 4.254000 [GByte/s]
[OGL LOG][Proc: 0]p: solve_multi_gpu: 5772.83 [ms]
nonedpcppGKOCG:  Solving for p, Initial residual = 0.82658, Final residual = 9.30416e-05, No Iterations 2296
[INFO] SolveP: 5817.31 [ms]
time step continuity errors : sum local = 1.32653e-08, global = -5.67227e-23, cumulative = 1.89623e-20
[INFO] ContinuityError: 27.117 [ms]
[INFO] CorrectBoundary: 1.811 [ms]
[INFO] PISOStep: 6204.06 [ms]
[INFO] TimeStep: 14178.9 [ms]
ExecutionTime = 302.84 s  ClockTime = 307 s

End

Finalising parallel run
