/*---------------------------------------------------------------------------*\
| =========                 |                                                 |
| \\      /  F ield         | OpenFOAM: The Open Source CFD Toolbox           |
|  \\    /   O peration     | Version:  2306                                  |
|   \\  /    A nd           | Website:  www.openfoam.com                      |
|    \\/     M anipulation  |                                                 |
\*---------------------------------------------------------------------------*/
Build  : a6e826bd55-20230630 OPENFOAM=2306 version=v2306
Arch   : "LSB;label=32;scalar=64"
Exec   : icoFoam -parallel -case /tmp/lidDrivenCavity3D/workspace/591256835c493fa95757641261e629cd/case
Date   : Dec 05 2023
Time   : 20:24:56
Host   : nla-gpu2.ianm.kit.edu
PID    : 3931390
I/O    : uncollated
Case   : /tmp/lidDrivenCavity3D/workspace/591256835c493fa95757641261e629cd/case
nProcs : 16
Hosts  :
(
    (nla-gpu2.ianm.kit.edu 16)
)
Pstream initialized with:
    floatTransfer      : false
    nProcsSimpleSum    : 0
    nonBlockingExchange: 0 (tuning: 0)
    exchange algorithm : -1
    commsType          : nonBlocking
    polling iterations : 0
trapFpe: Floating point exception trapping enabled (FOAM_SIGFPE).
fileModificationChecking : Monitoring run-time modified files using timeStampMaster (fileModificationSkew 5, maxFileModificationPolls 20)
allowSystemOperations : Allowing user-supplied system call operations

// * * * * * * * * * * * * * * * * * * * * * * * * * * * * * * * * * * * * * //
Create time

--> FOAM Warning : 
    From void* Foam::dlLibraryTable::openLibrary(const Foam::fileName&, bool)
    in file db/dynamicLibrary/dlLibraryTable/dlLibraryTable.C at line 188
    Could not load "libpetscFoam.so"
libpetscFoam.so: cannot open shared object file: No such file or directory
Create mesh for time = 0


PISO: Operating solver in PISO mode

Reading transportProperties

Reading field p

Reading field U

Reading/calculating face flux field phi


Starting time loop

Time = 0.000166

Courant Number mean: 8.14055e-18 max: 3.11001e-14
momentum setup 248.654 [ms]
DILUPBiCGStab:  Solving for Ux, Initial residual = 1, Final residual = 0.0163135, No Iterations 5
DILUPBiCGStab:  Solving for Uy:  solution singularity
DILUPBiCGStab:  Solving for Uz:  solution singularity
piso setup 263.399 [ms]
 correctNonOrthogonal 
 setRef 
 startSolve 
DICPCG:  Solving for p, Initial residual = 1, Final residual = 9.42672e-05, No Iterations 918
piso step 42029.5 [ms]
 contErrors 
time step continuity errors : sum local = 3.80917e-09, global = 2.16129e-21, cumulative = 2.16129e-21
piso setup 249.752 [ms]
 correctNonOrthogonal 
 setRef 
 startSolve 
DICPCG:  Solving for p, Initial residual = 0.809453, Final residual = 9.87222e-05, No Iterations 909
piso step 41291.7 [ms]
 contErrors 
time step continuity errors : sum local = 4.86941e-09, global = 1.0345e-21, cumulative = 3.19579e-21
ExecutionTime = 86.14 s  ClockTime = 86 s

Time = 0.000332

Courant Number mean: 0.0128238 max: 0.426584
momentum setup 212.961 [ms]
DILUPBiCGStab:  Solving for Ux, Initial residual = 0.116949, Final residual = 0.00979519, No Iterations 5
DILUPBiCGStab:  Solving for Uy, Initial residual = 0.46013, Final residual = 0.0314342, No Iterations 5
DILUPBiCGStab:  Solving for Uz, Initial residual = 0.988818, Final residual = 0.0739975, No Iterations 5
piso setup 254.664 [ms]
 correctNonOrthogonal 
 setRef 
 startSolve 
DICPCG:  Solving for p, Initial residual = 0.879108, Final residual = 9.79225e-05, No Iterations 902
piso step 41148.7 [ms]
 contErrors 
time step continuity errors : sum local = 9.36356e-09, global = -2.22823e-22, cumulative = 2.97297e-21
piso setup 250.159 [ms]
 correctNonOrthogonal 
 setRef 
 startSolve 
DICPCG:  Solving for p, Initial residual = 0.827189, Final residual = 9.58379e-05, No Iterations 901
piso step 41156.3 [ms]
 contErrors 
time step continuity errors : sum local = 9.33348e-09, global = 1.0218e-21, cumulative = 3.99477e-21
ExecutionTime = 170.79 s  ClockTime = 171 s

Time = 0.000498

Courant Number mean: 0.0197919 max: 0.491878
momentum setup 211.637 [ms]
DILUPBiCGStab:  Solving for Ux, Initial residual = 0.0544432, Final residual = 0.00365178, No Iterations 5
DILUPBiCGStab:  Solving for Uy, Initial residual = 0.226324, Final residual = 0.0163705, No Iterations 5
DILUPBiCGStab:  Solving for Uz, Initial residual = 0.850584, Final residual = 0.0547303, No Iterations 5
piso setup 254.678 [ms]
 correctNonOrthogonal 
 setRef 
 startSolve 
DICPCG:  Solving for p, Initial residual = 0.914247, Final residual = 9.86949e-05, No Iterations 426
piso step 19547.7 [ms]
 contErrors 
time step continuity errors : sum local = 1.08039e-08, global = -1.09438e-22, cumulative = 3.88533e-21
piso setup 248.616 [ms]
 correctNonOrthogonal 
 setRef 
 startSolve 
DICPCG:  Solving for p, Initial residual = 0.882809, Final residual = 9.3677e-05, No Iterations 426
piso step 19510.9 [ms]
 contErrors 
time step continuity errors : sum local = 9.82401e-09, global = -3.76924e-22, cumulative = 3.50841e-21
ExecutionTime = 212.36 s  ClockTime = 213 s

Time = 0.000664

Courant Number mean: 0.0238776 max: 0.471994
momentum setup 212.083 [ms]
DILUPBiCGStab:  Solving for Ux, Initial residual = 0.0385228, Final residual = 0.00293271, No Iterations 5
DILUPBiCGStab:  Solving for Uy, Initial residual = 0.174006, Final residual = 0.0133289, No Iterations 5
DILUPBiCGStab:  Solving for Uz, Initial residual = 0.735889, Final residual = 0.0389824, No Iterations 5
piso setup 255.145 [ms]
 correctNonOrthogonal 
 setRef 
 startSolve 
DICPCG:  Solving for p, Initial residual = 0.891242, Final residual = 9.66348e-05, No Iterations 424
piso step 19455.2 [ms]
 contErrors 
time step continuity errors : sum local = 1.15863e-08, global = 5.54054e-23, cumulative = 3.56382e-21
piso setup 248.49 [ms]
 correctNonOrthogonal 
 setRef 
 startSolve 
DICPCG:  Solving for p, Initial residual = 0.831076, Final residual = 9.31468e-05, No Iterations 423
piso step 19470 [ms]
 contErrors 
time step continuity errors : sum local = 1.08506e-08, global = 1.11871e-21, cumulative = 4.68253e-21
ExecutionTime = 253.81 s  ClockTime = 254 s

Time = 0.00083

Courant Number mean: 0.027392 max: 0.505173
momentum setup 212.832 [ms]
DILUPBiCGStab:  Solving for Ux, Initial residual = 0.0324227, Final residual = 0.00250764, No Iterations 5
DILUPBiCGStab:  Solving for Uy, Initial residual = 0.129833, Final residual = 0.0113457, No Iterations 5
DILUPBiCGStab:  Solving for Uz, Initial residual = 0.685527, Final residual = 0.0344109, No Iterations 5
piso setup 254.85 [ms]
 correctNonOrthogonal 
 setRef 
 startSolve 
DICPCG:  Solving for p, Initial residual = 0.911531, Final residual = 9.95634e-05, No Iterations 803
piso step 36690.7 [ms]
 contErrors 
time step continuity errors : sum local = 1.10842e-08, global = 9.79378e-23, cumulative = 4.78046e-21
piso setup 249.035 [ms]
 correctNonOrthogonal 
 setRef 
 startSolve 
DICPCG:  Solving for p, Initial residual = 0.87342, Final residual = 9.9761e-05, No Iterations 803
piso step 36779.4 [ms]
 contErrors 
time step continuity errors : sum local = 1.09648e-08, global = 1.39935e-21, cumulative = 6.17981e-21
ExecutionTime = 329.63 s  ClockTime = 331 s

Time = 0.000996

Courant Number mean: 0.0301232 max: 0.478353
momentum setup 211.095 [ms]
DILUPBiCGStab:  Solving for Ux, Initial residual = 0.0271452, Final residual = 0.00227637, No Iterations 5
DILUPBiCGStab:  Solving for Uy, Initial residual = 0.112071, Final residual = 0.00907375, No Iterations 5
DILUPBiCGStab:  Solving for Uz, Initial residual = 0.590745, Final residual = 0.0273745, No Iterations 5
piso setup 254.998 [ms]
 correctNonOrthogonal 
 setRef 
 startSolve 
DICPCG:  Solving for p, Initial residual = 0.889437, Final residual = 9.78738e-05, No Iterations 425
piso step 19527.5 [ms]
 contErrors 
time step continuity errors : sum local = 1.29757e-08, global = 5.89068e-22, cumulative = 6.76888e-21
piso setup 250.109 [ms]
 correctNonOrthogonal 
 setRef 
 startSolve 
DICPCG:  Solving for p, Initial residual = 0.826404, Final residual = 9.90051e-05, No Iterations 419
piso step 19314.1 [ms]
 contErrors 
time step continuity errors : sum local = 1.20645e-08, global = 1.60542e-21, cumulative = 8.3743e-21
ExecutionTime = 370.99 s  ClockTime = 372 s

Time = 0.001162

Courant Number mean: 0.0325868 max: 0.512214
momentum setup 215.067 [ms]
DILUPBiCGStab:  Solving for Ux, Initial residual = 0.024696, Final residual = 0.0021306, No Iterations 5
DILUPBiCGStab:  Solving for Uy, Initial residual = 0.0985287, Final residual = 0.00830256, No Iterations 5
DILUPBiCGStab:  Solving for Uz, Initial residual = 0.571764, Final residual = 0.027091, No Iterations 5
piso setup 254.929 [ms]
 correctNonOrthogonal 
 setRef 
 startSolve 
DICPCG:  Solving for p, Initial residual = 0.907404, Final residual = 9.99935e-05, No Iterations 866
piso step 39845.2 [ms]
 contErrors 
time step continuity errors : sum local = 1.11221e-08, global = 7.7032e-22, cumulative = 9.14462e-21
piso setup 251.679 [ms]
 correctNonOrthogonal 
 setRef 
 startSolve 
DICPCG:  Solving for p, Initial residual = 0.86227, Final residual = 9.98083e-05, No Iterations 867
piso step 39641.3 [ms]
 contErrors 
time step continuity errors : sum local = 1.09832e-08, global = 1.31111e-21, cumulative = 1.04557e-20
ExecutionTime = 452.83 s  ClockTime = 454 s

Time = 0.001328

Courant Number mean: 0.0346597 max: 0.481288
momentum setup 211.946 [ms]
DILUPBiCGStab:  Solving for Ux, Initial residual = 0.0222467, Final residual = 0.00199131, No Iterations 5
DILUPBiCGStab:  Solving for Uy, Initial residual = 0.0876121, Final residual = 0.00702428, No Iterations 5
DILUPBiCGStab:  Solving for Uz, Initial residual = 0.526454, Final residual = 0.0226048, No Iterations 5
piso setup 254.689 [ms]
 correctNonOrthogonal 
 setRef 
 startSolve 
DICPCG:  Solving for p, Initial residual = 0.885925, Final residual = 9.96299e-05, No Iterations 865
piso step 39660.2 [ms]
 contErrors 
time step continuity errors : sum local = 1.12741e-08, global = 3.39191e-22, cumulative = 1.07949e-20
piso setup 249.913 [ms]
 correctNonOrthogonal 
 setRef 
 startSolve 
DICPCG:  Solving for p, Initial residual = 0.820113, Final residual = 9.88596e-05, No Iterations 864
piso step 39651 [ms]
 contErrors 
time step continuity errors : sum local = 1.13404e-08, global = -3.66065e-23, cumulative = 1.07583e-20
ExecutionTime = 534.5 s  ClockTime = 536 s

Time = 0.001494

Courant Number mean: 0.0365921 max: 0.518394
momentum setup 212.894 [ms]
DILUPBiCGStab:  Solving for Ux, Initial residual = 0.0206491, Final residual = 0.00185844, No Iterations 5
DILUPBiCGStab:  Solving for Uy, Initial residual = 0.0824247, Final residual = 0.00660838, No Iterations 5
DILUPBiCGStab:  Solving for Uz, Initial residual = 0.517854, Final residual = 0.0205028, No Iterations 5
piso setup 255.039 [ms]
 correctNonOrthogonal 
 setRef 
 startSolve 
DICPCG:  Solving for p, Initial residual = 0.903413, Final residual = 9.89302e-05, No Iterations 788
piso step 35979.1 [ms]
 contErrors 
time step continuity errors : sum local = 1.09729e-08, global = 1.79562e-21, cumulative = 1.25539e-20
piso setup 249.015 [ms]
 correctNonOrthogonal 
 setRef 
 startSolve 
DICPCG:  Solving for p, Initial residual = 0.853802, Final residual = 9.85462e-05, No Iterations 788
piso step 36006.3 [ms]
 contErrors 
time step continuity errors : sum local = 1.08262e-08, global = 3.00198e-22, cumulative = 1.28541e-20
ExecutionTime = 608.86 s  ClockTime = 611 s

Time = 0.00166

Courant Number mean: 0.038274 max: 0.483652
momentum setup 211.903 [ms]
DILUPBiCGStab:  Solving for Ux, Initial residual = 0.0194421, Final residual = 0.00176892, No Iterations 5
DILUPBiCGStab:  Solving for Uy, Initial residual = 0.0740552, Final residual = 0.0057394, No Iterations 5
DILUPBiCGStab:  Solving for Uz, Initial residual = 0.494084, Final residual = 0.0194086, No Iterations 5
piso setup 254.598 [ms]
 correctNonOrthogonal 
 setRef 
 startSolve 
DICPCG:  Solving for p, Initial residual = 0.884773, Final residual = 9.96611e-05, No Iterations 864
piso step 39750.4 [ms]
 contErrors 
time step continuity errors : sum local = 1.14027e-08, global = 7.272e-22, cumulative = 1.35813e-20
piso setup 250.135 [ms]
 correctNonOrthogonal 
 setRef 
 startSolve 
DICPCG:  Solving for p, Initial residual = 0.815905, Final residual = 9.78186e-05, No Iterations 863
piso step 39543.6 [ms]
 contErrors 
time step continuity errors : sum local = 1.13318e-08, global = -2.09821e-22, cumulative = 1.33715e-20
ExecutionTime = 690.5 s  ClockTime = 693 s

Time = 0.001826

Courant Number mean: 0.0398828 max: 0.524993
momentum setup 212.586 [ms]
DILUPBiCGStab:  Solving for Ux, Initial residual = 0.0182708, Final residual = 0.00164908, No Iterations 5
DILUPBiCGStab:  Solving for Uy, Initial residual = 0.0724482, Final residual = 0.00552007, No Iterations 5
DILUPBiCGStab:  Solving for Uz, Initial residual = 0.496579, Final residual = 0.0185124, No Iterations 5
piso setup 254.713 [ms]
 correctNonOrthogonal 
 setRef 
 startSolve 
DICPCG:  Solving for p, Initial residual = 0.903581, Final residual = 9.78051e-05, No Iterations 789
piso step 36087 [ms]
 contErrors 
time step continuity errors : sum local = 1.11388e-08, global = 1.42221e-21, cumulative = 1.47937e-20
piso setup 250.3 [ms]
 correctNonOrthogonal 
 setRef 
 startSolve 
DICPCG:  Solving for p, Initial residual = 0.849105, Final residual = 9.88249e-05, No Iterations 785
piso step 35896.1 [ms]
 contErrors 
time step continuity errors : sum local = 1.11632e-08, global = 5.92227e-22, cumulative = 1.53859e-20
ExecutionTime = 764.86 s  ClockTime = 768 s

Time = 0.001992

Courant Number mean: 0.0413046 max: 0.486745
momentum setup 210.629 [ms]
DILUPBiCGStab:  Solving for Ux, Initial residual = 0.0176675, Final residual = 0.00159334, No Iterations 5
DILUPBiCGStab:  Solving for Uy, Initial residual = 0.0659368, Final residual = 0.00486113, No Iterations 5
DILUPBiCGStab:  Solving for Uz, Initial residual = 0.486602, Final residual = 0.0190333, No Iterations 5
piso setup 255.063 [ms]
 correctNonOrthogonal 
 setRef 
 startSolve 
DICPCG:  Solving for p, Initial residual = 0.886389, Final residual = 9.93355e-05, No Iterations 861
piso step 39257.1 [ms]
 contErrors 
time step continuity errors : sum local = 1.17596e-08, global = 1.36688e-21, cumulative = 1.67528e-20
piso setup 249.623 [ms]
 correctNonOrthogonal 
 setRef 
 startSolve 
DICPCG:  Solving for p, Initial residual = 0.816074, Final residual = 9.71139e-05, No Iterations 860
piso step 39351.7 [ms]
 contErrors 
time step continuity errors : sum local = 1.16245e-08, global = 5.47227e-22, cumulative = 1.73001e-20
ExecutionTime = 845.8 s  ClockTime = 849 s

Time = 0.002158

Courant Number mean: 0.0426927 max: 0.532573
momentum setup 211.033 [ms]
DILUPBiCGStab:  Solving for Ux, Initial residual = 0.0167453, Final residual = 0.00148161, No Iterations 5
DILUPBiCGStab:  Solving for Uy, Initial residual = 0.0660241, Final residual = 0.00476872, No Iterations 5
DILUPBiCGStab:  Solving for Uz, Initial residual = 0.490086, Final residual = 0.0176009, No Iterations 5
piso setup 257.032 [ms]
 correctNonOrthogonal 
 setRef 
 startSolve 
DICPCG:  Solving for p, Initial residual = 0.904299, Final residual = 9.88321e-05, No Iterations 787
piso step 35925.5 [ms]
 contErrors 
time step continuity errors : sum local = 1.171e-08, global = 5.06029e-22, cumulative = 1.78061e-20
piso setup 249.422 [ms]
 correctNonOrthogonal 
 setRef 
 startSolve 
DICPCG:  Solving for p, Initial residual = 0.846274, Final residual = 9.78243e-05, No Iterations 785
piso step 36065.2 [ms]
 contErrors 
time step continuity errors : sum local = 1.15125e-08, global = 4.91714e-22, cumulative = 1.82978e-20
ExecutionTime = 920.17 s  ClockTime = 924 s

Time = 0.002324

Courant Number mean: 0.043927 max: 0.48979
momentum setup 216.179 [ms]
DILUPBiCGStab:  Solving for Ux, Initial residual = 0.0164531, Final residual = 0.0014457, No Iterations 5
DILUPBiCGStab:  Solving for Uy, Initial residual = 0.0608121, Final residual = 0.00423477, No Iterations 5
DILUPBiCGStab:  Solving for Uz, Initial residual = 0.484699, Final residual = 0.0182702, No Iterations 5
piso setup 254.597 [ms]
 correctNonOrthogonal 
 setRef 
 startSolve 
DICPCG:  Solving for p, Initial residual = 0.888819, Final residual = 9.97907e-05, No Iterations 856
piso step 39242.9 [ms]
 contErrors 
time step continuity errors : sum local = 1.23071e-08, global = 1.47884e-21, cumulative = 1.97766e-20
piso setup 251.026 [ms]
 correctNonOrthogonal 
 setRef 
 startSolve 
DICPCG:  Solving for p, Initial residual = 0.817333, Final residual = 9.81232e-05, No Iterations 852
piso step 39007.3 [ms]
 contErrors 
time step continuity errors : sum local = 1.22192e-08, global = 1.02111e-21, cumulative = 2.07977e-20
ExecutionTime = 1000.79 s  ClockTime = 1004 s

Time = 0.00249

Courant Number mean: 0.0451545 max: 0.541186
momentum setup 211.988 [ms]
DILUPBiCGStab:  Solving for Ux, Initial residual = 0.0157656, Final residual = 0.00134826, No Iterations 5
DILUPBiCGStab:  Solving for Uy, Initial residual = 0.0617125, Final residual = 0.00422144, No Iterations 5
DILUPBiCGStab:  Solving for Uz, Initial residual = 0.490629, Final residual = 0.0170946, No Iterations 5
piso setup 255.185 [ms]
 correctNonOrthogonal 
 setRef 
 startSolve 
DICPCG:  Solving for p, Initial residual = 0.905152, Final residual = 9.61095e-05, No Iterations 784
piso step 36098.4 [ms]
 contErrors 
time step continuity errors : sum local = 1.19012e-08, global = 1.6588e-21, cumulative = 2.24565e-20
piso setup 249.413 [ms]
 correctNonOrthogonal 
 setRef 
 startSolve 
DICPCG:  Solving for p, Initial residual = 0.844116, Final residual = 9.97984e-05, No Iterations 782
piso step 35750.8 [ms]
 contErrors 
time step continuity errors : sum local = 1.22913e-08, global = -7.11276e-23, cumulative = 2.23854e-20
ExecutionTime = 1075.02 s  ClockTime = 1079 s

Time = 0.002656

Courant Number mean: 0.0462463 max: 0.492892
momentum setup 213.314 [ms]
DILUPBiCGStab:  Solving for Ux, Initial residual = 0.0156693, Final residual = 0.00132823, No Iterations 5
DILUPBiCGStab:  Solving for Uy, Initial residual = 0.0576042, Final residual = 0.0037771, No Iterations 5
DILUPBiCGStab:  Solving for Uz, Initial residual = 0.486354, Final residual = 0.0174002, No Iterations 5
piso setup 254.498 [ms]
 correctNonOrthogonal 
 setRef 
 startSolve 
DICPCG:  Solving for p, Initial residual = 0.891692, Final residual = 9.83084e-05, No Iterations 822
piso step 37534 [ms]
 contErrors 
time step continuity errors : sum local = 1.26568e-08, global = -1.78574e-22, cumulative = 2.22068e-20
piso setup 250.156 [ms]
 correctNonOrthogonal 
 setRef 
 startSolve 
DICPCG:  Solving for p, Initial residual = 0.81928, Final residual = 9.91953e-05, No Iterations 830
piso step 38021.9 [ms]
 contErrors 
time step continuity errors : sum local = 1.2879e-08, global = 6.80982e-22, cumulative = 2.28878e-20
ExecutionTime = 1152.95 s  ClockTime = 1157 s

Time = 0.002822

Courant Number mean: 0.0473503 max: 0.551253
momentum setup 212.618 [ms]
DILUPBiCGStab:  Solving for Ux, Initial residual = 0.0151652, Final residual = 0.00124054, No Iterations 5
DILUPBiCGStab:  Solving for Uy, Initial residual = 0.0589324, Final residual = 0.00380932, No Iterations 5
DILUPBiCGStab:  Solving for Uz, Initial residual = 0.494215, Final residual = 0.0166896, No Iterations 5
piso setup 255.818 [ms]
 correctNonOrthogonal 
 setRef 
 startSolve 
DICPCG:  Solving for p, Initial residual = 0.906427, Final residual = 9.57746e-05, No Iterations 786
piso step 36127.7 [ms]
 contErrors 
time step continuity errors : sum local = 1.24301e-08, global = 1.25307e-21, cumulative = 2.41409e-20
piso setup 250.169 [ms]
 correctNonOrthogonal 
 setRef 
 startSolve 
DICPCG:  Solving for p, Initial residual = 0.842404, Final residual = 9.8391e-05, No Iterations 785
piso step 35825 [ms]
 contErrors 
time step continuity errors : sum local = 1.27162e-08, global = 2.93024e-22, cumulative = 2.44339e-20
ExecutionTime = 1227.28 s  ClockTime = 1232 s

Time = 0.002988

Courant Number mean: 0.0483296 max: 0.496203
momentum setup 209.872 [ms]
DILUPBiCGStab:  Solving for Ux, Initial residual = 0.0152323, Final residual = 0.00123892, No Iterations 5
DILUPBiCGStab:  Solving for Uy, Initial residual = 0.0557782, Final residual = 0.00343757, No Iterations 5
DILUPBiCGStab:  Solving for Uz, Initial residual = 0.494989, Final residual = 0.0176256, No Iterations 5
piso setup 254.967 [ms]
 correctNonOrthogonal 
 setRef 
 startSolve 
DICPCG:  Solving for p, Initial residual = 0.896169, Final residual = 9.93459e-05, No Iterations 862
piso step 39351.3 [ms]
 contErrors 
time step continuity errors : sum local = 1.3401e-08, global = 6.78167e-22, cumulative = 2.51121e-20
piso setup 249.306 [ms]
 correctNonOrthogonal 
 setRef 
 startSolve 
DICPCG:  Solving for p, Initial residual = 0.822418, Final residual = 9.7992e-05, No Iterations 861
piso step 39500.4 [ms]
 contErrors 
time step continuity errors : sum local = 1.33157e-08, global = 9.36609e-22, cumulative = 2.60487e-20
ExecutionTime = 1308.47 s  ClockTime = 1313 s

Time = 0.003154

Courant Number mean: 0.0493367 max: 0.562757
momentum setup 213.076 [ms]
DILUPBiCGStab:  Solving for Ux, Initial residual = 0.0148576, Final residual = 0.00115277, No Iterations 5
DILUPBiCGStab:  Solving for Uy, Initial residual = 0.0573724, Final residual = 0.00349884, No Iterations 5
DILUPBiCGStab:  Solving for Uz, Initial residual = 0.501289, Final residual = 0.0163602, No Iterations 5
piso setup 255.3 [ms]
 correctNonOrthogonal 
 setRef 
 startSolve 
DICPCG:  Solving for p, Initial residual = 0.909074, Final residual = 9.71363e-05, No Iterations 860
piso step 39394.7 [ms]
 contErrors 
time step continuity errors : sum local = 1.32818e-08, global = 2.6478e-22, cumulative = 2.63135e-20
piso setup 250.253 [ms]
 correctNonOrthogonal 
 setRef 
 startSolve 
DICPCG:  Solving for p, Initial residual = 0.842119, Final residual = 9.99408e-05, No Iterations 859
piso step 39504.3 [ms]
 contErrors 
time step continuity errors : sum local = 1.36224e-08, global = 1.04095e-21, cumulative = 2.73544e-20
ExecutionTime = 1389.73 s  ClockTime = 1395 s

Time = 0.00332

Courant Number mean: 0.0502235 max: 0.499787
momentum setup 212.31 [ms]
DILUPBiCGStab:  Solving for Ux, Initial residual = 0.0150579, Final residual = 0.00116362, No Iterations 5
DILUPBiCGStab:  Solving for Uy, Initial residual = 0.0549921, Final residual = 0.00318445, No Iterations 5
DILUPBiCGStab:  Solving for Uz, Initial residual = 0.498379, Final residual = 0.016144, No Iterations 5
piso setup 262.717 [ms]
 correctNonOrthogonal 
 setRef 
 startSolve 
DICPCG:  Solving for p, Initial residual = 0.901679, Final residual = 9.5794e-05, No Iterations 863
piso step 39564.4 [ms]
 contErrors 
time step continuity errors : sum local = 1.36015e-08, global = 1.98257e-22, cumulative = 2.75527e-20
piso setup 249.564 [ms]
 correctNonOrthogonal 
 setRef 
 startSolve 
DICPCG:  Solving for p, Initial residual = 0.826695, Final residual = 9.51568e-05, No Iterations 862
piso step 39588.9 [ms]
 contErrors 
time step continuity errors : sum local = 1.35981e-08, global = -1.64465e-22, cumulative = 2.73882e-20
ExecutionTime = 1471.24 s  ClockTime = 1477 s

End

Finalising parallel run
