/*---------------------------------------------------------------------------*\
| =========                 |                                                 |
| \\      /  F ield         | OpenFOAM: The Open Source CFD Toolbox           |
|  \\    /   O peration     | Version:  2306                                  |
|   \\  /    A nd           | Website:  www.openfoam.com                      |
|    \\/     M anipulation  |                                                 |
\*---------------------------------------------------------------------------*/
Build  : a6e826bd55-20230630 OPENFOAM=2306 version=v2306
Arch   : "LSB;label=32;scalar=64"
Exec   : icoFoam -parallel -case /tmp/lidDrivenCavity3D/workspace/5631174327b0f4d67035a377dd9d5cef/case
Date   : Dec 09 2023
Time   : 09:24:50
Host   : nla-gpu2.ianm.kit.edu
PID    : 269425
I/O    : uncollated
Case   : /tmp/lidDrivenCavity3D/workspace/5631174327b0f4d67035a377dd9d5cef/case
nProcs : 32
Hosts  :
(
    (nla-gpu2.ianm.kit.edu 32)
)
Pstream initialized with:
    floatTransfer      : false
    nProcsSimpleSum    : 0
    nonBlockingExchange: 0 (tuning: 0)
    exchange algorithm : -1
    commsType          : nonBlocking
    polling iterations : 0
trapFpe: Floating point exception trapping enabled (FOAM_SIGFPE).
fileModificationChecking : Monitoring run-time modified files using timeStampMaster (fileModificationSkew 5, maxFileModificationPolls 20)
allowSystemOperations : Allowing user-supplied system call operations

// * * * * * * * * * * * * * * * * * * * * * * * * * * * * * * * * * * * * * //
Create time

--> FOAM Warning : 
    From void* Foam::dlLibraryTable::openLibrary(const Foam::fileName&, bool)
    in file db/dynamicLibrary/dlLibraryTable/dlLibraryTable.C at line 188
    Could not load "libpetscFoam.so"
libpetscFoam.so: cannot open shared object file: No such file or directory
Create mesh for time = 0


PISO: Operating solver in PISO mode

Reading transportProperties

Reading field p

Reading field U

Reading/calculating face flux field phi


Starting time loop

Time = 0.0005

Courant Number mean: 8.62851e-18 max: 8.67362e-15
[INFO] MatrixAssemblyU: 6.379 [ms]
DILUPBiCGStab:  Solving for Ux, Initial residual = 1, Final residual = 0.00283431, No Iterations 5
DILUPBiCGStab:  Solving for Uy:  solution singularity
DILUPBiCGStab:  Solving for Uz:  solution singularity
[INFO] MomentumPredictor: 25.169 [ms]
[INFO] MatrixAssemblyPI: 5.529 [ms]
[INFO] AdjustPhi: 0.409 [ms]
[INFO] ConstrainPressure: 0.007 [ms]
[INFO] MatrixAssemblyPII: 1.669 [ms]
GAMG:  Solving for p, Initial residual = 1, Final residual = 8.84664e-05, No Iterations 22
[INFO] SolveP: 124.268 [ms]
time step continuity errors : sum local = 1.9169e-08, global = 2.03574e-21, cumulative = 2.03574e-21
[INFO] ContinuityError: 0.839 [ms]
[INFO] CorrectBoundary: 0.063 [ms]
[INFO] PISOStep: 135.421 [ms]
[INFO] MatrixAssemblyPI: 5.442 [ms]
[INFO] AdjustPhi: 2.432 [ms]
[INFO] ConstrainPressure: 0.002 [ms]
[INFO] MatrixAssemblyPII: 1.658 [ms]
GAMG:  Solving for p, Initial residual = 0.73116, Final residual = 8.26601e-05, No Iterations 26
[INFO] SolveP: 136.312 [ms]
time step continuity errors : sum local = 2.36391e-08, global = -1.96011e-21, cumulative = 7.56353e-23
[INFO] ContinuityError: 1.441 [ms]
[INFO] CorrectBoundary: 0.265 [ms]
[INFO] PISOStep: 150.716 [ms]
[INFO] TimeStep: 318.967 [ms]
ExecutionTime = 0.67 s  ClockTime = 1 s

Time = 0.001

Courant Number mean: 0.0215183 max: 0.377124
[INFO] MatrixAssemblyU: 3.593 [ms]
DILUPBiCGStab:  Solving for Ux, Initial residual = 0.15031, Final residual = 0.0014087, No Iterations 5
DILUPBiCGStab:  Solving for Uy, Initial residual = 0.368269, Final residual = 0.0028708, No Iterations 5
DILUPBiCGStab:  Solving for Uz, Initial residual = 0.984465, Final residual = 0.00793905, No Iterations 5
[INFO] MomentumPredictor: 40.625 [ms]
[INFO] MatrixAssemblyPI: 5.438 [ms]
[INFO] AdjustPhi: 0.33 [ms]
[INFO] ConstrainPressure: 0.002 [ms]
[INFO] MatrixAssemblyPII: 1.696 [ms]
GAMG:  Solving for p, Initial residual = 0.693069, Final residual = 8.43377e-05, No Iterations 21
[INFO] SolveP: 103.536 [ms]
time step continuity errors : sum local = 2.70427e-08, global = -1.11261e-20, cumulative = -1.10505e-20
[INFO] ContinuityError: 0.906 [ms]
[INFO] CorrectBoundary: 0.057 [ms]
[INFO] PISOStep: 114.272 [ms]
[INFO] MatrixAssemblyPI: 5.365 [ms]
[INFO] AdjustPhi: 0.472 [ms]
[INFO] ConstrainPressure: 0.002 [ms]
[INFO] MatrixAssemblyPII: 1.876 [ms]
GAMG:  Solving for p, Initial residual = 0.622451, Final residual = 9.12443e-05, No Iterations 24
[INFO] SolveP: 131.121 [ms]
time step continuity errors : sum local = 2.9936e-08, global = 3.45296e-21, cumulative = -7.5975e-21
[INFO] ContinuityError: 1.176 [ms]
[INFO] CorrectBoundary: 0.578 [ms]
[INFO] PISOStep: 142.807 [ms]
[INFO] TimeStep: 302.207 [ms]
ExecutionTime = 0.97 s  ClockTime = 1 s

Time = 0.0015

Courant Number mean: 0.0324761 max: 0.441228
[INFO] MatrixAssemblyU: 3.538 [ms]
DILUPBiCGStab:  Solving for Ux, Initial residual = 0.0531254, Final residual = 0.000432349, No Iterations 5
DILUPBiCGStab:  Solving for Uy, Initial residual = 0.124795, Final residual = 0.000734787, No Iterations 5
DILUPBiCGStab:  Solving for Uz, Initial residual = 0.597935, Final residual = 0.00558584, No Iterations 5
[INFO] MomentumPredictor: 40.773 [ms]
[INFO] MatrixAssemblyPI: 5.414 [ms]
[INFO] AdjustPhi: 0.34 [ms]
[INFO] ConstrainPressure: 0.002 [ms]
[INFO] MatrixAssemblyPII: 1.724 [ms]
GAMG:  Solving for p, Initial residual = 0.63373, Final residual = 9.33132e-05, No Iterations 20
[INFO] SolveP: 98.825 [ms]
time step continuity errors : sum local = 2.15629e-08, global = -5.44409e-21, cumulative = -1.30416e-20
[INFO] ContinuityError: 0.705 [ms]
[INFO] CorrectBoundary: 0.244 [ms]
[INFO] PISOStep: 110.163 [ms]
[INFO] MatrixAssemblyPI: 5.255 [ms]
[INFO] AdjustPhi: 0.175 [ms]
[INFO] ConstrainPressure: 0.002 [ms]
[INFO] MatrixAssemblyPII: 1.831 [ms]
GAMG:  Solving for p, Initial residual = 0.581231, Final residual = 9.29626e-05, No Iterations 20
[INFO] SolveP: 111.519 [ms]
time step continuity errors : sum local = 2.09176e-08, global = 3.28835e-21, cumulative = -9.75323e-21
[INFO] ContinuityError: 0.921 [ms]
[INFO] CorrectBoundary: 0.231 [ms]
[INFO] PISOStep: 122.632 [ms]
[INFO] TimeStep: 278.054 [ms]
ExecutionTime = 1.25 s  ClockTime = 2 s

Time = 0.002

Courant Number mean: 0.0388755 max: 0.452935
[INFO] MatrixAssemblyU: 3.042 [ms]
DILUPBiCGStab:  Solving for Ux, Initial residual = 0.0319205, Final residual = 0.000229, No Iterations 5
DILUPBiCGStab:  Solving for Uy, Initial residual = 0.0814083, Final residual = 0.000474758, No Iterations 5
DILUPBiCGStab:  Solving for Uz, Initial residual = 0.314308, Final residual = 0.00242892, No Iterations 5
[INFO] MomentumPredictor: 41.081 [ms]
[INFO] MatrixAssemblyPI: 5.031 [ms]
[INFO] AdjustPhi: 0.648 [ms]
[INFO] ConstrainPressure: 0.002 [ms]
[INFO] MatrixAssemblyPII: 1.675 [ms]
GAMG:  Solving for p, Initial residual = 0.41492, Final residual = 9.78216e-05, No Iterations 18
[INFO] SolveP: 87.443 [ms]
time step continuity errors : sum local = 1.93715e-08, global = 9.99544e-22, cumulative = -8.75369e-21
[INFO] ContinuityError: 0.725 [ms]
[INFO] CorrectBoundary: 0.096 [ms]
[INFO] PISOStep: 97.946 [ms]
[INFO] MatrixAssemblyPI: 5.139 [ms]
[INFO] AdjustPhi: 0.265 [ms]
[INFO] ConstrainPressure: 0.003 [ms]
[INFO] MatrixAssemblyPII: 1.693 [ms]
GAMG:  Solving for p, Initial residual = 0.352935, Final residual = 8.7455e-05, No Iterations 18
[INFO] SolveP: 89.301 [ms]
time step continuity errors : sum local = 1.74903e-08, global = -1.64842e-21, cumulative = -1.04021e-20
[INFO] ContinuityError: 0.941 [ms]
[INFO] CorrectBoundary: 0.468 [ms]
[INFO] PISOStep: 99.898 [ms]
[INFO] TimeStep: 242.914 [ms]
ExecutionTime = 1.49 s  ClockTime = 2 s

Time = 0.0025

Courant Number mean: 0.0439279 max: 0.459606
[INFO] MatrixAssemblyU: 3.994 [ms]
DILUPBiCGStab:  Solving for Ux, Initial residual = 0.023522, Final residual = 0.000146217, No Iterations 5
DILUPBiCGStab:  Solving for Uy, Initial residual = 0.0515472, Final residual = 0.000276616, No Iterations 5
DILUPBiCGStab:  Solving for Uz, Initial residual = 0.128436, Final residual = 0.000862305, No Iterations 5
[INFO] MomentumPredictor: 40.55 [ms]
[INFO] MatrixAssemblyPI: 5.451 [ms]
[INFO] AdjustPhi: 0.305 [ms]
[INFO] ConstrainPressure: 0.002 [ms]
[INFO] MatrixAssemblyPII: 1.704 [ms]
GAMG:  Solving for p, Initial residual = 0.316619, Final residual = 9.65961e-05, No Iterations 19
[INFO] SolveP: 94.365 [ms]
time step continuity errors : sum local = 1.57051e-08, global = -5.76121e-21, cumulative = -1.61633e-20
[INFO] ContinuityError: 0.891 [ms]
[INFO] CorrectBoundary: 0.082 [ms]
[INFO] PISOStep: 105.06 [ms]
[INFO] MatrixAssemblyPI: 5.255 [ms]
[INFO] AdjustPhi: 1.098 [ms]
[INFO] ConstrainPressure: 0.001 [ms]
[INFO] MatrixAssemblyPII: 1.689 [ms]
GAMG:  Solving for p, Initial residual = 0.27108, Final residual = 9.21474e-05, No Iterations 18
[INFO] SolveP: 87.753 [ms]
time step continuity errors : sum local = 1.49302e-08, global = -5.54149e-21, cumulative = -2.17048e-20
[INFO] ContinuityError: 0.845 [ms]
[INFO] CorrectBoundary: 0.051 [ms]
[INFO] PISOStep: 98.775 [ms]
[INFO] TimeStep: 249.664 [ms]
ExecutionTime = 1.74 s  ClockTime = 2 s

Time = 0.003

Courant Number mean: 0.0479688 max: 0.463849
[INFO] MatrixAssemblyU: 3.653 [ms]
DILUPBiCGStab:  Solving for Ux, Initial residual = 0.0179098, Final residual = 0.000103914, No Iterations 5
DILUPBiCGStab:  Solving for Uy, Initial residual = 0.0401365, Final residual = 0.000165323, No Iterations 5
DILUPBiCGStab:  Solving for Uz, Initial residual = 0.108923, Final residual = 0.000732041, No Iterations 5
[INFO] MomentumPredictor: 48.738 [ms]
[INFO] MatrixAssemblyPI: 5.049 [ms]
[INFO] AdjustPhi: 2.712 [ms]
[INFO] ConstrainPressure: 0.002 [ms]
[INFO] MatrixAssemblyPII: 1.651 [ms]
GAMG:  Solving for p, Initial residual = 0.198788, Final residual = 9.52726e-05, No Iterations 18
[INFO] SolveP: 88.087 [ms]
time step continuity errors : sum local = 1.49558e-08, global = -4.87121e-21, cumulative = -2.6576e-20
[INFO] ContinuityError: 0.713 [ms]
[INFO] CorrectBoundary: 0.063 [ms]
[INFO] PISOStep: 100.877 [ms]
[INFO] MatrixAssemblyPI: 5.148 [ms]
[INFO] AdjustPhi: 3.026 [ms]
[INFO] ConstrainPressure: 0.002 [ms]
[INFO] MatrixAssemblyPII: 1.688 [ms]
GAMG:  Solving for p, Initial residual = 0.16549, Final residual = 8.61563e-05, No Iterations 17
[INFO] SolveP: 85.072 [ms]
time step continuity errors : sum local = 1.35077e-08, global = -4.95543e-21, cumulative = -3.15315e-20
[INFO] ContinuityError: 0.89 [ms]
[INFO] CorrectBoundary: 0.279 [ms]
[INFO] PISOStep: 98.77 [ms]
[INFO] TimeStep: 252.994 [ms]
ExecutionTime = 1.99 s  ClockTime = 2 s

Time = 0.0035

Courant Number mean: 0.051379 max: 0.466725
[INFO] MatrixAssemblyU: 4.235 [ms]
DILUPBiCGStab:  Solving for Ux, Initial residual = 0.0146495, Final residual = 7.21975e-05, No Iterations 5
DILUPBiCGStab:  Solving for Uy, Initial residual = 0.0317705, Final residual = 0.000141641, No Iterations 5
DILUPBiCGStab:  Solving for Uz, Initial residual = 0.0760963, Final residual = 0.000446754, No Iterations 5
[INFO] MomentumPredictor: 41.924 [ms]
[INFO] MatrixAssemblyPI: 6.291 [ms]
[INFO] AdjustPhi: 0.187 [ms]
[INFO] ConstrainPressure: 0.002 [ms]
[INFO] MatrixAssemblyPII: 1.926 [ms]
GAMG:  Solving for p, Initial residual = 0.140765, Final residual = 9.17103e-05, No Iterations 19
[INFO] SolveP: 101.467 [ms]
time step continuity errors : sum local = 1.36669e-08, global = 2.56473e-21, cumulative = -2.89667e-20
[INFO] ContinuityError: 0.821 [ms]
[INFO] CorrectBoundary: 0.253 [ms]
[INFO] PISOStep: 113.548 [ms]
[INFO] MatrixAssemblyPI: 4.987 [ms]
[INFO] AdjustPhi: 0.805 [ms]
[INFO] ConstrainPressure: 0.002 [ms]
[INFO] MatrixAssemblyPII: 1.493 [ms]
GAMG:  Solving for p, Initial residual = 0.117898, Final residual = 8.72729e-05, No Iterations 19
[INFO] SolveP: 97.188 [ms]
time step continuity errors : sum local = 1.30036e-08, global = -3.45038e-21, cumulative = -3.24171e-20
[INFO] ContinuityError: 0.928 [ms]
[INFO] CorrectBoundary: 0.49 [ms]
[INFO] PISOStep: 108.455 [ms]
[INFO] TimeStep: 269.101 [ms]
ExecutionTime = 2.26 s  ClockTime = 3 s

Time = 0.004

Courant Number mean: 0.0543192 max: 0.468936
[INFO] MatrixAssemblyU: 3.748 [ms]
DILUPBiCGStab:  Solving for Ux, Initial residual = 0.0122995, Final residual = 5.46262e-05, No Iterations 5
DILUPBiCGStab:  Solving for Uy, Initial residual = 0.0265115, Final residual = 8.82013e-05, No Iterations 5
DILUPBiCGStab:  Solving for Uz, Initial residual = 0.0665551, Final residual = 0.000309461, No Iterations 5
[INFO] MomentumPredictor: 40.556 [ms]
[INFO] MatrixAssemblyPI: 5.464 [ms]
[INFO] AdjustPhi: 0.342 [ms]
[INFO] ConstrainPressure: 0.002 [ms]
[INFO] MatrixAssemblyPII: 1.726 [ms]
GAMG:  Solving for p, Initial residual = 0.0925042, Final residual = 8.24775e-05, No Iterations 17
[INFO] SolveP: 82.651 [ms]
time step continuity errors : sum local = 1.20149e-08, global = -1.29604e-20, cumulative = -4.53775e-20
[INFO] ContinuityError: 0.718 [ms]
[INFO] CorrectBoundary: 0.08 [ms]
[INFO] PISOStep: 93.253 [ms]
[INFO] MatrixAssemblyPI: 5.234 [ms]
[INFO] AdjustPhi: 0.334 [ms]
[INFO] ConstrainPressure: 0.003 [ms]
[INFO] MatrixAssemblyPII: 1.718 [ms]
GAMG:  Solving for p, Initial residual = 0.0768003, Final residual = 8.15091e-05, No Iterations 17
[INFO] SolveP: 81.907 [ms]
time step continuity errors : sum local = 1.19418e-08, global = 5.76527e-21, cumulative = -3.96122e-20
[INFO] ContinuityError: 0.718 [ms]
[INFO] CorrectBoundary: 0.079 [ms]
[INFO] PISOStep: 91.995 [ms]
[INFO] TimeStep: 230.785 [ms]
ExecutionTime = 2.49 s  ClockTime = 3 s

Time = 0.0045

Courant Number mean: 0.0568976 max: 0.47064
[INFO] MatrixAssemblyU: 3.697 [ms]
DILUPBiCGStab:  Solving for Ux, Initial residual = 0.010542, Final residual = 4.2624e-05, No Iterations 5
DILUPBiCGStab:  Solving for Uy, Initial residual = 0.022675, Final residual = 7.57301e-05, No Iterations 5
DILUPBiCGStab:  Solving for Uz, Initial residual = 0.0549385, Final residual = 0.000234741, No Iterations 5
[INFO] MomentumPredictor: 41.584 [ms]
[INFO] MatrixAssemblyPI: 5.524 [ms]
[INFO] AdjustPhi: 0.604 [ms]
[INFO] ConstrainPressure: 0.003 [ms]
[INFO] MatrixAssemblyPII: 1.719 [ms]
GAMG:  Solving for p, Initial residual = 0.0681183, Final residual = 9.34869e-05, No Iterations 18
[INFO] SolveP: 91.466 [ms]
time step continuity errors : sum local = 1.3459e-08, global = -5.64551e-21, cumulative = -4.52577e-20
[INFO] ContinuityError: 1.121 [ms]
[INFO] CorrectBoundary: 0.619 [ms]
[INFO] PISOStep: 104.595 [ms]
[INFO] MatrixAssemblyPI: 4.823 [ms]
[INFO] AdjustPhi: 0.892 [ms]
[INFO] ConstrainPressure: 0.002 [ms]
[INFO] MatrixAssemblyPII: 1.624 [ms]
GAMG:  Solving for p, Initial residual = 0.05702, Final residual = 8.86703e-05, No Iterations 18
[INFO] SolveP: 87.112 [ms]
time step continuity errors : sum local = 1.27519e-08, global = -1.65736e-21, cumulative = -4.69151e-20
[INFO] ContinuityError: 0.74 [ms]
[INFO] CorrectBoundary: 0.106 [ms]
[INFO] PISOStep: 97.527 [ms]
[INFO] TimeStep: 248.311 [ms]
ExecutionTime = 2.74 s  ClockTime = 3 s

Time = 0.005

Courant Number mean: 0.0591941 max: 0.472035
[INFO] MatrixAssemblyU: 4.003 [ms]
DILUPBiCGStab:  Solving for Ux, Initial residual = 0.00923116, Final residual = 3.56562e-05, No Iterations 5
DILUPBiCGStab:  Solving for Uy, Initial residual = 0.0197242, Final residual = 5.86976e-05, No Iterations 5
DILUPBiCGStab:  Solving for Uz, Initial residual = 0.0498951, Final residual = 0.000196144, No Iterations 5
[INFO] MomentumPredictor: 40.611 [ms]
[INFO] MatrixAssemblyPI: 5.478 [ms]
[INFO] AdjustPhi: 0.314 [ms]
[INFO] ConstrainPressure: 0.002 [ms]
[INFO] MatrixAssemblyPII: 1.714 [ms]
GAMG:  Solving for p, Initial residual = 0.0467577, Final residual = 9.81211e-05, No Iterations 18
[INFO] SolveP: 88.585 [ms]
time step continuity errors : sum local = 1.39647e-08, global = -6.14957e-22, cumulative = -4.753e-20
[INFO] ContinuityError: 1.704 [ms]
[INFO] CorrectBoundary: 0.043 [ms]
[INFO] PISOStep: 99.948 [ms]
[INFO] MatrixAssemblyPI: 5.977 [ms]
[INFO] AdjustPhi: 2.73 [ms]
[INFO] ConstrainPressure: 0.003 [ms]
[INFO] MatrixAssemblyPII: 1.642 [ms]
GAMG:  Solving for p, Initial residual = 0.0397012, Final residual = 8.51032e-05, No Iterations 17
[INFO] SolveP: 87.146 [ms]
time step continuity errors : sum local = 1.21064e-08, global = -4.08053e-21, cumulative = -5.16106e-20
[INFO] ContinuityError: 0.944 [ms]
[INFO] CorrectBoundary: 0.434 [ms]
[INFO] PISOStep: 101.69 [ms]
[INFO] TimeStep: 247.181 [ms]
ExecutionTime = 2.98 s  ClockTime = 3 s

Time = 0.0055

Courant Number mean: 0.061255 max: 0.473186
[INFO] MatrixAssemblyU: 3.487 [ms]
DILUPBiCGStab:  Solving for Ux, Initial residual = 0.00814662, Final residual = 2.9832e-05, No Iterations 5
DILUPBiCGStab:  Solving for Uy, Initial residual = 0.0174479, Final residual = 5.23521e-05, No Iterations 5
DILUPBiCGStab:  Solving for Uz, Initial residual = 0.0452996, Final residual = 0.000175042, No Iterations 5
[INFO] MomentumPredictor: 40.947 [ms]
[INFO] MatrixAssemblyPI: 5.441 [ms]
[INFO] AdjustPhi: 0.359 [ms]
[INFO] ConstrainPressure: 0.003 [ms]
[INFO] MatrixAssemblyPII: 1.725 [ms]
GAMG:  Solving for p, Initial residual = 0.0371276, Final residual = 8.00576e-05, No Iterations 18
[INFO] SolveP: 87.338 [ms]
time step continuity errors : sum local = 1.13235e-08, global = 2.22643e-21, cumulative = -4.93841e-20
[INFO] ContinuityError: 0.703 [ms]
[INFO] CorrectBoundary: 0.075 [ms]
[INFO] PISOStep: 97.931 [ms]
[INFO] MatrixAssemblyPI: 5.011 [ms]
[INFO] AdjustPhi: 0.379 [ms]
[INFO] ConstrainPressure: 0.002 [ms]
[INFO] MatrixAssemblyPII: 1.695 [ms]
GAMG:  Solving for p, Initial residual = 0.0317826, Final residual = 9.77723e-05, No Iterations 17
[INFO] SolveP: 87.857 [ms]
time step continuity errors : sum local = 1.39114e-08, global = 1.86152e-21, cumulative = -4.75226e-20
[INFO] ContinuityError: 0.787 [ms]
[INFO] CorrectBoundary: 0.05 [ms]
[INFO] PISOStep: 98.587 [ms]
[INFO] TimeStep: 241.997 [ms]
ExecutionTime = 3.22 s  ClockTime = 4 s

Time = 0.006

Courant Number mean: 0.0631276 max: 0.474166
[INFO] MatrixAssemblyU: 4.614 [ms]
DILUPBiCGStab:  Solving for Ux, Initial residual = 0.00729596, Final residual = 2.60982e-05, No Iterations 5
DILUPBiCGStab:  Solving for Uy, Initial residual = 0.0155732, Final residual = 4.55678e-05, No Iterations 5
DILUPBiCGStab:  Solving for Uz, Initial residual = 0.0401719, Final residual = 0.000150704, No Iterations 5
[INFO] MomentumPredictor: 43.191 [ms]
[INFO] MatrixAssemblyPI: 5.498 [ms]
[INFO] AdjustPhi: 0.989 [ms]
[INFO] ConstrainPressure: 0.001 [ms]
[INFO] MatrixAssemblyPII: 1.746 [ms]
GAMG:  Solving for p, Initial residual = 0.0275001, Final residual = 9.47112e-05, No Iterations 18
[INFO] SolveP: 87.562 [ms]
time step continuity errors : sum local = 1.33605e-08, global = -9.95982e-21, cumulative = -5.74824e-20
[INFO] ContinuityError: 0.717 [ms]
[INFO] CorrectBoundary: 0.055 [ms]
[INFO] PISOStep: 98.92 [ms]
[INFO] MatrixAssemblyPI: 5.181 [ms]
[INFO] AdjustPhi: 0.415 [ms]
[INFO] ConstrainPressure: 0.003 [ms]
[INFO] MatrixAssemblyPII: 1.624 [ms]
GAMG:  Solving for p, Initial residual = 0.0241625, Final residual = 9.76619e-05, No Iterations 17
[INFO] SolveP: 82.111 [ms]
time step continuity errors : sum local = 1.38419e-08, global = 4.28273e-22, cumulative = -5.70542e-20
[INFO] ContinuityError: 0.716 [ms]
[INFO] CorrectBoundary: 0.075 [ms]
[INFO] PISOStep: 92.19 [ms]
[INFO] TimeStep: 240.21 [ms]
ExecutionTime = 3.46 s  ClockTime = 4 s

Time = 0.0065

Courant Number mean: 0.0648324 max: 0.475002
[INFO] MatrixAssemblyU: 3.641 [ms]
DILUPBiCGStab:  Solving for Ux, Initial residual = 0.00656279, Final residual = 2.28424e-05, No Iterations 5
DILUPBiCGStab:  Solving for Uy, Initial residual = 0.0140503, Final residual = 4.09489e-05, No Iterations 5
DILUPBiCGStab:  Solving for Uz, Initial residual = 0.0374705, Final residual = 0.000140548, No Iterations 5
[INFO] MomentumPredictor: 40.564 [ms]
[INFO] MatrixAssemblyPI: 5.43 [ms]
[INFO] AdjustPhi: 0.332 [ms]
[INFO] ConstrainPressure: 0.002 [ms]
[INFO] MatrixAssemblyPII: 1.724 [ms]
GAMG:  Solving for p, Initial residual = 0.0233163, Final residual = 9.22319e-05, No Iterations 18
[INFO] SolveP: 87.816 [ms]
time step continuity errors : sum local = 1.30104e-08, global = -3.01306e-21, cumulative = -6.00672e-20
[INFO] ContinuityError: 0.713 [ms]
[INFO] CorrectBoundary: 0.055 [ms]
[INFO] PISOStep: 98.396 [ms]
[INFO] MatrixAssemblyPI: 5.178 [ms]
[INFO] AdjustPhi: 0.351 [ms]
[INFO] ConstrainPressure: 0.002 [ms]
[INFO] MatrixAssemblyPII: 1.695 [ms]
GAMG:  Solving for p, Initial residual = 0.0206878, Final residual = 8.71975e-05, No Iterations 17
[INFO] SolveP: 83.527 [ms]
time step continuity errors : sum local = 1.2344e-08, global = -3.16919e-21, cumulative = -6.32364e-20
[INFO] ContinuityError: 0.913 [ms]
[INFO] CorrectBoundary: 0.115 [ms]
[INFO] PISOStep: 93.72 [ms]
[INFO] TimeStep: 237.223 [ms]
ExecutionTime = 3.69 s  ClockTime = 4 s

Time = 0.007

Courant Number mean: 0.0664008 max: 0.475734
[INFO] MatrixAssemblyU: 3.753 [ms]
DILUPBiCGStab:  Solving for Ux, Initial residual = 0.00596611, Final residual = 2.05307e-05, No Iterations 5
DILUPBiCGStab:  Solving for Uy, Initial residual = 0.0127533, Final residual = 3.68919e-05, No Iterations 5
DILUPBiCGStab:  Solving for Uz, Initial residual = 0.0339303, Final residual = 0.000126626, No Iterations 5
[INFO] MomentumPredictor: 40.638 [ms]
[INFO] MatrixAssemblyPI: 5.365 [ms]
[INFO] AdjustPhi: 0.375 [ms]
[INFO] ConstrainPressure: 0.002 [ms]
[INFO] MatrixAssemblyPII: 1.752 [ms]
GAMG:  Solving for p, Initial residual = 0.0189188, Final residual = 9.34753e-05, No Iterations 17
[INFO] SolveP: 82.308 [ms]
time step continuity errors : sum local = 1.32179e-08, global = 3.95289e-22, cumulative = -6.28411e-20
[INFO] ContinuityError: 0.721 [ms]
[INFO] CorrectBoundary: 0.076 [ms]
[INFO] PISOStep: 92.847 [ms]
[INFO] MatrixAssemblyPI: 5.102 [ms]
[INFO] AdjustPhi: 0.313 [ms]
[INFO] ConstrainPressure: 0.002 [ms]
[INFO] MatrixAssemblyPII: 1.723 [ms]
GAMG:  Solving for p, Initial residual = 0.0171855, Final residual = 8.5955e-05, No Iterations 17
[INFO] SolveP: 81.887 [ms]
time step continuity errors : sum local = 1.2159e-08, global = -8.17844e-21, cumulative = -7.10196e-20
[INFO] ContinuityError: 0.71 [ms]
[INFO] CorrectBoundary: 0.078 [ms]
[INFO] PISOStep: 91.819 [ms]
[INFO] TimeStep: 230.446 [ms]
ExecutionTime = 3.92 s  ClockTime = 4 s

Time = 0.0075

Courant Number mean: 0.0678484 max: 0.476374
[INFO] MatrixAssemblyU: 3.66 [ms]
DILUPBiCGStab:  Solving for Ux, Initial residual = 0.00543863, Final residual = 1.8501e-05, No Iterations 5
DILUPBiCGStab:  Solving for Uy, Initial residual = 0.0116614, Final residual = 3.35335e-05, No Iterations 5
DILUPBiCGStab:  Solving for Uz, Initial residual = 0.031054, Final residual = 0.000114912, No Iterations 5
[INFO] MomentumPredictor: 40.58 [ms]
[INFO] MatrixAssemblyPI: 5.481 [ms]
[INFO] AdjustPhi: 0.306 [ms]
[INFO] ConstrainPressure: 0.004 [ms]
[INFO] MatrixAssemblyPII: 1.706 [ms]
GAMG:  Solving for p, Initial residual = 0.0166441, Final residual = 8.93111e-05, No Iterations 17
[INFO] SolveP: 84.774 [ms]
time step continuity errors : sum local = 1.26119e-08, global = -1.12543e-21, cumulative = -7.2145e-20
[INFO] ContinuityError: 1.065 [ms]
[INFO] CorrectBoundary: 0.383 [ms]
[INFO] PISOStep: 95.694 [ms]
[INFO] MatrixAssemblyPI: 5.323 [ms]
[INFO] AdjustPhi: 1.047 [ms]
[INFO] ConstrainPressure: 0.002 [ms]
[INFO] MatrixAssemblyPII: 1.635 [ms]
GAMG:  Solving for p, Initial residual = 0.0152247, Final residual = 9.03481e-05, No Iterations 18
[INFO] SolveP: 87.045 [ms]
time step continuity errors : sum local = 1.27307e-08, global = -5.37719e-22, cumulative = -7.26827e-20
[INFO] ContinuityError: 0.716 [ms]
[INFO] CorrectBoundary: 0.09 [ms]
[INFO] PISOStep: 97.979 [ms]
[INFO] TimeStep: 238.816 [ms]
ExecutionTime = 4.16 s  ClockTime = 5 s

Time = 0.008

Courant Number mean: 0.0691861 max: 0.476944
[INFO] MatrixAssemblyU: 3.72 [ms]
DILUPBiCGStab:  Solving for Ux, Initial residual = 0.00499608, Final residual = 1.69116e-05, No Iterations 5
DILUPBiCGStab:  Solving for Uy, Initial residual = 0.0107096, Final residual = 3.06871e-05, No Iterations 5
DILUPBiCGStab:  Solving for Uz, Initial residual = 0.0291616, Final residual = 0.000108429, No Iterations 5
[INFO] MomentumPredictor: 40.625 [ms]
[INFO] MatrixAssemblyPI: 5.501 [ms]
[INFO] AdjustPhi: 0.279 [ms]
[INFO] ConstrainPressure: 0.002 [ms]
[INFO] MatrixAssemblyPII: 1.727 [ms]
GAMG:  Solving for p, Initial residual = 0.0148734, Final residual = 7.96658e-05, No Iterations 19
[INFO] SolveP: 91.956 [ms]
time step continuity errors : sum local = 1.12089e-08, global = -2.55578e-21, cumulative = -7.52385e-20
[INFO] ContinuityError: 0.722 [ms]
[INFO] CorrectBoundary: 0.074 [ms]
[INFO] PISOStep: 102.711 [ms]
[INFO] MatrixAssemblyPI: 4.966 [ms]
[INFO] AdjustPhi: 0.436 [ms]
[INFO] ConstrainPressure: 0.002 [ms]
[INFO] MatrixAssemblyPII: 1.7 [ms]
GAMG:  Solving for p, Initial residual = 0.0138128, Final residual = 9.55375e-05, No Iterations 18
[INFO] SolveP: 96.842 [ms]
time step continuity errors : sum local = 1.34949e-08, global = -3.99477e-21, cumulative = -7.92333e-20
[INFO] ContinuityError: 1.013 [ms]
[INFO] CorrectBoundary: 0.602 [ms]
[INFO] PISOStep: 107.57 [ms]
[INFO] TimeStep: 255.564 [ms]
ExecutionTime = 4.42 s  ClockTime = 5 s

Time = 0.0085

Courant Number mean: 0.0704321 max: 0.477454
[INFO] MatrixAssemblyU: 3.424 [ms]
DILUPBiCGStab:  Solving for Ux, Initial residual = 0.00459926, Final residual = 1.55016e-05, No Iterations 5
DILUPBiCGStab:  Solving for Uy, Initial residual = 0.00988721, Final residual = 2.81956e-05, No Iterations 5
DILUPBiCGStab:  Solving for Uz, Initial residual = 0.0274489, Final residual = 0.000102916, No Iterations 5
[INFO] MomentumPredictor: 40.667 [ms]
[INFO] MatrixAssemblyPI: 5.431 [ms]
[INFO] AdjustPhi: 0.285 [ms]
[INFO] ConstrainPressure: 0.002 [ms]
[INFO] MatrixAssemblyPII: 1.739 [ms]
GAMG:  Solving for p, Initial residual = 0.0135429, Final residual = 8.45794e-05, No Iterations 18
[INFO] SolveP: 87.686 [ms]
time step continuity errors : sum local = 1.1898e-08, global = 3.45425e-21, cumulative = -7.5779e-20
[INFO] ContinuityError: 2.262 [ms]
[INFO] CorrectBoundary: 0.054 [ms]
[INFO] PISOStep: 99.501 [ms]
[INFO] MatrixAssemblyPI: 5.276 [ms]
[INFO] AdjustPhi: 1.61 [ms]
[INFO] ConstrainPressure: 0.002 [ms]
[INFO] MatrixAssemblyPII: 1.716 [ms]
GAMG:  Solving for p, Initial residual = 0.0126211, Final residual = 9.70265e-05, No Iterations 14
[INFO] SolveP: 72.068 [ms]
time step continuity errors : sum local = 1.36474e-08, global = -1.42368e-21, cumulative = -7.72027e-20
[INFO] ContinuityError: 0.725 [ms]
[INFO] CorrectBoundary: 0.045 [ms]
[INFO] PISOStep: 84.402 [ms]
[INFO] TimeStep: 229.245 [ms]
ExecutionTime = 4.65 s  ClockTime = 5 s

Time = 0.009

Courant Number mean: 0.0715957 max: 0.477912
[INFO] MatrixAssemblyU: 4.486 [ms]
DILUPBiCGStab:  Solving for Ux, Initial residual = 0.00425935, Final residual = 1.43159e-05, No Iterations 5
DILUPBiCGStab:  Solving for Uy, Initial residual = 0.0091587, Final residual = 2.60588e-05, No Iterations 5
DILUPBiCGStab:  Solving for Uz, Initial residual = 0.0260728, Final residual = 9.84764e-05, No Iterations 5
[INFO] MomentumPredictor: 46.647 [ms]
[INFO] MatrixAssemblyPI: 5.436 [ms]
[INFO] AdjustPhi: 1.742 [ms]
[INFO] ConstrainPressure: 0.002 [ms]
[INFO] MatrixAssemblyPII: 1.509 [ms]
GAMG:  Solving for p, Initial residual = 0.0128423, Final residual = 8.26288e-05, No Iterations 19
[INFO] SolveP: 94.093 [ms]
time step continuity errors : sum local = 1.16626e-08, global = -5.58693e-21, cumulative = -8.27896e-20
[INFO] ContinuityError: 0.765 [ms]
[INFO] CorrectBoundary: 0.061 [ms]
[INFO] PISOStep: 106.955 [ms]
[INFO] MatrixAssemblyPI: 5.223 [ms]
[INFO] AdjustPhi: 1.061 [ms]
[INFO] ConstrainPressure: 0.002 [ms]
[INFO] MatrixAssemblyPII: 1.696 [ms]
GAMG:  Solving for p, Initial residual = 0.0120468, Final residual = 8.97071e-05, No Iterations 18
[INFO] SolveP: 93.148 [ms]
time step continuity errors : sum local = 1.26374e-08, global = -6.33496e-21, cumulative = -8.91246e-20
[INFO] ContinuityError: 0.885 [ms]
[INFO] CorrectBoundary: 0.689 [ms]
[INFO] PISOStep: 104.694 [ms]
[INFO] TimeStep: 263.702 [ms]
ExecutionTime = 4.91 s  ClockTime = 5 s

Time = 0.0095

Courant Number mean: 0.0726829 max: 0.478327
[INFO] MatrixAssemblyU: 3.976 [ms]
DILUPBiCGStab:  Solving for Ux, Initial residual = 0.00395002, Final residual = 1.32675e-05, No Iterations 5
DILUPBiCGStab:  Solving for Uy, Initial residual = 0.00851821, Final residual = 2.41556e-05, No Iterations 5
DILUPBiCGStab:  Solving for Uz, Initial residual = 0.0244343, Final residual = 9.30408e-05, No Iterations 5
[INFO] MomentumPredictor: 40.229 [ms]
[INFO] MatrixAssemblyPI: 5.514 [ms]
[INFO] AdjustPhi: 0.262 [ms]
[INFO] ConstrainPressure: 0.002 [ms]
[INFO] MatrixAssemblyPII: 1.732 [ms]
GAMG:  Solving for p, Initial residual = 0.0117627, Final residual = 8.11762e-05, No Iterations 15
[INFO] SolveP: 72.869 [ms]
time step continuity errors : sum local = 1.14708e-08, global = 3.18651e-21, cumulative = -8.59381e-20
[INFO] ContinuityError: 0.711 [ms]
[INFO] CorrectBoundary: 0.083 [ms]
[INFO] PISOStep: 83.44 [ms]
[INFO] MatrixAssemblyPI: 5.255 [ms]
[INFO] AdjustPhi: 0.333 [ms]
[INFO] ConstrainPressure: 0.002 [ms]
[INFO] MatrixAssemblyPII: 1.703 [ms]
GAMG:  Solving for p, Initial residual = 0.0110731, Final residual = 8.23209e-05, No Iterations 18
[INFO] SolveP: 86.911 [ms]
time step continuity errors : sum local = 1.15939e-08, global = -3.64745e-21, cumulative = -8.95855e-20
[INFO] ContinuityError: 0.717 [ms]
[INFO] CorrectBoundary: 0.047 [ms]
[INFO] PISOStep: 96.966 [ms]
[INFO] TimeStep: 225.712 [ms]
ExecutionTime = 5.14 s  ClockTime = 6 s

Time = 0.01

Courant Number mean: 0.0737005 max: 0.478704
[INFO] MatrixAssemblyU: 4.137 [ms]
DILUPBiCGStab:  Solving for Ux, Initial residual = 0.00368084, Final residual = 1.23312e-05, No Iterations 5
DILUPBiCGStab:  Solving for Uy, Initial residual = 0.00794218, Final residual = 2.24811e-05, No Iterations 5
DILUPBiCGStab:  Solving for Uz, Initial residual = 0.0223933, Final residual = 8.50041e-05, No Iterations 5
[INFO] MomentumPredictor: 40.173 [ms]
[INFO] MatrixAssemblyPI: 5.433 [ms]
[INFO] AdjustPhi: 0.345 [ms]
[INFO] ConstrainPressure: 0.002 [ms]
[INFO] MatrixAssemblyPII: 1.733 [ms]
GAMG:  Solving for p, Initial residual = 0.0109821, Final residual = 8.98002e-05, No Iterations 18
[INFO] SolveP: 91.335 [ms]
time step continuity errors : sum local = 1.26864e-08, global = -5.07036e-21, cumulative = -9.46559e-20
[INFO] ContinuityError: 1.11 [ms]
[INFO] CorrectBoundary: 0.051 [ms]
[INFO] PISOStep: 102.09 [ms]
[INFO] MatrixAssemblyPI: 5.244 [ms]
[INFO] AdjustPhi: 1.071 [ms]
[INFO] ConstrainPressure: 0.001 [ms]
[INFO] MatrixAssemblyPII: 1.725 [ms]
GAMG:  Solving for p, Initial residual = 0.0103294, Final residual = 7.47855e-05, No Iterations 16
[INFO] SolveP: 77.359 [ms]
time step continuity errors : sum local = 1.0511e-08, global = -1.04305e-20, cumulative = -1.05086e-19
[INFO] ContinuityError: 0.715 [ms]
[INFO] CorrectBoundary: 0.086 [ms]
[INFO] PISOStep: 88.243 [ms]
[INFO] TimeStep: 235.619 [ms]
ExecutionTime = 5.37 s  ClockTime = 6 s

End

Finalising parallel run
