/*---------------------------------------------------------------------------*\
| =========                 |                                                 |
| \\      /  F ield         | OpenFOAM: The Open Source CFD Toolbox           |
|  \\    /   O peration     | Version:  2306                                  |
|   \\  /    A nd           | Website:  www.openfoam.com                      |
|    \\/     M anipulation  |                                                 |
\*---------------------------------------------------------------------------*/
Build  : a6e826bd55-20230630 OPENFOAM=2306 version=v2306
Arch   : "LSB;label=32;scalar=64"
Exec   : icoFoam -parallel -case /tmp/lidDrivenCavity3D/workspace/7b11593a6a31ea50c0f99664ea08e24b/case
Date   : Dec 06 2023
Time   : 04:49:47
Host   : nla-gpu2.ianm.kit.edu
PID    : 3954764
I/O    : uncollated
Case   : /tmp/lidDrivenCavity3D/workspace/7b11593a6a31ea50c0f99664ea08e24b/case
nProcs : 16
Hosts  :
(
    (nla-gpu2.ianm.kit.edu 16)
)
Pstream initialized with:
    floatTransfer      : false
    nProcsSimpleSum    : 0
    nonBlockingExchange: 0 (tuning: 0)
    exchange algorithm : -1
    commsType          : nonBlocking
    polling iterations : 0
trapFpe: Floating point exception trapping enabled (FOAM_SIGFPE).
fileModificationChecking : Monitoring run-time modified files using timeStampMaster (fileModificationSkew 5, maxFileModificationPolls 20)
allowSystemOperations : Allowing user-supplied system call operations

// * * * * * * * * * * * * * * * * * * * * * * * * * * * * * * * * * * * * * //
Create time

--> FOAM Warning : 
    From void* Foam::dlLibraryTable::openLibrary(const Foam::fileName&, bool)
    in file db/dynamicLibrary/dlLibraryTable/dlLibraryTable.C at line 188
    Could not load "libpetscFoam.so"
libpetscFoam.so: cannot open shared object file: No such file or directory
Create mesh for time = 0


PISO: Operating solver in PISO mode

Reading transportProperties

Reading field p

Reading field U

Reading/calculating face flux field phi


Starting time loop

Time = 0.000125

Courant Number mean: 8.02505e-18 max: 4.85723e-14
momentum setup 581.674 [ms]
DILUPBiCGStab:  Solving for Ux, Initial residual = 1, Final residual = 0.0215184, No Iterations 5
DILUPBiCGStab:  Solving for Uy:  solution singularity
DILUPBiCGStab:  Solving for Uz:  solution singularity
piso setup 622.112 [ms]
 correctNonOrthogonal 
 setRef 
 startSolve 
[OGL LOG][lduLduBase.H:119] Initialising OGL
	OGL commit:  5ef1233
	Branch: feat/on_device_permute 
	Build type: Release
	Ginkgo version: 1.7.0 ( develop)
	Ginkgo commit: sparse-communicator
	MPI is GPU aware: 1
	Forces host buffer based communication: 0
	CPU ranks per GPU: 1
	Matrix format: Coo
	End OGL_INFO
[OGL LOG][Proc: 0]: global_index_init: 13.534 [ms]
[OGL LOG][Proc: 0]p_local_cols: call_init: 0.036 [ms]
[OGL LOG][Proc: 0]p_local_rows: call_init: 0.003 [ms]
[OGL LOG][Proc: 0]p_local_ldu_map: call_init: 0.01 [ms]
[OGL LOG][Proc: 0]p_local_coeffs: call_init: 0.008 [ms]
[OGL LOG][Proc: 0]p_non_local_cols: call_init: 0.003 [ms]
[OGL LOG][Proc: 0]p_non_local_rows: call_init: 0.002 [ms]
[OGL LOG][Proc: 0]p_non_local_ldu_map: call_init: 0.002 [ms]
[OGL LOG][Proc: 0]p_non_local_coeffs: call_init: 0.002 [ms]
[OGL LOG][Proc: 0]p: init_local_sparsity_pattern: 612.78 [ms]
[OGL LOG][Proc: 0]p: init_non_local_sparsity_pattern: 36.134 [ms]
[OGL LOG][Proc: 0]p: update_local_matrix_data: 82.555 [ms]
[OGL LOG][Proc: 0]p: update_non_local_matrix_data: 0.33 [ms]
[OGL LOG][Proc: 0]device_partition: call_init: 0.228 [ms]
[OGL LOG][Proc: 0]p_matrix: call_init: 243.004 [ms]
[OGL LOG][Proc: 0]p_rhs: call_init: 18.223 [ms]
[OGL LOG][Proc: 0]p_solution: call_init: 5.294 [ms]
[OGL LOG][Proc: 0]p: init_precond: 0.126 [ms]
[OGL LOG][StoppingCriterion.H:373] Creating stopping criterion with minIter 0 frequency 1
[OGL LOG][Proc: 0]p: generate_solver: 0.042 [ms]
[OGL LOG][Proc: 0]p: solve: 22145.7 [ms]
[OGL LOG][Proc: 0]p: copy_x_back: 12.206 [ms]
[OGL LOG][lduLduBase.H:330] 
Statistics:
	Time per iteration: 4428 [mu s]
	Time per residual norm calculation: 1253.000000 [mu s]
	Time per iteration and DOF: 0.069187 [ns]
	Retrieve results bandwidth 2.621000 [GByte/s]
[OGL LOG][Proc: 0]p: solve_multi_gpu: 22436.6 [ms]
nonehipGKOCG:  Solving for p, Initial residual = 1, Final residual = 26.2151, No Iterations 5001
piso step 23667.9 [ms]
 contErrors 
time step continuity errors : sum local = 0.000684944, global = 6.84826e-19, cumulative = 6.84826e-19
piso setup 590.381 [ms]
 correctNonOrthogonal 
 setRef 
 startSolve 
[OGL LOG][Proc: 0]: global_index_init: 0.044 [ms]
[OGL LOG][Proc: 0]p_local_coeffs: call_update: 0.003 [ms]
[OGL LOG][Proc: 0]p_non_local_coeffs: call_update: 0 [ms]
[OGL LOG][Proc: 0]p: update_local_matrix_data: 78.615 [ms]
[OGL LOG][Proc: 0]p: update_non_local_matrix_data: 0.256 [ms]
[OGL LOG][Proc: 0]p_matrix: call_update: 40.836 [ms]
[OGL LOG][Proc: 0]p_rhs: call_update: 21.637 [ms]
[OGL LOG][Proc: 0]p: init_precond: 0.068 [ms]
[OGL LOG][StoppingCriterion.H:373] Creating stopping criterion with minIter 3000 frequency 25
[OGL LOG][Proc: 0]p: generate_solver: 0.004 [ms]
[OGL LOG][Proc: 0]p: solve: 19816.6 [ms]
[OGL LOG][Proc: 0]p: copy_x_back: 15.1 [ms]
[OGL LOG][lduLduBase.H:330] 
Statistics:
	Time per iteration: 3962 [mu s]
	Time per residual norm calculation: 421.000000 [mu s]
	Time per iteration and DOF: 0.061906 [ns]
	Retrieve results bandwidth 2.119000 [GByte/s]
[OGL LOG][Proc: 0]p: solve_multi_gpu: 19896.2 [ms]
nonehipGKOCG:  Solving for p, Initial residual = 0.936819, Final residual = 3.59065, No Iterations 5001
piso step 20226 [ms]
 contErrors 
time step continuity errors : sum local = 0.00363839, global = -3.43895e-19, cumulative = 3.40931e-19
ExecutionTime = 64.9 s  ClockTime = 51 s

Time = 0.00025

Courant Number mean: 0.0149099 max: 0.605605
momentum setup 501.873 [ms]
DILUPBiCGStab:  Solving for Ux, Initial residual = 0.771513, Final residual = 0.0361578, No Iterations 5
DILUPBiCGStab:  Solving for Uy, Initial residual = 0.903763, Final residual = 0.0495816, No Iterations 5
DILUPBiCGStab:  Solving for Uz, Initial residual = 0.86048, Final residual = 0.0648854, No Iterations 5
piso setup 608.529 [ms]
 correctNonOrthogonal 
 setRef 
 startSolve 
[OGL LOG][Proc: 0]: global_index_init: 0.209 [ms]
[OGL LOG][Proc: 0]p_local_coeffs: call_update: 0 [ms]
[OGL LOG][Proc: 0]p_non_local_coeffs: call_update: 0 [ms]
[OGL LOG][Proc: 0]p: update_local_matrix_data: 78.725 [ms]
[OGL LOG][Proc: 0]p: update_non_local_matrix_data: 0.262 [ms]
[OGL LOG][Proc: 0]p_matrix: call_update: 41.642 [ms]
[OGL LOG][Proc: 0]p_rhs: call_update: 15.542 [ms]
[OGL LOG][Proc: 0]p: init_precond: 0.054 [ms]
[OGL LOG][StoppingCriterion.H:373] Creating stopping criterion with minIter 3000 frequency 14
[OGL LOG][Proc: 0]p: generate_solver: 0.004 [ms]
