/*---------------------------------------------------------------------------*\
| =========                 |                                                 |
| \\      /  F ield         | OpenFOAM: The Open Source CFD Toolbox           |
|  \\    /   O peration     | Version:  2306                                  |
|   \\  /    A nd           | Website:  www.openfoam.com                      |
|    \\/     M anipulation  |                                                 |
\*---------------------------------------------------------------------------*/
Build  : c423ebec-20231012 OPENFOAM=2306 version=v2306
Arch   : "LSB;label=32;scalar=64"
Exec   : simpleFoam -parallel -case /hkfs/work/workspace/scratch/eq4036-windsorbody_setup/workspace/25593527cbb6728c6d383e3356d95cbd/case
Date   : Feb 16 2024
Time   : 20:32:37
Host   : hkn0811.localdomain
PID    : 2697666
I/O    : uncollated
Case   : /hkfs/work/workspace/scratch/eq4036-windsorbody_setup/workspace/25593527cbb6728c6d383e3356d95cbd/case
nProcs : 12
Hosts  :
(
    (hkn0811.localdomain 6)
    (hkn0814.localdomain 6)
)
Pstream initialized with:
    floatTransfer      : false
    nProcsSimpleSum    : 0
    nonBlockingExchange: 0 (tuning: 0)
    exchange algorithm : -1
    commsType          : nonBlocking
    polling iterations : 0
trapFpe: Floating point exception trapping enabled (FOAM_SIGFPE).
fileModificationChecking : Monitoring run-time modified files using timeStampMaster (fileModificationSkew 5, maxFileModificationPolls 20)
allowSystemOperations : Allowing user-supplied system call operations

// * * * * * * * * * * * * * * * * * * * * * * * * * * * * * * * * * * * * * //
Create time

--> FOAM Warning : 
    From void* Foam::dlLibraryTable::openLibrary(const Foam::fileName&, bool)
    in file db/dynamicLibrary/dlLibraryTable/dlLibraryTable.C at line 188
    Could not load "libpetscFoam.so"
libpetscFoam.so: cannot open shared object file: No such file or directory
Create mesh for time = 0


SIMPLE: convergence criteria
    field p	 tolerance 1e-08
    field U	 tolerance 1e-08
    field k	 tolerance 1e-08
    field omega	 tolerance 1e-08
    field nuTilda	 tolerance 1e-08

Reading field p

Reading field U

Reading/calculating face flux field phi

Selecting incompressible transport model Newtonian
Selecting turbulence model type RAS
Selecting RAS turbulence model SpalartAllmaras
Selecting patchDistMethod meshWave
ft2 term: inactive
RAS
{
    RASModel        SpalartAllmaras;
    turbulence      on;
    printCoeffs     on;
    sigmaNut        0.66666;
    kappa           0.41;
    Cb1             0.1355;
    Cb2             0.622;
    Cw2             0.3;
    Cw3             2;
    Cv1             7.1;
    Cs              0.3;
    ck              0.07000000000000001;
    ft2             false;
    Ct3             1.2;
    Ct4             0.5;
}

No MRF models present

Creating finite volume options from "system/fvOptions"

Selecting finite volume options type velocityDampingConstraint
    Source: velocityDamping
    - selecting all cells
    - selected 12614272 cell(s) with volume 55.65166103212938

Starting time loop

--> FOAM Warning : 
    From bool Foam::functionObjectList::read()
    in file db/functionObjects/functionObjectList/functionObjectList.C at line 1035
    Reading "system/controlDict" at line 2 to 41
    Entry 'lref' is not a dictionary
--> FOAM Warning : 
    From bool Foam::functionObjectList::read()
    in file db/functionObjects/functionObjectList/functionObjectList.C at line 1035
    Reading "system/controlDict" at line 2 to 41
    Entry 'Aref' is not a dictionary
--> FOAM Warning : 
    From bool Foam::functionObjectList::read()
    in file db/functionObjects/functionObjectList/functionObjectList.C at line 1035
    Reading "system/controlDict" at line 2 to 41
    Entry 'yawAngle' is not a dictionary
--> FOAM Warning : 
    From bool Foam::functionObjectList::read()
    in file db/functionObjects/functionObjectList/functionObjectList.C at line 1035
    Reading "system/controlDict" at line 2 to 41
    Entry 'lDomain' is not a dictionary
--> FOAM Warning : 
    From bool Foam::functionObjectList::read()
    in file db/functionObjects/functionObjectList/functionObjectList.C at line 1035
    Reading "system/controlDict" at line 2 to 41
    Entry 'bDomain' is not a dictionary
--> FOAM Warning : 
    From bool Foam::functionObjectList::read()
    in file db/functionObjects/functionObjectList/functionObjectList.C at line 1035
    Reading "system/controlDict" at line 2 to 41
    Entry 'hDomain' is not a dictionary
--> FOAM Warning : 
    From bool Foam::functionObjectList::read()
    in file db/functionObjects/functionObjectList/functionObjectList.C at line 1035
    Reading "system/controlDict" at line 2 to 41
    Entry 'xCenter' is not a dictionary
--> FOAM Warning : 
    From bool Foam::functionObjectList::read()
    in file db/functionObjects/functionObjectList/functionObjectList.C at line 1035
    Reading "system/controlDict" at line 2 to 41
    Entry 'yCenter' is not a dictionary
--> FOAM Warning : 
    From bool Foam::functionObjectList::read()
    in file db/functionObjects/functionObjectList/functionObjectList.C at line 1035
    Reading "system/controlDict" at line 2 to 41
    Entry 'zCenter' is not a dictionary
--> FOAM Warning : 
    From bool Foam::functionObjectList::read()
    in file db/functionObjects/functionObjectList/functionObjectList.C at line 1035
    Reading "system/controlDict" at line 2 to 41
    Entry 'inletPatch' is not a dictionary
--> FOAM Warning : 
    From bool Foam::functionObjectList::read()
    in file db/functionObjects/functionObjectList/functionObjectList.C at line 1035
    Reading "system/controlDict" at line 2 to 41
    Entry 'outletPatch' is not a dictionary
--> FOAM Warning : 
    From bool Foam::functionObjectList::read()
    in file db/functionObjects/functionObjectList/functionObjectList.C at line 1035
    Reading "system/controlDict" at line 2 to 41
    Entry 'wallPatches' is not a dictionary
--> FOAM Warning : 
    From bool Foam::functionObjectList::read()
    in file db/functionObjects/functionObjectList/functionObjectList.C at line 1035
    Reading "system/controlDict" at line 2 to 41
    Entry 'forcesWallPatches' is not a dictionary
--> FOAM Warning : 
    From bool Foam::functionObjectList::read()
    in file db/functionObjects/functionObjectList/functionObjectList.C at line 1035
    Reading "system/controlDict" at line 2 to 41
    Entry 'symmPatches' is not a dictionary
--> FOAM Warning : 
    From bool Foam::functionObjectList::read()
    in file db/functionObjects/functionObjectList/functionObjectList.C at line 1035
    Reading "system/controlDict" at line 2 to 41
    Entry 'Uinf' is not a dictionary
--> FOAM Warning : 
    From bool Foam::functionObjectList::read()
    in file db/functionObjects/functionObjectList/functionObjectList.C at line 1035
    Reading "system/controlDict" at line 2 to 41
    Entry 'UinfMag' is not a dictionary
--> FOAM Warning : 
    From bool Foam::functionObjectList::read()
    in file db/functionObjects/functionObjectList/functionObjectList.C at line 1035
    Reading "system/controlDict" at line 2 to 41
    Entry 'nu' is not a dictionary
--> FOAM Warning : 
    From bool Foam::functionObjectList::read()
    in file db/functionObjects/functionObjectList/functionObjectList.C at line 1035
    Reading "system/controlDict" at line 2 to 41
    Entry 'pref' is not a dictionary
--> FOAM Warning : 
    From bool Foam::functionObjectList::read()
    in file db/functionObjects/functionObjectList/functionObjectList.C at line 1035
    Reading "system/controlDict" at line 2 to 41
    Entry 'viscRatio' is not a dictionary
--> FOAM Warning : 
    From bool Foam::functionObjectList::read()
    in file db/functionObjects/functionObjectList/functionObjectList.C at line 1035
    Reading "system/controlDict" at line 2 to 41
    Entry 'Tu' is not a dictionary
--> FOAM Warning : 
    From bool Foam::functionObjectList::read()
    in file db/functionObjects/functionObjectList/functionObjectList.C at line 1035
    Reading "system/controlDict" at line 2 to 41
    Entry 'LESturbModel' is not a dictionary
--> FOAM Warning : 
    From bool Foam::functionObjectList::read()
    in file db/functionObjects/functionObjectList/functionObjectList.C at line 1035
    Reading "system/controlDict" at line 2 to 41
    Entry 'RASturbModel' is not a dictionary
--> FOAM Warning : 
    From bool Foam::functionObjectList::read()
    in file db/functionObjects/functionObjectList/functionObjectList.C at line 1035
    Reading "system/controlDict" at line 2 to 41
    Entry 'deltaTurb' is not a dictionary
--> FOAM Warning : 
    From bool Foam::functionObjectList::read()
    in file db/functionObjects/functionObjectList/functionObjectList.C at line 1035
    Reading "system/controlDict" at line 2 to 41
    Entry 'dt' is not a dictionary
--> FOAM Warning : 
    From bool Foam::functionObjectList::read()
    in file db/functionObjects/functionObjectList/functionObjectList.C at line 1035
    Reading "system/controlDict" at line 2 to 41
    Entry 'tAvg' is not a dictionary
--> FOAM Warning : 
    From bool Foam::functionObjectList::read()
    in file db/functionObjects/functionObjectList/functionObjectList.C at line 1035
    Reading "system/controlDict" at line 2 to 41
    Entry 'tEnd' is not a dictionary
--> FOAM Warning : 
    From bool Foam::functionObjectList::read()
    in file db/functionObjects/functionObjectList/functionObjectList.C at line 1035
    Reading "system/controlDict" at line 2 to 41
    Entry 'writeInterval_' is not a dictionary
--> FOAM Warning : 
    From bool Foam::functionObjectList::read()
    in file db/functionObjects/functionObjectList/functionObjectList.C at line 1035
    Reading "system/controlDict" at line 2 to 41
    Entry 'nCores' is not a dictionary
--> FOAM Warning : 
    From bool Foam::functionObjectList::read()
    in file db/functionObjects/functionObjectList/functionObjectList.C at line 1035
    Reading "system/controlDict" at line 2 to 41
    Entry 'interpScheme' is not a dictionary
--> FOAM Warning : 
    From bool Foam::functionObjectList::read()
    in file db/functionObjects/functionObjectList/functionObjectList.C at line 1035
    Reading "system/controlDict" at line 2 to 41
    Entry 'probeField' is not a dictionary
wallShearStress wallShearStress:
    processing wall patches: 
        Windsor_Body
        CFDWT_Floor
        Windsor_Pins
        Windsor_Base
        Windsor_Body_2
        CFDWT_Floor_2
        Windsor_Pins_2
        Windsor_Base_2

pressure calc_cp:
    Operating mode: staticCoeff
    Not including hydrostatic effects

forceCoeffs forceCoeffsAll:
    rho: rhoInf
    Freestream density (rhoInf) set to 1
    Not including porosity effects
    magUInf: 40
    lRef   : 0.6375
    Aref   : 0.1124
    rhoInf : 1
    Selecting all coefficients
    - Drag force: Cd
    - Drag force front: Cd(f)
    - Drag force rear: Cd(r)
    - Lift force: Cl
    - Lift force front: Cl(f)
    - Lift force rear: Cl(r)
    - Pitch moment: CmPitch
    - Roll moment: CmRoll
    - Yaw moment: CmYaw
    - Side force: Cs
    - Side force front: Cs(f)
    - Side force rear: Cs(r)


forceCoeffs dragCoeffBase:
    rho: rhoInf
    Freestream density (rhoInf) set to 1
    Not including porosity effects
    magUInf: 40
    lRef   : 0.6375
    Aref   : 0.1124
    rhoInf : 1
    Selecting coefficients:
    - Drag force: Cd


Time = 1

velocityDampingConstraint velocityDamping damped 0 (0%) of cells, with max limit 300
[OGL LOG][lduLduBase.H:119] Initialising OGL
	OGL commit:  e75313f+
	Branch: dev 
	Build type: Debug
	Ginkgo version: 1.8.0 ( develop)
	Ginkgo commit: sparse-communicator
	MPI is GPU aware: 1
	Forces host buffer based communication: 0
	CPU ranks per GPU: 1
	Matrix format: Coo
	End OGL_INFO
[OGL LOG][Proc: 0]: global_index_init: 11.555 [ms]
[OGL LOG][Proc: 0]Ux_local_cols: call_init: 0.304 [ms]
[OGL LOG][Proc: 0]Ux_local_rows: call_init: 0.023 [ms]
[OGL LOG][Proc: 0]Ux_local_ldu_map: call_init: 0.019 [ms]
[OGL LOG][Proc: 0]Ux_local_coeffs: call_init: 3.322 [ms]
[OGL LOG][Proc: 0]Ux_non_local_cols: call_init: 0.038 [ms]
[OGL LOG][Proc: 0]Ux_non_local_rows: call_init: 0.008 [ms]
[OGL LOG][Proc: 0]Ux_non_local_ldu_map: call_init: 0.007 [ms]
[OGL LOG][Proc: 0]Ux_non_local_coeffs: call_init: 0.022 [ms]
[OGL LOG][Proc: 0]Ux: init_local_sparsity_pattern: 28443.588 [ms]
[OGL LOG][Proc: 0]Ux: init_non_local_sparsity_pattern: 999.881 [ms]
[OGL LOG][Proc: 0]Ux: update_local_matrix_data: 77.43899999999999 [ms]
[OGL LOG][Proc: 0]Ux: update_non_local_matrix_data: 0.434 [ms]
[OGL LOG][Proc: 0]device_partition: call_init: 1.915 [ms]
[OGL LOG][Proc: 0]Ux_matrix: call_init: 83.526 [ms]
[OGL LOG][Proc: 0]Ux_rhs: call_init: 1.666 [ms]
[OGL LOG][Proc: 0]Ux_solution: call_init: 1.603 [ms]
[OGL LOG][Preconditioner.H:121] Generate preconditioner BJ MaxBlockSize 1
[OGL LOG][Proc: 0]Ux: init_precond: 10.391 [ms]
[OGL LOG][StoppingCriterion.H:239] Creating stopping criterion with minIter 0 frequency 1
[OGL LOG][Proc: 0]Ux: generate_solver: 0.402 [ms]
[OGL LOG][Proc: 0]Ux: solve: 134.547 [ms]
[OGL LOG][Proc: 0]Ux: copy_x_back: 2.565 [ms]
[OGL LOG][lduLduBase.H:330] 
Statistics:
	Time per iteration: 19221 [mu s]
	Time per residual norm calculation: 2862.000000 [mu s]
	Time per iteration and DOF: 1.523750 [ns]
	Retrieve results bandwidth 3.284000 [GByte/s]
[OGL LOG][Proc: 0]Ux: solve_multi_gpu: 1399.633 [ms]
BJcudaGKOBiCGStab:  Solving for Ux, Initial residual = 1.000000000000554, Final residual = 0.04568475506369041, No Iterations 7
[OGL LOG][lduLduBase.H:119] Initialising OGL
	OGL commit:  e75313f+
	Branch: dev 
	Build type: Debug
	Ginkgo version: 1.8.0 ( develop)
	Ginkgo commit: sparse-communicator
	MPI is GPU aware: 1
	Forces host buffer based communication: 0
	CPU ranks per GPU: 1
	Matrix format: Coo
	End OGL_INFO
[OGL LOG][Proc: 0]: global_index_init: 1.433 [ms]
[OGL LOG][Proc: 0]Uy_local_cols: call_init: 0.034 [ms]
[OGL LOG][Proc: 0]Uy_local_rows: call_init: 0.008999999999999999 [ms]
[OGL LOG][Proc: 0]Uy_local_ldu_map: call_init: 0.022 [ms]
[OGL LOG][Proc: 0]Uy_local_coeffs: call_init: 0.602 [ms]
[OGL LOG][Proc: 0]Uy_non_local_cols: call_init: 0.012 [ms]
[OGL LOG][Proc: 0]Uy_non_local_rows: call_init: 0.006 [ms]
[OGL LOG][Proc: 0]Uy_non_local_ldu_map: call_init: 0.005 [ms]
[OGL LOG][Proc: 0]Uy_non_local_coeffs: call_init: 0.008999999999999999 [ms]
[OGL LOG][Proc: 0]Uy: init_local_sparsity_pattern: 28439.16 [ms]
[OGL LOG][Proc: 0]Uy: init_non_local_sparsity_pattern: 999.386 [ms]
[OGL LOG][Proc: 0]Uy: update_local_matrix_data: 41.723 [ms]
[OGL LOG][Proc: 0]Uy: update_non_local_matrix_data: 0.39 [ms]
[OGL LOG][Proc: 0]Uy_matrix: call_init: 93.51300000000001 [ms]
[OGL LOG][Proc: 0]Uy_rhs: call_init: 2.624 [ms]
[OGL LOG][Proc: 0]Uy_solution: call_init: 4.083 [ms]
[OGL LOG][Preconditioner.H:121] Generate preconditioner BJ MaxBlockSize 1
[OGL LOG][Proc: 0]Uy: init_precond: 1.488 [ms]
[OGL LOG][StoppingCriterion.H:239] Creating stopping criterion with minIter 0 frequency 1
[OGL LOG][Proc: 0]Uy: generate_solver: 0.028 [ms]
[OGL LOG][Proc: 0]Uy: solve: 150.75 [ms]
[OGL LOG][Proc: 0]Uy: copy_x_back: 2.407 [ms]
[OGL LOG][lduLduBase.H:330] 
Statistics:
	Time per iteration: 15075 [mu s]
	Time per residual norm calculation: 1816.000000 [mu s]
	Time per iteration and DOF: 1.195075 [ns]
	Retrieve results bandwidth 3.500000 [GByte/s]
[OGL LOG][Proc: 0]Uy: solve_multi_gpu: 1420.991 [ms]
BJcudaGKOBiCGStab:  Solving for Uy, Initial residual = 1.000000000000028, Final residual = 0.07725065440290978, No Iterations 10
[OGL LOG][lduLduBase.H:119] Initialising OGL
	OGL commit:  e75313f+
	Branch: dev 
	Build type: Debug
	Ginkgo version: 1.8.0 ( develop)
	Ginkgo commit: sparse-communicator
	MPI is GPU aware: 1
	Forces host buffer based communication: 0
	CPU ranks per GPU: 1
	Matrix format: Coo
	End OGL_INFO
[OGL LOG][Proc: 0]: global_index_init: 1.516 [ms]
[OGL LOG][Proc: 0]Uz_local_cols: call_init: 0.894 [ms]
[OGL LOG][Proc: 0]Uz_local_rows: call_init: 0.502 [ms]
[OGL LOG][Proc: 0]Uz_local_ldu_map: call_init: 0.228 [ms]
[OGL LOG][Proc: 0]Uz_local_coeffs: call_init: 0.827 [ms]
[OGL LOG][Proc: 0]Uz_non_local_cols: call_init: 0.294 [ms]
[OGL LOG][Proc: 0]Uz_non_local_rows: call_init: 0.204 [ms]
[OGL LOG][Proc: 0]Uz_non_local_ldu_map: call_init: 0.202 [ms]
[OGL LOG][Proc: 0]Uz_non_local_coeffs: call_init: 0.182 [ms]
[OGL LOG][Proc: 0]Uz: init_local_sparsity_pattern: 28432.687 [ms]
[OGL LOG][Proc: 0]Uz: init_non_local_sparsity_pattern: 1012.989 [ms]
[OGL LOG][Proc: 0]Uz: update_local_matrix_data: 41.632 [ms]
[OGL LOG][Proc: 0]Uz: update_non_local_matrix_data: 0.337 [ms]
[OGL LOG][Proc: 0]Uz_matrix: call_init: 91.345 [ms]
[OGL LOG][Proc: 0]Uz_rhs: call_init: 4.324 [ms]
[OGL LOG][Proc: 0]Uz_solution: call_init: 4.265 [ms]
[OGL LOG][Preconditioner.H:121] Generate preconditioner BJ MaxBlockSize 1
[OGL LOG][Proc: 0]Uz: init_precond: 1.436 [ms]
[OGL LOG][StoppingCriterion.H:239] Creating stopping criterion with minIter 0 frequency 1
[OGL LOG][Proc: 0]Uz: generate_solver: 0.024 [ms]
[OGL LOG][Proc: 0]Uz: solve: 66.181 [ms]
[OGL LOG][Proc: 0]Uz: copy_x_back: 2.525 [ms]
[OGL LOG][lduLduBase.H:330] 
Statistics:
	Time per iteration: 66181 [mu s]
	Time per residual norm calculation: 1465.000000 [mu s]
	Time per iteration and DOF: 5.246518 [ns]
	Retrieve results bandwidth 3.337000 [GByte/s]
[OGL LOG][Proc: 0]Uz: solve_multi_gpu: 1330.687 [ms]
BJcudaGKOBiCGStab:  Solving for Uz, Initial residual = 1.000000000000007, Final residual = 0.07317246117889444, No Iterations 1
[OGL LOG][lduLduBase.H:119] Initialising OGL
	OGL commit:  e75313f+
	Branch: dev 
	Build type: Debug
	Ginkgo version: 1.8.0 ( develop)
	Ginkgo commit: sparse-communicator
	MPI is GPU aware: 1
	Forces host buffer based communication: 0
	CPU ranks per GPU: 1
	Matrix format: Coo
	End OGL_INFO
[OGL LOG][Proc: 0]: global_index_init: 0.287 [ms]
[OGL LOG][Proc: 0]p_local_cols: call_init: 0.274 [ms]
[OGL LOG][Proc: 0]p_local_rows: call_init: 0.446 [ms]
[OGL LOG][Proc: 0]p_local_ldu_map: call_init: 0.394 [ms]
[OGL LOG][Proc: 0]p_local_coeffs: call_init: 0.993 [ms]
[OGL LOG][Proc: 0]p_non_local_cols: call_init: 0.294 [ms]
[OGL LOG][Proc: 0]p_non_local_rows: call_init: 0.112 [ms]
[OGL LOG][Proc: 0]p_non_local_ldu_map: call_init: 0.476 [ms]
[OGL LOG][Proc: 0]p_non_local_coeffs: call_init: 0.233 [ms]
[OGL LOG][Proc: 0]p: init_local_sparsity_pattern: 28398.08 [ms]
[OGL LOG][Proc: 0]p: init_non_local_sparsity_pattern: 1112.47 [ms]
[OGL LOG][Proc: 0]p: update_local_matrix_data: 30.411 [ms]
[OGL LOG][Proc: 0]p: update_non_local_matrix_data: 0.384 [ms]
[OGL LOG][Proc: 0]p_matrix: call_init: 103.456 [ms]
[OGL LOG][Proc: 0]p_rhs: call_init: 1.012 [ms]
[OGL LOG][Proc: 0]p_solution: call_init: 2.343 [ms]
[OGL LOG][Preconditioner.H:121] Generate preconditioner BJ MaxBlockSize 1
[OGL LOG][Proc: 0]p: init_precond: 3.919 [ms]
[OGL LOG][StoppingCriterion.H:239] Creating stopping criterion with minIter 0 frequency 1
[OGL LOG][Proc: 0]p: generate_solver: 0.08500000000000001 [ms]
[OGL LOG][Proc: 0]p: solve: 4583.207 [ms]
[OGL LOG][Proc: 0]p: copy_x_back: 2.837 [ms]
[OGL LOG][lduLduBase.H:330] 
Statistics:
	Time per iteration: 3828 [mu s]
	Time per residual norm calculation: 1433.000000 [mu s]
	Time per iteration and DOF: 0.303466 [ns]
	Retrieve results bandwidth 2.970000 [GByte/s]
[OGL LOG][Proc: 0]p: solve_multi_gpu: 5934.393 [ms]
BJcudaGKOCG:  Solving for p, Initial residual = 1.000000000000775, Final residual = 0.009831415897931248, No Iterations 1197
time step continuity errors : sum local = 0.003562483168094918, global = 6.957911795199739e-05, cumulative = 6.957911795199739e-05
[OGL LOG][lduLduBase.H:119] Initialising OGL
	OGL commit:  e75313f+
	Branch: dev 
	Build type: Debug
	Ginkgo version: 1.8.0 ( develop)
	Ginkgo commit: sparse-communicator
	MPI is GPU aware: 1
	Forces host buffer based communication: 0
	CPU ranks per GPU: 1
	Matrix format: Coo
	End OGL_INFO
[OGL LOG][Proc: 0]: global_index_init: 0.679 [ms]
[OGL LOG][Proc: 0]nuTilda_local_cols: call_init: 0.026 [ms]
[OGL LOG][Proc: 0]nuTilda_local_rows: call_init: 0.017 [ms]
[OGL LOG][Proc: 0]nuTilda_local_ldu_map: call_init: 0.026 [ms]
[OGL LOG][Proc: 0]nuTilda_local_coeffs: call_init: 0.642 [ms]
[OGL LOG][Proc: 0]nuTilda_non_local_cols: call_init: 0.028 [ms]
[OGL LOG][Proc: 0]nuTilda_non_local_rows: call_init: 0.018 [ms]
[OGL LOG][Proc: 0]nuTilda_non_local_ldu_map: call_init: 0.015 [ms]
[OGL LOG][Proc: 0]nuTilda_non_local_coeffs: call_init: 0.025 [ms]
[OGL LOG][Proc: 0]nuTilda: init_local_sparsity_pattern: 28593.537 [ms]
[OGL LOG][Proc: 0]nuTilda: init_non_local_sparsity_pattern: 863.9400000000001 [ms]
[OGL LOG][Proc: 0]nuTilda: update_local_matrix_data: 38.383 [ms]
[OGL LOG][Proc: 0]nuTilda: update_non_local_matrix_data: 0.399 [ms]
[OGL LOG][Proc: 0]nuTilda_matrix: call_init: 100.07 [ms]
[OGL LOG][Proc: 0]nuTilda_rhs: call_init: 1.66 [ms]
[OGL LOG][Proc: 0]nuTilda_solution: call_init: 1.583 [ms]
[OGL LOG][Preconditioner.H:121] Generate preconditioner BJ MaxBlockSize 1
[OGL LOG][Proc: 0]nuTilda: init_precond: 1.373 [ms]
[OGL LOG][StoppingCriterion.H:239] Creating stopping criterion with minIter 0 frequency 1
[OGL LOG][Proc: 0]nuTilda: generate_solver: 0.031 [ms]
[OGL LOG][Proc: 0]nuTilda: solve: 79.66800000000001 [ms]
[OGL LOG][Proc: 0]nuTilda: copy_x_back: 2.397 [ms]
[OGL LOG][lduLduBase.H:330] 
Statistics:
	Time per iteration: 26556 [mu s]
	Time per residual norm calculation: 1658.000000 [mu s]
	Time per iteration and DOF: 2.105234 [ns]
	Retrieve results bandwidth 3.515000 [GByte/s]
[OGL LOG][Proc: 0]nuTilda: solve_multi_gpu: 1344.202 [ms]
BJcudaGKOBiCGStab:  Solving for nuTilda, Initial residual = 0.9999999927478631, Final residual = 0.03403362538967247, No Iterations 3
bounding nuTilda, min: -0.0003616389006739057 max: 0.001581122581846494 average: 7.146684483598174e-05
ExecutionTime = 172.85 s  ClockTime = 174 s

--> FOAM Warning : 
    From virtual bool Foam::functionObjects::fieldSelection::checkSelection()
    in file functionObjects/fieldSelections/fieldSelection/fieldSelection.C at line 166
    Field k not found
--> FOAM Warning : 
    From virtual bool Foam::functionObjects::fieldSelection::checkSelection()
    in file functionObjects/fieldSelections/fieldSelection/fieldSelection.C at line 166
    Field gammaInt not found
--> FOAM Warning : 
    From virtual bool Foam::functionObjects::fieldSelection::checkSelection()
    in file functionObjects/fieldSelections/fieldSelection/fieldSelection.C at line 166
    Field omega not found
--> FOAM Warning : 
    From virtual bool Foam::functionObjects::fieldSelection::checkSelection()
    in file functionObjects/fieldSelections/fieldSelection/fieldSelection.C at line 166
    Field ReThetat not found
--> FOAM Warning : 
    From virtual bool Foam::functionObjects::fieldSelection::checkSelection()
    in file functionObjects/fieldSelections/fieldSelection/fieldSelection.C at line 166
    Field epsilon not found
--> FOAM Warning : 
    From virtual bool Foam::functionObjects::solverFieldSelection::updateSelection()
    in file functionObjects/fieldSelections/solverFieldSelection/solverFieldSelection.C at line 85
    Valid solver fields are: 3(U nuTilda p)Time = 2

velocityDampingConstraint velocityDamping damped 0 (0%) of cells, with max limit 300
[OGL LOG][Proc: 0]: global_index_init: 0.18 [ms]
[OGL LOG][Proc: 0]Ux_local_coeffs: call_update: 0.001 [ms]
[OGL LOG][Proc: 0]Ux_non_local_coeffs: call_update: 0 [ms]
[OGL LOG][Proc: 0]Ux: update_local_matrix_data: 41.222 [ms]
[OGL LOG][Proc: 0]Ux: update_non_local_matrix_data: 0.351 [ms]
[OGL LOG][Proc: 0]Ux_matrix: call_update: 2.901 [ms]
[OGL LOG][Proc: 0]Ux_rhs: call_update: 0.976 [ms]
[OGL LOG][Preconditioner.H:121] Generate preconditioner BJ MaxBlockSize 1
[OGL LOG][Proc: 0]Ux: init_precond: 1.416 [ms]
[OGL LOG][StoppingCriterion.H:239] Creating stopping criterion with minIter 8 frequency 1
[OGL LOG][Proc: 0]Ux: generate_solver: 0.016 [ms]
[OGL LOG][Proc: 0]Ux: solve: 73.396 [ms]
[OGL LOG][Proc: 0]Ux: copy_x_back: 2.602 [ms]
[OGL LOG][lduLduBase.H:330] 
Statistics:
	Time per iteration: 18349 [mu s]
	Time per residual norm calculation: 1438.000000 [mu s]
	Time per iteration and DOF: 1.454622 [ns]
	Retrieve results bandwidth 3.238000 [GByte/s]
[OGL LOG][Proc: 0]Ux: solve_multi_gpu: 84.538 [ms]
BJcudaGKOBiCGStab:  Solving for Ux, Initial residual = 0.8165547636930272, Final residual = 0.009483451622616141, No Iterations 4
[OGL LOG][Proc: 0]: global_index_init: 0.134 [ms]
[OGL LOG][Proc: 0]Uy_local_coeffs: call_update: 0 [ms]
[OGL LOG][Proc: 0]Uy_non_local_coeffs: call_update: 0 [ms]
[OGL LOG][Proc: 0]Uy: update_local_matrix_data: 40.209 [ms]
[OGL LOG][Proc: 0]Uy: update_non_local_matrix_data: 0.35 [ms]
[OGL LOG][Proc: 0]Uy_matrix: call_update: 2.471 [ms]
[OGL LOG][Proc: 0]Uy_rhs: call_update: 3.992 [ms]
[OGL LOG][Preconditioner.H:121] Generate preconditioner BJ MaxBlockSize 1
[OGL LOG][Proc: 0]Uy: init_precond: 1.46 [ms]
[OGL LOG][StoppingCriterion.H:239] Creating stopping criterion with minIter 12 frequency 1
[OGL LOG][Proc: 0]Uy: generate_solver: 0.015 [ms]
[OGL LOG][Proc: 0]Uy: solve: 131.517 [ms]
[OGL LOG][Proc: 0]Uy: copy_x_back: 2.567 [ms]
[OGL LOG][lduLduBase.H:330] 
Statistics:
	Time per iteration: 18788 [mu s]
	Time per residual norm calculation: 1818.000000 [mu s]
	Time per iteration and DOF: 1.489424 [ns]
	Retrieve results bandwidth 3.282000 [GByte/s]
[OGL LOG][Proc: 0]Uy: solve_multi_gpu: 151.168 [ms]
BJcudaGKOBiCGStab:  Solving for Uy, Initial residual = 0.999362438162041, Final residual = 0.002347884664865596, No Iterations 7
[OGL LOG][Proc: 0]: global_index_init: 8.586 [ms]
[OGL LOG][Proc: 0]Uz_local_coeffs: call_update: 0 [ms]
[OGL LOG][Proc: 0]Uz_non_local_coeffs: call_update: 0 [ms]
[OGL LOG][Proc: 0]Uz: update_local_matrix_data: 40.443 [ms]
[OGL LOG][Proc: 0]Uz: update_non_local_matrix_data: 0.339 [ms]
[OGL LOG][Proc: 0]Uz_matrix: call_update: 2.47 [ms]
[OGL LOG][Proc: 0]Uz_rhs: call_update: 1.465 [ms]
[OGL LOG][Preconditioner.H:121] Generate preconditioner BJ MaxBlockSize 1
[OGL LOG][Proc: 0]Uz: init_precond: 1.389 [ms]
[OGL LOG][StoppingCriterion.H:239] Creating stopping criterion with minIter 1 frequency 1
[OGL LOG][Proc: 0]Uz: generate_solver: 0.015 [ms]
[OGL LOG][Proc: 0]Uz: solve: 78.99299999999999 [ms]
[OGL LOG][Proc: 0]Uz: copy_x_back: 2.533 [ms]
[OGL LOG][lduLduBase.H:330] 
Statistics:
	Time per iteration: 39496 [mu s]
	Time per residual norm calculation: 1275.000000 [mu s]
	Time per iteration and DOF: 3.131057 [ns]
	Retrieve results bandwidth 3.326000 [GByte/s]
[OGL LOG][Proc: 0]Uz: solve_multi_gpu: 99.181 [ms]
BJcudaGKOBiCGStab:  Solving for Uz, Initial residual = 0.9999962417348175, Final residual = 0.09491172546173753, No Iterations 2
[OGL LOG][Proc: 0]: global_index_init: 0.07099999999999999 [ms]
[OGL LOG][Proc: 0]p_local_coeffs: call_update: 0 [ms]
[OGL LOG][Proc: 0]p_non_local_coeffs: call_update: 0 [ms]
[OGL LOG][Proc: 0]p: update_local_matrix_data: 31.882 [ms]
[OGL LOG][Proc: 0]p: update_non_local_matrix_data: 0.342 [ms]
[OGL LOG][Proc: 0]p_matrix: call_update: 2.334 [ms]
[OGL LOG][Proc: 0]p_rhs: call_update: 2.708 [ms]
[OGL LOG][Preconditioner.H:121] Generate preconditioner BJ MaxBlockSize 1
[OGL LOG][Proc: 0]p: init_precond: 1.301 [ms]
[OGL LOG][StoppingCriterion.H:239] Creating stopping criterion with minIter 718 frequency 15
[OGL LOG][Proc: 0]p: generate_solver: 0.014 [ms]
[OGL LOG][Proc: 0]p: solve: 2302.506 [ms]
[OGL LOG][Proc: 0]p: copy_x_back: 2.741 [ms]
[OGL LOG][lduLduBase.H:330] 
Statistics:
	Time per iteration: 2513 [mu s]
	Time per residual norm calculation: 1279.000000 [mu s]
	Time per iteration and DOF: 0.199219 [ns]
	Retrieve results bandwidth 3.074000 [GByte/s]
[OGL LOG][Proc: 0]p: solve_multi_gpu: 2317.995 [ms]
BJcudaGKOCG:  Solving for p, Initial residual = 0.4280240322338127, Final residual = 0.004134061080667911, No Iterations 916
time step continuity errors : sum local = 0.0896713102294671, global = 0.004697879342406891, cumulative = 0.004767458460358889
[OGL LOG][Proc: 0]: global_index_init: 0.021 [ms]
[OGL LOG][Proc: 0]nuTilda_local_coeffs: call_update: 0 [ms]
[OGL LOG][Proc: 0]nuTilda_non_local_coeffs: call_update: 0 [ms]
[OGL LOG][Proc: 0]nuTilda: update_local_matrix_data: 39.235 [ms]
[OGL LOG][Proc: 0]nuTilda: update_non_local_matrix_data: 0.357 [ms]
[OGL LOG][Proc: 0]nuTilda_matrix: call_update: 2.346 [ms]
[OGL LOG][Proc: 0]nuTilda_rhs: call_update: 1.319 [ms]
[OGL LOG][Preconditioner.H:121] Generate preconditioner BJ MaxBlockSize 1
[OGL LOG][Proc: 0]nuTilda: init_precond: 1.276 [ms]
[OGL LOG][StoppingCriterion.H:239] Creating stopping criterion with minIter 3 frequency 1
[OGL LOG][Proc: 0]nuTilda: generate_solver: 0.014 [ms]
[OGL LOG][Proc: 0]nuTilda: solve: 57.564 [ms]
[OGL LOG][Proc: 0]nuTilda: copy_x_back: 2.742 [ms]
[OGL LOG][lduLduBase.H:330] 
Statistics:
	Time per iteration: 28782 [mu s]
	Time per residual norm calculation: 984.000000 [mu s]
	Time per iteration and DOF: 2.281701 [ns]
	Retrieve results bandwidth 3.072000 [GByte/s]
[OGL LOG][Proc: 0]nuTilda: solve_multi_gpu: 74.73399999999999 [ms]
BJcudaGKOBiCGStab:  Solving for nuTilda, Initial residual = 0.2490234476859655, Final residual = 0.01684347177836978, No Iterations 2
ExecutionTime = 179.4 s  ClockTime = 180 s

Time = 3

velocityDampingConstraint velocityDamping damped 9736 (0.08%) of cells, with max limit 300
[OGL LOG][Proc: 0]: global_index_init: 0.058 [ms]
[OGL LOG][Proc: 0]Ux_local_coeffs: call_update: 0 [ms]
[OGL LOG][Proc: 0]Ux_non_local_coeffs: call_update: 0 [ms]
[OGL LOG][Proc: 0]Ux: update_local_matrix_data: 39.969 [ms]
[OGL LOG][Proc: 0]Ux: update_non_local_matrix_data: 0.32 [ms]
[OGL LOG][Proc: 0]Ux_matrix: call_update: 1.594 [ms]
[OGL LOG][Proc: 0]Ux_rhs: call_update: 2.468 [ms]
[OGL LOG][Preconditioner.H:121] Generate preconditioner BJ MaxBlockSize 1
[OGL LOG][Proc: 0]Ux: init_precond: 1.586 [ms]
[OGL LOG][StoppingCriterion.H:239] Creating stopping criterion with minIter 5 frequency 1
[OGL LOG][Proc: 0]Ux: generate_solver: 0.018 [ms]
[OGL LOG][Proc: 0]Ux: solve: 63.008 [ms]
[OGL LOG][Proc: 0]Ux: copy_x_back: 2.531 [ms]
[OGL LOG][lduLduBase.H:330] 
Statistics:
	Time per iteration: 21002 [mu s]
	Time per residual norm calculation: 1672.000000 [mu s]
	Time per iteration and DOF: 1.664940 [ns]
	Retrieve results bandwidth 3.329000 [GByte/s]
[OGL LOG][Proc: 0]Ux: solve_multi_gpu: 76.209 [ms]
BJcudaGKOBiCGStab:  Solving for Ux, Initial residual = 0.2852727655375549, Final residual = 0.004782144590700524, No Iterations 3
[OGL LOG][Proc: 0]: global_index_init: 0.06 [ms]
[OGL LOG][Proc: 0]Uy_local_coeffs: call_update: 0 [ms]
[OGL LOG][Proc: 0]Uy_non_local_coeffs: call_update: 0 [ms]
[OGL LOG][Proc: 0]Uy: update_local_matrix_data: 39.534 [ms]
[OGL LOG][Proc: 0]Uy: update_non_local_matrix_data: 0.314 [ms]
[OGL LOG][Proc: 0]Uy_matrix: call_update: 2.923 [ms]
[OGL LOG][Proc: 0]Uy_rhs: call_update: 1.133 [ms]
[OGL LOG][Preconditioner.H:121] Generate preconditioner BJ MaxBlockSize 1
[OGL LOG][Proc: 0]Uy: init_precond: 1.364 [ms]
[OGL LOG][StoppingCriterion.H:239] Creating stopping criterion with minIter 8 frequency 1
[OGL LOG][Proc: 0]Uy: generate_solver: 0.017 [ms]
[OGL LOG][Proc: 0]Uy: solve: 72.863 [ms]
[OGL LOG][Proc: 0]Uy: copy_x_back: 2.37 [ms]
[OGL LOG][lduLduBase.H:330] 
Statistics:
	Time per iteration: 18215 [mu s]
	Time per residual norm calculation: 1622.000000 [mu s]
	Time per iteration and DOF: 1.443999 [ns]
	Retrieve results bandwidth 3.555000 [GByte/s]
[OGL LOG][Proc: 0]Uy: solve_multi_gpu: 85.17700000000001 [ms]
BJcudaGKOBiCGStab:  Solving for Uy, Initial residual = 0.2970805596087432, Final residual = 0.007472889434192965, No Iterations 4
[OGL LOG][Proc: 0]: global_index_init: 0.074 [ms]
[OGL LOG][Proc: 0]Uz_local_coeffs: call_update: 0 [ms]
[OGL LOG][Proc: 0]Uz_non_local_coeffs: call_update: 0 [ms]
[OGL LOG][Proc: 0]Uz: update_local_matrix_data: 39.611 [ms]
[OGL LOG][Proc: 0]Uz: update_non_local_matrix_data: 0.356 [ms]
[OGL LOG][Proc: 0]Uz_matrix: call_update: 2.198 [ms]
[OGL LOG][Proc: 0]Uz_rhs: call_update: 1.375 [ms]
[OGL LOG][Preconditioner.H:121] Generate preconditioner BJ MaxBlockSize 1
[OGL LOG][Proc: 0]Uz: init_precond: 1.404 [ms]
[OGL LOG][StoppingCriterion.H:239] Creating stopping criterion with minIter 2 frequency 1
[OGL LOG][Proc: 0]Uz: generate_solver: 0.015 [ms]
[OGL LOG][Proc: 0]Uz: solve: 66.179 [ms]
[OGL LOG][Proc: 0]Uz: copy_x_back: 2.673 [ms]
[OGL LOG][lduLduBase.H:330] 
Statistics:
	Time per iteration: 22059 [mu s]
	Time per residual norm calculation: 1562.000000 [mu s]
	Time per iteration and DOF: 1.748733 [ns]
	Retrieve results bandwidth 3.152000 [GByte/s]
[OGL LOG][Proc: 0]Uz: solve_multi_gpu: 79.70399999999999 [ms]
BJcudaGKOBiCGStab:  Solving for Uz, Initial residual = 0.2533213817121915, Final residual = 0.01564760726883738, No Iterations 3
[OGL LOG][Proc: 0]: global_index_init: 0.018 [ms]
[OGL LOG][Proc: 0]p_local_coeffs: call_update: 0 [ms]
[OGL LOG][Proc: 0]p_non_local_coeffs: call_update: 0 [ms]
[OGL LOG][Proc: 0]p: update_local_matrix_data: 30.308 [ms]
[OGL LOG][Proc: 0]p: update_non_local_matrix_data: 0.323 [ms]
[OGL LOG][Proc: 0]p_matrix: call_update: 2.07 [ms]
[OGL LOG][Proc: 0]p_rhs: call_update: 7.683 [ms]
[OGL LOG][Preconditioner.H:121] Generate preconditioner BJ MaxBlockSize 1
[OGL LOG][Proc: 0]p: init_precond: 1.303 [ms]
[OGL LOG][StoppingCriterion.H:239] Creating stopping criterion with minIter 549 frequency 19
[OGL LOG][Proc: 0]p: generate_solver: 0.015 [ms]
[OGL LOG][Proc: 0]p: solve: 2561.342 [ms]
[OGL LOG][Proc: 0]p: copy_x_back: 2.812 [ms]
[OGL LOG][lduLduBase.H:330] 
Statistics:
	Time per iteration: 2494 [mu s]
	Time per residual norm calculation: 982.000000 [mu s]
	Time per iteration and DOF: 0.197713 [ns]
	Retrieve results bandwidth 2.996000 [GByte/s]
[OGL LOG][Proc: 0]p: solve_multi_gpu: 2582.686 [ms]
BJcudaGKOCG:  Solving for p, Initial residual = 0.2906149785965357, Final residual = 0.002851739173922259, No Iterations 1027
time step continuity errors : sum local = 0.02331671854872027, global = -0.0001658682786667102, cumulative = 0.004601590181692179
[OGL LOG][Proc: 0]: global_index_init: 0.024 [ms]
[OGL LOG][Proc: 0]nuTilda_local_coeffs: call_update: 0 [ms]
[OGL LOG][Proc: 0]nuTilda_non_local_coeffs: call_update: 0 [ms]
[OGL LOG][Proc: 0]nuTilda: update_local_matrix_data: 39.917 [ms]
[OGL LOG][Proc: 0]nuTilda: update_non_local_matrix_data: 0.308 [ms]
[OGL LOG][Proc: 0]nuTilda_matrix: call_update: 1.983 [ms]
[OGL LOG][Proc: 0]nuTilda_rhs: call_update: 1.97 [ms]
[OGL LOG][Preconditioner.H:121] Generate preconditioner BJ MaxBlockSize 1
[OGL LOG][Proc: 0]nuTilda: init_precond: 1.341 [ms]
[OGL LOG][StoppingCriterion.H:239] Creating stopping criterion with minIter 3 frequency 1
[OGL LOG][Proc: 0]nuTilda: generate_solver: 0.016 [ms]
[OGL LOG][Proc: 0]nuTilda: solve: 53.786 [ms]
[OGL LOG][Proc: 0]nuTilda: copy_x_back: 2.69 [ms]
[OGL LOG][lduLduBase.H:330] 
Statistics:
	Time per iteration: 26893 [mu s]
	Time per residual norm calculation: 1313.000000 [mu s]
	Time per iteration and DOF: 2.131950 [ns]
	Retrieve results bandwidth 3.132000 [GByte/s]
[OGL LOG][Proc: 0]nuTilda: solve_multi_gpu: 65.706 [ms]
BJcudaGKOBiCGStab:  Solving for nuTilda, Initial residual = 0.2241506909736818, Final residual = 0.01282184147395576, No Iterations 2
ExecutionTime = 186.11 s  ClockTime = 187 s

Time = 4

velocityDampingConstraint velocityDamping damped 228 (0%) of cells, with max limit 300
[OGL LOG][Proc: 0]: global_index_init: 0.133 [ms]
[OGL LOG][Proc: 0]Ux_local_coeffs: call_update: 0 [ms]
[OGL LOG][Proc: 0]Ux_non_local_coeffs: call_update: 0 [ms]
[OGL LOG][Proc: 0]Ux: update_local_matrix_data: 39.689 [ms]
[OGL LOG][Proc: 0]Ux: update_non_local_matrix_data: 0.304 [ms]
[OGL LOG][Proc: 0]Ux_matrix: call_update: 1.553 [ms]
[OGL LOG][Proc: 0]Ux_rhs: call_update: 2.357 [ms]
[OGL LOG][Preconditioner.H:121] Generate preconditioner BJ MaxBlockSize 1
[OGL LOG][Proc: 0]Ux: init_precond: 1.587 [ms]
[OGL LOG][StoppingCriterion.H:239] Creating stopping criterion with minIter 3 frequency 1
[OGL LOG][Proc: 0]Ux: generate_solver: 0.015 [ms]
[OGL LOG][Proc: 0]Ux: solve: 71.411 [ms]
[OGL LOG][Proc: 0]Ux: copy_x_back: 2.572 [ms]
[OGL LOG][lduLduBase.H:330] 
Statistics:
	Time per iteration: 23803 [mu s]
	Time per residual norm calculation: 1246.000000 [mu s]
	Time per iteration and DOF: 1.886990 [ns]
	Retrieve results bandwidth 3.276000 [GByte/s]
[OGL LOG][Proc: 0]Ux: solve_multi_gpu: 83.593 [ms]
BJcudaGKOBiCGStab:  Solving for Ux, Initial residual = 0.04742949481490683, Final residual = 0.004699870099610678, No Iterations 3
[OGL LOG][Proc: 0]: global_index_init: 0.049 [ms]
[OGL LOG][Proc: 0]Uy_local_coeffs: call_update: 0 [ms]
[OGL LOG][Proc: 0]Uy_non_local_coeffs: call_update: 0 [ms]
[OGL LOG][Proc: 0]Uy: update_local_matrix_data: 39.701 [ms]
[OGL LOG][Proc: 0]Uy: update_non_local_matrix_data: 0.305 [ms]
[OGL LOG][Proc: 0]Uy_matrix: call_update: 2.734 [ms]
[OGL LOG][Proc: 0]Uy_rhs: call_update: 1.102 [ms]
[OGL LOG][Preconditioner.H:121] Generate preconditioner BJ MaxBlockSize 1
[OGL LOG][Proc: 0]Uy: init_precond: 1.413 [ms]
[OGL LOG][StoppingCriterion.H:239] Creating stopping criterion with minIter 5 frequency 1
[OGL LOG][Proc: 0]Uy: generate_solver: 0.016 [ms]
[OGL LOG][Proc: 0]Uy: solve: 71.88500000000001 [ms]
[OGL LOG][Proc: 0]Uy: copy_x_back: 2.415 [ms]
[OGL LOG][lduLduBase.H:330] 
Statistics:
	Time per iteration: 17971 [mu s]
	Time per residual norm calculation: 1641.000000 [mu s]
	Time per iteration and DOF: 1.424656 [ns]
	Retrieve results bandwidth 3.489000 [GByte/s]
[OGL LOG][Proc: 0]Uy: solve_multi_gpu: 83.931 [ms]
BJcudaGKOBiCGStab:  Solving for Uy, Initial residual = 0.1265143854489681, Final residual = 0.006498496604487561, No Iterations 4
[OGL LOG][Proc: 0]: global_index_init: 0.055 [ms]
[OGL LOG][Proc: 0]Uz_local_coeffs: call_update: 0 [ms]
[OGL LOG][Proc: 0]Uz_non_local_coeffs: call_update: 0 [ms]
[OGL LOG][Proc: 0]Uz: update_local_matrix_data: 39.418 [ms]
[OGL LOG][Proc: 0]Uz: update_non_local_matrix_data: 0.342 [ms]
[OGL LOG][Proc: 0]Uz_matrix: call_update: 2.336 [ms]
[OGL LOG][Proc: 0]Uz_rhs: call_update: 1.191 [ms]
[OGL LOG][Preconditioner.H:121] Generate preconditioner BJ MaxBlockSize 1
[OGL LOG][Proc: 0]Uz: init_precond: 1.312 [ms]
[OGL LOG][StoppingCriterion.H:239] Creating stopping criterion with minIter 3 frequency 1
[OGL LOG][Proc: 0]Uz: generate_solver: 0.017 [ms]
[OGL LOG][Proc: 0]Uz: solve: 61.087 [ms]
[OGL LOG][Proc: 0]Uz: copy_x_back: 2.652 [ms]
[OGL LOG][lduLduBase.H:330] 
Statistics:
	Time per iteration: 20362 [mu s]
	Time per residual norm calculation: 1007.000000 [mu s]
	Time per iteration and DOF: 1.614203 [ns]
	Retrieve results bandwidth 3.177000 [GByte/s]
[OGL LOG][Proc: 0]Uz: solve_multi_gpu: 73.33 [ms]
BJcudaGKOBiCGStab:  Solving for Uz, Initial residual = 0.1072402154258528, Final residual = 0.01023299988014767, No Iterations 3
[OGL LOG][Proc: 0]: global_index_init: 0.077 [ms]
[OGL LOG][Proc: 0]p_local_coeffs: call_update: 0 [ms]
[OGL LOG][Proc: 0]p_non_local_coeffs: call_update: 0 [ms]
[OGL LOG][Proc: 0]p: update_local_matrix_data: 30.947 [ms]
[OGL LOG][Proc: 0]p: update_non_local_matrix_data: 0.307 [ms]
[OGL LOG][Proc: 0]p_matrix: call_update: 2.213 [ms]
[OGL LOG][Proc: 0]p_rhs: call_update: 1.016 [ms]
[OGL LOG][Preconditioner.H:121] Generate preconditioner BJ MaxBlockSize 1
[OGL LOG][Proc: 0]p: init_precond: 1.299 [ms]
[OGL LOG][StoppingCriterion.H:239] Creating stopping criterion with minIter 616 frequency 14
[OGL LOG][Proc: 0]p: generate_solver: 0.015 [ms]
[OGL LOG][Proc: 0]p: solve: 1525.343 [ms]
[OGL LOG][Proc: 0]p: copy_x_back: 2.702 [ms]
[OGL LOG][lduLduBase.H:330] 
Statistics:
	Time per iteration: 2472 [mu s]
	Time per residual norm calculation: 1287.000000 [mu s]
	Time per iteration and DOF: 0.195969 [ns]
	Retrieve results bandwidth 3.118000 [GByte/s]
[OGL LOG][Proc: 0]p: solve_multi_gpu: 1537.018 [ms]
BJcudaGKOCG:  Solving for p, Initial residual = 0.6070226502723849, Final residual = 0.001381930662601806, No Iterations 617
time step continuity errors : sum local = 0.03044152344884697, global = -0.001729125210046367, cumulative = 0.002872464971645812
[OGL LOG][Proc: 0]: global_index_init: 0.019 [ms]
[OGL LOG][Proc: 0]nuTilda_local_coeffs: call_update: 0 [ms]
[OGL LOG][Proc: 0]nuTilda_non_local_coeffs: call_update: 0 [ms]
[OGL LOG][Proc: 0]nuTilda: update_local_matrix_data: 38.768 [ms]
[OGL LOG][Proc: 0]nuTilda: update_non_local_matrix_data: 0.347 [ms]
[OGL LOG][Proc: 0]nuTilda_matrix: call_update: 2.134 [ms]
[OGL LOG][Proc: 0]nuTilda_rhs: call_update: 1.123 [ms]
[OGL LOG][Preconditioner.H:121] Generate preconditioner BJ MaxBlockSize 1
[OGL LOG][Proc: 0]nuTilda: init_precond: 1.523 [ms]
[OGL LOG][StoppingCriterion.H:239] Creating stopping criterion with minIter 2 frequency 1
[OGL LOG][Proc: 0]nuTilda: generate_solver: 0.018 [ms]
[OGL LOG][Proc: 0]nuTilda: solve: 58.165 [ms]
[OGL LOG][Proc: 0]nuTilda: copy_x_back: 2.824 [ms]
[OGL LOG][lduLduBase.H:330] 
Statistics:
	Time per iteration: 29082 [mu s]
	Time per residual norm calculation: 1263.000000 [mu s]
	Time per iteration and DOF: 2.305484 [ns]
	Retrieve results bandwidth 2.983000 [GByte/s]
[OGL LOG][Proc: 0]nuTilda: solve_multi_gpu: 76.52 [ms]
BJcudaGKOBiCGStab:  Solving for nuTilda, Initial residual = 0.1521028175011122, Final residual = 0.01373996165434989, No Iterations 2
ExecutionTime = 191.78 s  ClockTime = 193 s

Time = 5

velocityDampingConstraint velocityDamping damped 15717 (0.12%) of cells, with max limit 300
[OGL LOG][Proc: 0]: global_index_init: 0.064 [ms]
[OGL LOG][Proc: 0]Ux_local_coeffs: call_update: 0 [ms]
[OGL LOG][Proc: 0]Ux_non_local_coeffs: call_update: 0 [ms]
[OGL LOG][Proc: 0]Ux: update_local_matrix_data: 40.175 [ms]
[OGL LOG][Proc: 0]Ux: update_non_local_matrix_data: 0.318 [ms]
[OGL LOG][Proc: 0]Ux_matrix: call_update: 3.137 [ms]
[OGL LOG][Proc: 0]Ux_rhs: call_update: 0.9399999999999999 [ms]
[OGL LOG][Preconditioner.H:121] Generate preconditioner BJ MaxBlockSize 1
[OGL LOG][Proc: 0]Ux: init_precond: 1.429 [ms]
[OGL LOG][StoppingCriterion.H:239] Creating stopping criterion with minIter 4 frequency 1
[OGL LOG][Proc: 0]Ux: generate_solver: 0.016 [ms]
[OGL LOG][Proc: 0]Ux: solve: 61.592 [ms]
[OGL LOG][Proc: 0]Ux: copy_x_back: 2.549 [ms]
[OGL LOG][lduLduBase.H:330] 
Statistics:
	Time per iteration: 30796 [mu s]
	Time per residual norm calculation: 1618.000000 [mu s]
	Time per iteration and DOF: 2.441362 [ns]
	Retrieve results bandwidth 3.305000 [GByte/s]
[OGL LOG][Proc: 0]Ux: solve_multi_gpu: 73.527 [ms]
BJcudaGKOBiCGStab:  Solving for Ux, Initial residual = 0.3300193256653043, Final residual = 0.02370002733918618, No Iterations 2
[OGL LOG][Proc: 0]: global_index_init: 0.142 [ms]
[OGL LOG][Proc: 0]Uy_local_coeffs: call_update: 0 [ms]
[OGL LOG][Proc: 0]Uy_non_local_coeffs: call_update: 0 [ms]
[OGL LOG][Proc: 0]Uy: update_local_matrix_data: 39.72 [ms]
[OGL LOG][Proc: 0]Uy: update_non_local_matrix_data: 0.342 [ms]
[OGL LOG][Proc: 0]Uy_matrix: call_update: 2.291 [ms]
[OGL LOG][Proc: 0]Uy_rhs: call_update: 1.359 [ms]
[OGL LOG][Preconditioner.H:121] Generate preconditioner BJ MaxBlockSize 1
[OGL LOG][Proc: 0]Uy: init_precond: 1.411 [ms]
[OGL LOG][StoppingCriterion.H:239] Creating stopping criterion with minIter 4 frequency 1
[OGL LOG][Proc: 0]Uy: generate_solver: 0.016 [ms]
[OGL LOG][Proc: 0]Uy: solve: 63.884 [ms]
[OGL LOG][Proc: 0]Uy: copy_x_back: 2.521 [ms]
[OGL LOG][lduLduBase.H:330] 
Statistics:
	Time per iteration: 21294 [mu s]
	Time per residual norm calculation: 1852.000000 [mu s]
	Time per iteration and DOF: 1.688088 [ns]
	Retrieve results bandwidth 3.342000 [GByte/s]
[OGL LOG][Proc: 0]Uy: solve_multi_gpu: 73.902 [ms]
BJcudaGKOBiCGStab:  Solving for Uy, Initial residual = 0.3120237711815019, Final residual = 0.02369890645225741, No Iterations 3
[OGL LOG][Proc: 0]: global_index_init: 0.151 [ms]
[OGL LOG][Proc: 0]Uz_local_coeffs: call_update: 0 [ms]
[OGL LOG][Proc: 0]Uz_non_local_coeffs: call_update: 0 [ms]
[OGL LOG][Proc: 0]Uz: update_local_matrix_data: 39.563 [ms]
[OGL LOG][Proc: 0]Uz: update_non_local_matrix_data: 0.342 [ms]
[OGL LOG][Proc: 0]Uz_matrix: call_update: 2.342 [ms]
[OGL LOG][Proc: 0]Uz_rhs: call_update: 1.357 [ms]
[OGL LOG][Preconditioner.H:121] Generate preconditioner BJ MaxBlockSize 1
[OGL LOG][Proc: 0]Uz: init_precond: 1.424 [ms]
[OGL LOG][StoppingCriterion.H:239] Creating stopping criterion with minIter 3 frequency 1
[OGL LOG][Proc: 0]Uz: generate_solver: 0.016 [ms]
[OGL LOG][Proc: 0]Uz: solve: 61.354 [ms]
[OGL LOG][Proc: 0]Uz: copy_x_back: 2.733 [ms]
[OGL LOG][lduLduBase.H:330] 
Statistics:
	Time per iteration: 30677 [mu s]
	Time per residual norm calculation: 1630.000000 [mu s]
	Time per iteration and DOF: 2.431928 [ns]
	Retrieve results bandwidth 3.083000 [GByte/s]
[OGL LOG][Proc: 0]Uz: solve_multi_gpu: 72.813 [ms]
BJcudaGKOBiCGStab:  Solving for Uz, Initial residual = 0.7157944057675243, Final residual = 0.06918097321022382, No Iterations 2
[OGL LOG][Proc: 0]: global_index_init: 0.138 [ms]
[OGL LOG][Proc: 0]p_local_coeffs: call_update: 0 [ms]
[OGL LOG][Proc: 0]p_non_local_coeffs: call_update: 0 [ms]
[OGL LOG][Proc: 0]p: update_local_matrix_data: 30.823 [ms]
[OGL LOG][Proc: 0]p: update_non_local_matrix_data: 0.334 [ms]
[OGL LOG][Proc: 0]p_matrix: call_update: 2.305 [ms]
[OGL LOG][Proc: 0]p_rhs: call_update: 1.004 [ms]
[OGL LOG][Preconditioner.H:121] Generate preconditioner BJ MaxBlockSize 1
[OGL LOG][Proc: 0]p: init_precond: 1.244 [ms]
[OGL LOG][StoppingCriterion.H:239] Creating stopping criterion with minIter 370 frequency 15
[OGL LOG][Proc: 0]p: generate_solver: 0.015 [ms]
[OGL LOG][Proc: 0]p: solve: 1932.672 [ms]
[OGL LOG][Proc: 0]p: copy_x_back: 2.866 [ms]
[OGL LOG][lduLduBase.H:330] 
Statistics:
	Time per iteration: 2523 [mu s]
	Time per residual norm calculation: 1281.000000 [mu s]
	Time per iteration and DOF: 0.200012 [ns]
	Retrieve results bandwidth 2.939000 [GByte/s]
[OGL LOG][Proc: 0]p: solve_multi_gpu: 1945.859 [ms]
BJcudaGKOCG:  Solving for p, Initial residual = 0.4066829662170431, Final residual = 0.004021932971244003, No Iterations 766
time step continuity errors : sum local = 0.07233651265403085, global = -0.005025764342009797, cumulative = -0.002153299370363985
[OGL LOG][Proc: 0]: global_index_init: 0.024 [ms]
[OGL LOG][Proc: 0]nuTilda_local_coeffs: call_update: 0 [ms]
[OGL LOG][Proc: 0]nuTilda_non_local_coeffs: call_update: 0 [ms]
[OGL LOG][Proc: 0]nuTilda: update_local_matrix_data: 39.152 [ms]
[OGL LOG][Proc: 0]nuTilda: update_non_local_matrix_data: 0.311 [ms]
[OGL LOG][Proc: 0]nuTilda_matrix: call_update: 2.162 [ms]
[OGL LOG][Proc: 0]nuTilda_rhs: call_update: 1.141 [ms]
[OGL LOG][Preconditioner.H:121] Generate preconditioner BJ MaxBlockSize 1
[OGL LOG][Proc: 0]nuTilda: init_precond: 1.309 [ms]
[OGL LOG][StoppingCriterion.H:239] Creating stopping criterion with minIter 3 frequency 1
[OGL LOG][Proc: 0]nuTilda: generate_solver: 0.023 [ms]
[OGL LOG][Proc: 0]nuTilda: solve: 57.293 [ms]
[OGL LOG][Proc: 0]nuTilda: copy_x_back: 2.527 [ms]
[OGL LOG][lduLduBase.H:330] 
Statistics:
	Time per iteration: 28646 [mu s]
	Time per residual norm calculation: 1433.000000 [mu s]
	Time per iteration and DOF: 2.270920 [ns]
	Retrieve results bandwidth 3.334000 [GByte/s]
[OGL LOG][Proc: 0]nuTilda: solve_multi_gpu: 71.646 [ms]
BJcudaGKOBiCGStab:  Solving for nuTilda, Initial residual = 0.0963420453024779, Final residual = 0.008308464395688156, No Iterations 2
ExecutionTime = 197.88 s  ClockTime = 199 s

Time = 6

velocityDampingConstraint velocityDamping damped 1440 (0.01%) of cells, with max limit 300
[OGL LOG][Proc: 0]: global_index_init: 0.143 [ms]
[OGL LOG][Proc: 0]Ux_local_coeffs: call_update: 0 [ms]
[OGL LOG][Proc: 0]Ux_non_local_coeffs: call_update: 0 [ms]
[OGL LOG][Proc: 0]Ux: update_local_matrix_data: 40.473 [ms]
[OGL LOG][Proc: 0]Ux: update_non_local_matrix_data: 0.306 [ms]
[OGL LOG][Proc: 0]Ux_matrix: call_update: 2.663 [ms]
[OGL LOG][Proc: 0]Ux_rhs: call_update: 1.123 [ms]
[OGL LOG][Preconditioner.H:121] Generate preconditioner BJ MaxBlockSize 1
[OGL LOG][Proc: 0]Ux: init_precond: 1.422 [ms]
[OGL LOG][StoppingCriterion.H:239] Creating stopping criterion with minIter 3 frequency 1
[OGL LOG][Proc: 0]Ux: generate_solver: 0.015 [ms]
[OGL LOG][Proc: 0]Ux: solve: 72.697 [ms]
[OGL LOG][Proc: 0]Ux: copy_x_back: 2.524 [ms]
[OGL LOG][lduLduBase.H:330] 
Statistics:
	Time per iteration: 24232 [mu s]
	Time per residual norm calculation: 1629.000000 [mu s]
	Time per iteration and DOF: 1.920999 [ns]
	Retrieve results bandwidth 3.338000 [GByte/s]
[OGL LOG][Proc: 0]Ux: solve_multi_gpu: 83.861 [ms]
BJcudaGKOBiCGStab:  Solving for Ux, Initial residual = 0.146154641883697, Final residual = 0.009999107759909101, No Iterations 3
[OGL LOG][Proc: 0]: global_index_init: 0.055 [ms]
[OGL LOG][Proc: 0]Uy_local_coeffs: call_update: 0 [ms]
[OGL LOG][Proc: 0]Uy_non_local_coeffs: call_update: 0 [ms]
[OGL LOG][Proc: 0]Uy: update_local_matrix_data: 39.63 [ms]
[OGL LOG][Proc: 0]Uy: update_non_local_matrix_data: 0.318 [ms]
[OGL LOG][Proc: 0]Uy_matrix: call_update: 2.72 [ms]
[OGL LOG][Proc: 0]Uy_rhs: call_update: 0.944 [ms]
[OGL LOG][Preconditioner.H:121] Generate preconditioner BJ MaxBlockSize 1
[OGL LOG][Proc: 0]Uy: init_precond: 1.363 [ms]
[OGL LOG][StoppingCriterion.H:239] Creating stopping criterion with minIter 3 frequency 1
[OGL LOG][Proc: 0]Uy: generate_solver: 0.015 [ms]
[OGL LOG][Proc: 0]Uy: solve: 71.07899999999999 [ms]
[OGL LOG][Proc: 0]Uy: copy_x_back: 2.623 [ms]
[OGL LOG][lduLduBase.H:330] 
Statistics:
	Time per iteration: 23693 [mu s]
	Time per residual norm calculation: 1117.000000 [mu s]
	Time per iteration and DOF: 1.878269 [ns]
	Retrieve results bandwidth 3.212000 [GByte/s]
[OGL LOG][Proc: 0]Uy: solve_multi_gpu: 81.79000000000001 [ms]
BJcudaGKOBiCGStab:  Solving for Uy, Initial residual = 0.2268441597049489, Final residual = 0.01509585967908534, No Iterations 3
[OGL LOG][Proc: 0]: global_index_init: 0.305 [ms]
[OGL LOG][Proc: 0]Uz_local_coeffs: call_update: 0 [ms]
[OGL LOG][Proc: 0]Uz_non_local_coeffs: call_update: 0 [ms]
[OGL LOG][Proc: 0]Uz: update_local_matrix_data: 40.005 [ms]
[OGL LOG][Proc: 0]Uz: update_non_local_matrix_data: 0.317 [ms]
[OGL LOG][Proc: 0]Uz_matrix: call_update: 2.472 [ms]
[OGL LOG][Proc: 0]Uz_rhs: call_update: 1.095 [ms]
[OGL LOG][Preconditioner.H:121] Generate preconditioner BJ MaxBlockSize 1
[OGL LOG][Proc: 0]Uz: init_precond: 1.386 [ms]
[OGL LOG][StoppingCriterion.H:239] Creating stopping criterion with minIter 3 frequency 1
[OGL LOG][Proc: 0]Uz: generate_solver: 0.014 [ms]
[OGL LOG][Proc: 0]Uz: solve: 65.559 [ms]
[OGL LOG][Proc: 0]Uz: copy_x_back: 2.635 [ms]
[OGL LOG][lduLduBase.H:330] 
Statistics:
	Time per iteration: 21853 [mu s]
	Time per residual norm calculation: 1297.000000 [mu s]
	Time per iteration and DOF: 1.732403 [ns]
	Retrieve results bandwidth 3.197000 [GByte/s]
[OGL LOG][Proc: 0]Uz: solve_multi_gpu: 76.72199999999999 [ms]
BJcudaGKOBiCGStab:  Solving for Uz, Initial residual = 0.4210477569767557, Final residual = 0.0351462498470399, No Iterations 3
[OGL LOG][Proc: 0]: global_index_init: 0.021 [ms]
[OGL LOG][Proc: 0]p_local_coeffs: call_update: 0 [ms]
[OGL LOG][Proc: 0]p_non_local_coeffs: call_update: 0 [ms]
[OGL LOG][Proc: 0]p: update_local_matrix_data: 30.719 [ms]
[OGL LOG][Proc: 0]p: update_non_local_matrix_data: 0.312 [ms]
[OGL LOG][Proc: 0]p_matrix: call_update: 2.274 [ms]
[OGL LOG][Proc: 0]p_rhs: call_update: 1.112 [ms]
[OGL LOG][Preconditioner.H:121] Generate preconditioner BJ MaxBlockSize 1
[OGL LOG][Proc: 0]p: init_precond: 1.329 [ms]
[OGL LOG][StoppingCriterion.H:239] Creating stopping criterion with minIter 459 frequency 17
[OGL LOG][Proc: 0]p: generate_solver: 0.021 [ms]
[OGL LOG][Proc: 0]p: solve: 1147.147 [ms]
[OGL LOG][Proc: 0]p: copy_x_back: 2.574 [ms]
[OGL LOG][lduLduBase.H:330] 
Statistics:
	Time per iteration: 2493 [mu s]
	Time per residual norm calculation: 986.000000 [mu s]
	Time per iteration and DOF: 0.197633 [ns]
	Retrieve results bandwidth 3.273000 [GByte/s]
[OGL LOG][Proc: 0]p: solve_multi_gpu: 1158.5 [ms]
BJcudaGKOCG:  Solving for p, Initial residual = 0.636260081972661, Final residual = 0.005004760564471564, No Iterations 460
time step continuity errors : sum local = 0.06716636234792801, global = -0.01224050996789809, cumulative = -0.01439380933826207
[OGL LOG][Proc: 0]: global_index_init: 0.021 [ms]
[OGL LOG][Proc: 0]nuTilda_local_coeffs: call_update: 0 [ms]
[OGL LOG][Proc: 0]nuTilda_non_local_coeffs: call_update: 0 [ms]
[OGL LOG][Proc: 0]nuTilda: update_local_matrix_data: 38.889 [ms]
[OGL LOG][Proc: 0]nuTilda: update_non_local_matrix_data: 0.303 [ms]
[OGL LOG][Proc: 0]nuTilda_matrix: call_update: 2.123 [ms]
[OGL LOG][Proc: 0]nuTilda_rhs: call_update: 1.102 [ms]
[OGL LOG][Preconditioner.H:121] Generate preconditioner BJ MaxBlockSize 1
[OGL LOG][Proc: 0]nuTilda: init_precond: 1.263 [ms]
[OGL LOG][StoppingCriterion.H:239] Creating stopping criterion with minIter 3 frequency 1
[OGL LOG][Proc: 0]nuTilda: generate_solver: 0.022 [ms]
[OGL LOG][Proc: 0]nuTilda: solve: 57.005 [ms]
[OGL LOG][Proc: 0]nuTilda: copy_x_back: 2.606 [ms]
[OGL LOG][lduLduBase.H:330] 
Statistics:
	Time per iteration: 28502 [mu s]
	Time per residual norm calculation: 1278.000000 [mu s]
	Time per iteration and DOF: 2.259504 [ns]
	Retrieve results bandwidth 3.233000 [GByte/s]
[OGL LOG][Proc: 0]nuTilda: solve_multi_gpu: 74.10899999999999 [ms]
BJcudaGKOBiCGStab:  Solving for nuTilda, Initial residual = 0.06675935055906924, Final residual = 0.005247878568249678, No Iterations 2
ExecutionTime = 203.24 s  ClockTime = 204 s

Time = 7

velocityDampingConstraint velocityDamping damped 3435 (0.03%) of cells, with max limit 300
[OGL LOG][Proc: 0]: global_index_init: 0.117 [ms]
[OGL LOG][Proc: 0]Ux_local_coeffs: call_update: 0 [ms]
[OGL LOG][Proc: 0]Ux_non_local_coeffs: call_update: 0 [ms]
[OGL LOG][Proc: 0]Ux: update_local_matrix_data: 40.2 [ms]
[OGL LOG][Proc: 0]Ux: update_non_local_matrix_data: 0.327 [ms]
[OGL LOG][Proc: 0]Ux_matrix: call_update: 2.56 [ms]
[OGL LOG][Proc: 0]Ux_rhs: call_update: 1.126 [ms]
[OGL LOG][Preconditioner.H:121] Generate preconditioner BJ MaxBlockSize 1
[OGL LOG][Proc: 0]Ux: init_precond: 1.357 [ms]
[OGL LOG][StoppingCriterion.H:239] Creating stopping criterion with minIter 4 frequency 1
[OGL LOG][Proc: 0]Ux: generate_solver: 0.017 [ms]
[OGL LOG][Proc: 0]Ux: solve: 91.137 [ms]
[OGL LOG][Proc: 0]Ux: copy_x_back: 2.59 [ms]
[OGL LOG][lduLduBase.H:330] 
Statistics:
	Time per iteration: 30379 [mu s]
	Time per residual norm calculation: 1624.000000 [mu s]
	Time per iteration and DOF: 2.408304 [ns]
	Retrieve results bandwidth 3.253000 [GByte/s]
[OGL LOG][Proc: 0]Ux: solve_multi_gpu: 110.318 [ms]
BJcudaGKOBiCGStab:  Solving for Ux, Initial residual = 0.09465176841107138, Final residual = 0.007783048584997076, No Iterations 3
[OGL LOG][Proc: 0]: global_index_init: 4.743 [ms]
[OGL LOG][Proc: 0]Uy_local_coeffs: call_update: 0 [ms]
[OGL LOG][Proc: 0]Uy_non_local_coeffs: call_update: 0 [ms]
[OGL LOG][Proc: 0]Uy: update_local_matrix_data: 39.712 [ms]
[OGL LOG][Proc: 0]Uy: update_non_local_matrix_data: 0.303 [ms]
[OGL LOG][Proc: 0]Uy_matrix: call_update: 2.553 [ms]
[OGL LOG][Proc: 0]Uy_rhs: call_update: 3.151 [ms]
[OGL LOG][Preconditioner.H:121] Generate preconditioner BJ MaxBlockSize 1
[OGL LOG][Proc: 0]Uy: init_precond: 1.401 [ms]
[OGL LOG][StoppingCriterion.H:239] Creating stopping criterion with minIter 4 frequency 1
[OGL LOG][Proc: 0]Uy: generate_solver: 0.018 [ms]
[OGL LOG][Proc: 0]Uy: solve: 111.341 [ms]
[OGL LOG][Proc: 0]Uy: copy_x_back: 2.496 [ms]
[OGL LOG][lduLduBase.H:330] 
Statistics:
	Time per iteration: 22268 [mu s]
	Time per residual norm calculation: 1852.000000 [mu s]
	Time per iteration and DOF: 1.765302 [ns]
	Retrieve results bandwidth 3.375000 [GByte/s]
[OGL LOG][Proc: 0]Uy: solve_multi_gpu: 130.853 [ms]
BJcudaGKOBiCGStab:  Solving for Uy, Initial residual = 0.1334102364617416, Final residual = 0.002182179347075814, No Iterations 5
[OGL LOG][Proc: 0]: global_index_init: 14.382 [ms]
[OGL LOG][Proc: 0]Uz_local_coeffs: call_update: 0 [ms]
[OGL LOG][Proc: 0]Uz_non_local_coeffs: call_update: 0 [ms]
[OGL LOG][Proc: 0]Uz: update_local_matrix_data: 39.716 [ms]
[OGL LOG][Proc: 0]Uz: update_non_local_matrix_data: 0.325 [ms]
[OGL LOG][Proc: 0]Uz_matrix: call_update: 2.02 [ms]
[OGL LOG][Proc: 0]Uz_rhs: call_update: 3.21 [ms]
[OGL LOG][Preconditioner.H:121] Generate preconditioner BJ MaxBlockSize 1
[OGL LOG][Proc: 0]Uz: init_precond: 1.562 [ms]
[OGL LOG][StoppingCriterion.H:239] Creating stopping criterion with minIter 4 frequency 1
[OGL LOG][Proc: 0]Uz: generate_solver: 0.016 [ms]
[OGL LOG][Proc: 0]Uz: solve: 96.002 [ms]
[OGL LOG][Proc: 0]Uz: copy_x_back: 2.563 [ms]
[OGL LOG][lduLduBase.H:330] 
Statistics:
	Time per iteration: 32000 [mu s]
	Time per residual norm calculation: 1723.000000 [mu s]
	Time per iteration and DOF: 2.536809 [ns]
	Retrieve results bandwidth 3.287000 [GByte/s]
[OGL LOG][Proc: 0]Uz: solve_multi_gpu: 121.421 [ms]
BJcudaGKOBiCGStab:  Solving for Uz, Initial residual = 0.2480821334953409, Final residual = 0.02056617767463006, No Iterations 3
[OGL LOG][Proc: 0]: global_index_init: 0.327 [ms]
[OGL LOG][Proc: 0]p_local_coeffs: call_update: 0 [ms]
[OGL LOG][Proc: 0]p_non_local_coeffs: call_update: 0 [ms]
[OGL LOG][Proc: 0]p: update_local_matrix_data: 30.544 [ms]
[OGL LOG][Proc: 0]p: update_non_local_matrix_data: 0.327 [ms]
[OGL LOG][Proc: 0]p_matrix: call_update: 2.343 [ms]
[OGL LOG][Proc: 0]p_rhs: call_update: 1.236 [ms]
[OGL LOG][Preconditioner.H:121] Generate preconditioner BJ MaxBlockSize 1
[OGL LOG][Proc: 0]p: init_precond: 1.365 [ms]
[OGL LOG][StoppingCriterion.H:239] Creating stopping criterion with minIter 276 frequency 9
[OGL LOG][Proc: 0]p: generate_solver: 0.017 [ms]
[OGL LOG][Proc: 0]p: solve: 1999.584 [ms]
[OGL LOG][Proc: 0]p: copy_x_back: 3.707 [ms]
[OGL LOG][lduLduBase.H:330] 
Statistics:
	Time per iteration: 2580 [mu s]
	Time per residual norm calculation: 1275.000000 [mu s]
	Time per iteration and DOF: 0.204530 [ns]
	Retrieve results bandwidth 2.272000 [GByte/s]
[OGL LOG][Proc: 0]p: solve_multi_gpu: 2016.327 [ms]
BJcudaGKOCG:  Solving for p, Initial residual = 0.4017710447643486, Final residual = 0.003947688730843857, No Iterations 775
time step continuity errors : sum local = 0.0434548691356694, global = 0.001630803405153901, cumulative = -0.01276300593310817
[OGL LOG][Proc: 0]: global_index_init: 0.899 [ms]
[OGL LOG][Proc: 0]nuTilda_local_coeffs: call_update: 0 [ms]
[OGL LOG][Proc: 0]nuTilda_non_local_coeffs: call_update: 0 [ms]
[OGL LOG][Proc: 0]nuTilda: update_local_matrix_data: 39.66 [ms]
[OGL LOG][Proc: 0]nuTilda: update_non_local_matrix_data: 0.361 [ms]
[OGL LOG][Proc: 0]nuTilda_matrix: call_update: 2.926 [ms]
[OGL LOG][Proc: 0]nuTilda_rhs: call_update: 1.021 [ms]
[OGL LOG][Preconditioner.H:121] Generate preconditioner BJ MaxBlockSize 1
[OGL LOG][Proc: 0]nuTilda: init_precond: 1.318 [ms]
[OGL LOG][StoppingCriterion.H:239] Creating stopping criterion with minIter 3 frequency 1
[OGL LOG][Proc: 0]nuTilda: generate_solver: 0.017 [ms]
[OGL LOG][Proc: 0]nuTilda: solve: 56.88 [ms]
[OGL LOG][Proc: 0]nuTilda: copy_x_back: 2.725 [ms]
[OGL LOG][lduLduBase.H:330] 
Statistics:
	Time per iteration: 28440 [mu s]
	Time per residual norm calculation: 1431.000000 [mu s]
	Time per iteration and DOF: 2.254589 [ns]
	Retrieve results bandwidth 3.092000 [GByte/s]
[OGL LOG][Proc: 0]nuTilda: solve_multi_gpu: 69.105 [ms]
BJcudaGKOBiCGStab:  Solving for nuTilda, Initial residual = 0.05357657701056253, Final residual = 0.003973589394964326, No Iterations 2
ExecutionTime = 209.56 s  ClockTime = 211 s

Time = 8

velocityDampingConstraint velocityDamping damped 1091 (0.01%) of cells, with max limit 300
[OGL LOG][Proc: 0]: global_index_init: 0.066 [ms]
[OGL LOG][Proc: 0]Ux_local_coeffs: call_update: 0 [ms]
[OGL LOG][Proc: 0]Ux_non_local_coeffs: call_update: 0 [ms]
[OGL LOG][Proc: 0]Ux: update_local_matrix_data: 40.241 [ms]
[OGL LOG][Proc: 0]Ux: update_non_local_matrix_data: 0.323 [ms]
[OGL LOG][Proc: 0]Ux_matrix: call_update: 2.644 [ms]
[OGL LOG][Proc: 0]Ux_rhs: call_update: 1.387 [ms]
[OGL LOG][Preconditioner.H:121] Generate preconditioner BJ MaxBlockSize 1
[OGL LOG][Proc: 0]Ux: init_precond: 1.437 [ms]
[OGL LOG][StoppingCriterion.H:239] Creating stopping criterion with minIter 4 frequency 1
[OGL LOG][Proc: 0]Ux: generate_solver: 0.015 [ms]
[OGL LOG][Proc: 0]Ux: solve: 65.45699999999999 [ms]
[OGL LOG][Proc: 0]Ux: copy_x_back: 2.488 [ms]
[OGL LOG][lduLduBase.H:330] 
Statistics:
	Time per iteration: 21819 [mu s]
	Time per residual norm calculation: 1857.000000 [mu s]
	Time per iteration and DOF: 1.729707 [ns]
	Retrieve results bandwidth 3.386000 [GByte/s]
[OGL LOG][Proc: 0]Ux: solve_multi_gpu: 76.836 [ms]
BJcudaGKOBiCGStab:  Solving for Ux, Initial residual = 0.08509698791719496, Final residual = 0.008305395756111229, No Iterations 3
[OGL LOG][Proc: 0]: global_index_init: 0.192 [ms]
[OGL LOG][Proc: 0]Uy_local_coeffs: call_update: 0 [ms]
[OGL LOG][Proc: 0]Uy_non_local_coeffs: call_update: 0 [ms]
[OGL LOG][Proc: 0]Uy: update_local_matrix_data: 39.223 [ms]
[OGL LOG][Proc: 0]Uy: update_non_local_matrix_data: 0.312 [ms]
[OGL LOG][Proc: 0]Uy_matrix: call_update: 2.831 [ms]
[OGL LOG][Proc: 0]Uy_rhs: call_update: 0.9320000000000001 [ms]
[OGL LOG][Preconditioner.H:121] Generate preconditioner BJ MaxBlockSize 1
[OGL LOG][Proc: 0]Uy: init_precond: 1.439 [ms]
[OGL LOG][StoppingCriterion.H:239] Creating stopping criterion with minIter 6 frequency 1
[OGL LOG][Proc: 0]Uy: generate_solver: 0.015 [ms]
[OGL LOG][Proc: 0]Uy: solve: 65.95399999999999 [ms]
[OGL LOG][Proc: 0]Uy: copy_x_back: 2.555 [ms]
[OGL LOG][lduLduBase.H:330] 
Statistics:
	Time per iteration: 21984 [mu s]
	Time per residual norm calculation: 1436.000000 [mu s]
	Time per iteration and DOF: 1.742788 [ns]
	Retrieve results bandwidth 3.297000 [GByte/s]
[OGL LOG][Proc: 0]Uy: solve_multi_gpu: 76.977 [ms]
BJcudaGKOBiCGStab:  Solving for Uy, Initial residual = 0.1318756450233052, Final residual = 0.009884700537539107, No Iterations 3
[OGL LOG][Proc: 0]: global_index_init: 0.531 [ms]
[OGL LOG][Proc: 0]Uz_local_coeffs: call_update: 0 [ms]
[OGL LOG][Proc: 0]Uz_non_local_coeffs: call_update: 0 [ms]
[OGL LOG][Proc: 0]Uz: update_local_matrix_data: 39.511 [ms]
[OGL LOG][Proc: 0]Uz: update_non_local_matrix_data: 0.317 [ms]
[OGL LOG][Proc: 0]Uz_matrix: call_update: 2.257 [ms]
[OGL LOG][Proc: 0]Uz_rhs: call_update: 1.59 [ms]
[OGL LOG][Preconditioner.H:121] Generate preconditioner BJ MaxBlockSize 1
[OGL LOG][Proc: 0]Uz: init_precond: 1.335 [ms]
[OGL LOG][StoppingCriterion.H:239] Creating stopping criterion with minIter 4 frequency 1
[OGL LOG][Proc: 0]Uz: generate_solver: 0.021 [ms]
[OGL LOG][Proc: 0]Uz: solve: 66.393 [ms]
[OGL LOG][Proc: 0]Uz: copy_x_back: 2.665 [ms]
[OGL LOG][lduLduBase.H:330] 
Statistics:
	Time per iteration: 22131 [mu s]
	Time per residual norm calculation: 1018.000000 [mu s]
	Time per iteration and DOF: 1.754441 [ns]
	Retrieve results bandwidth 3.161000 [GByte/s]
[OGL LOG][Proc: 0]Uz: solve_multi_gpu: 79.462 [ms]
BJcudaGKOBiCGStab:  Solving for Uz, Initial residual = 0.1943967422442883, Final residual = 0.01584118566633247, No Iterations 3
[OGL LOG][Proc: 0]: global_index_init: 0.08500000000000001 [ms]
[OGL LOG][Proc: 0]p_local_coeffs: call_update: 0 [ms]
[OGL LOG][Proc: 0]p_non_local_coeffs: call_update: 0 [ms]
[OGL LOG][Proc: 0]p: update_local_matrix_data: 30.755 [ms]
[OGL LOG][Proc: 0]p: update_non_local_matrix_data: 0.334 [ms]
[OGL LOG][Proc: 0]p_matrix: call_update: 2.549 [ms]
[OGL LOG][Proc: 0]p_rhs: call_update: 1.088 [ms]
[OGL LOG][Preconditioner.H:121] Generate preconditioner BJ MaxBlockSize 1
[OGL LOG][Proc: 0]p: init_precond: 1.338 [ms]
[OGL LOG][StoppingCriterion.H:239] Creating stopping criterion with minIter 465 frequency 12
[OGL LOG][Proc: 0]p: generate_solver: 0.018 [ms]
[OGL LOG][Proc: 0]p: solve: 1823.681 [ms]
[OGL LOG][Proc: 0]p: copy_x_back: 2.646 [ms]
[OGL LOG][lduLduBase.H:330] 
Statistics:
	Time per iteration: 2529 [mu s]
	Time per residual norm calculation: 1278.000000 [mu s]
	Time per iteration and DOF: 0.200487 [ns]
	Retrieve results bandwidth 3.184000 [GByte/s]
[OGL LOG][Proc: 0]p: solve_multi_gpu: 1835.533 [ms]
BJcudaGKOCG:  Solving for p, Initial residual = 0.2894674792076046, Final residual = 0.002765827375552329, No Iterations 721
time step continuity errors : sum local = 0.03825022638995332, global = -0.0007548699448119095, cumulative = -0.01351787587792008
[OGL LOG][Proc: 0]: global_index_init: 5.265 [ms]
[OGL LOG][Proc: 0]nuTilda_local_coeffs: call_update: 0 [ms]
[OGL LOG][Proc: 0]nuTilda_non_local_coeffs: call_update: 0 [ms]
[OGL LOG][Proc: 0]nuTilda: update_local_matrix_data: 38.873 [ms]
[OGL LOG][Proc: 0]nuTilda: update_non_local_matrix_data: 0.343 [ms]
[OGL LOG][Proc: 0]nuTilda_matrix: call_update: 2.232 [ms]
[OGL LOG][Proc: 0]nuTilda_rhs: call_update: 1.132 [ms]
[OGL LOG][Preconditioner.H:121] Generate preconditioner BJ MaxBlockSize 1
[OGL LOG][Proc: 0]nuTilda: init_precond: 1.329 [ms]
[OGL LOG][StoppingCriterion.H:239] Creating stopping criterion with minIter 3 frequency 1
[OGL LOG][Proc: 0]nuTilda: generate_solver: 0.017 [ms]
[OGL LOG][Proc: 0]nuTilda: solve: 57.823 [ms]
[OGL LOG][Proc: 0]nuTilda: copy_x_back: 2.529 [ms]
[OGL LOG][lduLduBase.H:330] 
Statistics:
	Time per iteration: 28911 [mu s]
	Time per residual norm calculation: 1424.000000 [mu s]
	Time per iteration and DOF: 2.291928 [ns]
	Retrieve results bandwidth 3.331000 [GByte/s]
[OGL LOG][Proc: 0]nuTilda: solve_multi_gpu: 75.17 [ms]
BJcudaGKOBiCGStab:  Solving for nuTilda, Initial residual = 0.04208529635505103, Final residual = 0.002936993039402074, No Iterations 2
ExecutionTime = 215.54 s  ClockTime = 216 s

Time = 9

velocityDampingConstraint velocityDamping damped 500 (0%) of cells, with max limit 300
[OGL LOG][Proc: 0]: global_index_init: 0.165 [ms]
[OGL LOG][Proc: 0]Ux_local_coeffs: call_update: 0 [ms]
[OGL LOG][Proc: 0]Ux_non_local_coeffs: call_update: 0 [ms]
[OGL LOG][Proc: 0]Ux: update_local_matrix_data: 40.117 [ms]
[OGL LOG][Proc: 0]Ux: update_non_local_matrix_data: 0.336 [ms]
[OGL LOG][Proc: 0]Ux_matrix: call_update: 2.853 [ms]
[OGL LOG][Proc: 0]Ux_rhs: call_update: 1.019 [ms]
[OGL LOG][Preconditioner.H:121] Generate preconditioner BJ MaxBlockSize 1
[OGL LOG][Proc: 0]Ux: init_precond: 1.434 [ms]
[OGL LOG][StoppingCriterion.H:239] Creating stopping criterion with minIter 3 frequency 1
[OGL LOG][Proc: 0]Ux: generate_solver: 0.018 [ms]
[OGL LOG][Proc: 0]Ux: solve: 71.544 [ms]
[OGL LOG][Proc: 0]Ux: copy_x_back: 2.603 [ms]
[OGL LOG][lduLduBase.H:330] 
Statistics:
	Time per iteration: 23848 [mu s]
	Time per residual norm calculation: 1810.000000 [mu s]
	Time per iteration and DOF: 1.890557 [ns]
	Retrieve results bandwidth 3.237000 [GByte/s]
[OGL LOG][Proc: 0]Ux: solve_multi_gpu: 83.70099999999999 [ms]
BJcudaGKOBiCGStab:  Solving for Ux, Initial residual = 0.06779282897424009, Final residual = 0.004511597019585837, No Iterations 3
[OGL LOG][Proc: 0]: global_index_init: 0.134 [ms]
[OGL LOG][Proc: 0]Uy_local_coeffs: call_update: 0 [ms]
[OGL LOG][Proc: 0]Uy_non_local_coeffs: call_update: 0 [ms]
[OGL LOG][Proc: 0]Uy: update_local_matrix_data: 40.045 [ms]
[OGL LOG][Proc: 0]Uy: update_non_local_matrix_data: 0.342 [ms]
[OGL LOG][Proc: 0]Uy_matrix: call_update: 2.545 [ms]
[OGL LOG][Proc: 0]Uy_rhs: call_update: 1.386 [ms]
[OGL LOG][Preconditioner.H:121] Generate preconditioner BJ MaxBlockSize 1
[OGL LOG][Proc: 0]Uy: init_precond: 1.43 [ms]
[OGL LOG][StoppingCriterion.H:239] Creating stopping criterion with minIter 4 frequency 1
[OGL LOG][Proc: 0]Uy: generate_solver: 0.015 [ms]
[OGL LOG][Proc: 0]Uy: solve: 74.63200000000001 [ms]
[OGL LOG][Proc: 0]Uy: copy_x_back: 2.54 [ms]
[OGL LOG][lduLduBase.H:330] 
Statistics:
	Time per iteration: 18658 [mu s]
	Time per residual norm calculation: 1271.000000 [mu s]
	Time per iteration and DOF: 1.479118 [ns]
	Retrieve results bandwidth 3.317000 [GByte/s]
[OGL LOG][Proc: 0]Uy: solve_multi_gpu: 85.014 [ms]
BJcudaGKOBiCGStab:  Solving for Uy, Initial residual = 0.1144222806289363, Final residual = 0.005231828897380517, No Iterations 4
[OGL LOG][Proc: 0]: global_index_init: 0.145 [ms]
[OGL LOG][Proc: 0]Uz_local_coeffs: call_update: 0 [ms]
[OGL LOG][Proc: 0]Uz_non_local_coeffs: call_update: 0 [ms]
[OGL LOG][Proc: 0]Uz: update_local_matrix_data: 39.708 [ms]
[OGL LOG][Proc: 0]Uz: update_non_local_matrix_data: 0.331 [ms]
[OGL LOG][Proc: 0]Uz_matrix: call_update: 2.361 [ms]
[OGL LOG][Proc: 0]Uz_rhs: call_update: 1.321 [ms]
[OGL LOG][Preconditioner.H:121] Generate preconditioner BJ MaxBlockSize 1
[OGL LOG][Proc: 0]Uz: init_precond: 1.375 [ms]
[OGL LOG][StoppingCriterion.H:239] Creating stopping criterion with minIter 4 frequency 1
[OGL LOG][Proc: 0]Uz: generate_solver: 0.015 [ms]
[OGL LOG][Proc: 0]Uz: solve: 70.501 [ms]
[OGL LOG][Proc: 0]Uz: copy_x_back: 2.503 [ms]
[OGL LOG][lduLduBase.H:330] 
Statistics:
	Time per iteration: 17625 [mu s]
	Time per residual norm calculation: 1457.000000 [mu s]
	Time per iteration and DOF: 1.397227 [ns]
	Retrieve results bandwidth 3.366000 [GByte/s]
[OGL LOG][Proc: 0]Uz: solve_multi_gpu: 81.68600000000001 [ms]
BJcudaGKOBiCGStab:  Solving for Uz, Initial residual = 0.1792323430734714, Final residual = 0.008450724457245502, No Iterations 4
[OGL LOG][Proc: 0]: global_index_init: 0.226 [ms]
[OGL LOG][Proc: 0]p_local_coeffs: call_update: 0 [ms]
[OGL LOG][Proc: 0]p_non_local_coeffs: call_update: 0 [ms]
[OGL LOG][Proc: 0]p: update_local_matrix_data: 33.625 [ms]
[OGL LOG][Proc: 0]p: update_non_local_matrix_data: 0.313 [ms]
[OGL LOG][Proc: 0]p_matrix: call_update: 1.9 [ms]
[OGL LOG][Proc: 0]p_rhs: call_update: 1.457 [ms]
[OGL LOG][Preconditioner.H:121] Generate preconditioner BJ MaxBlockSize 1
[OGL LOG][Proc: 0]p: init_precond: 1.521 [ms]
[OGL LOG][StoppingCriterion.H:239] Creating stopping criterion with minIter 432 frequency 16
[OGL LOG][Proc: 0]p: generate_solver: 0.02 [ms]
[OGL LOG][Proc: 0]p: solve: 1799.32 [ms]
[OGL LOG][Proc: 0]p: copy_x_back: 2.78 [ms]
[OGL LOG][lduLduBase.H:330] 
Statistics:
	Time per iteration: 2495 [mu s]
	Time per residual norm calculation: 980.000000 [mu s]
	Time per iteration and DOF: 0.197792 [ns]
	Retrieve results bandwidth 3.030000 [GByte/s]
[OGL LOG][Proc: 0]p: solve_multi_gpu: 1809.826 [ms]
BJcudaGKOCG:  Solving for p, Initial residual = 0.4451657795794626, Final residual = 0.004308541748263158, No Iterations 721
time step continuity errors : sum local = 0.0395478322005362, global = -0.0009769874774218311, cumulative = -0.01449486335534191
[OGL LOG][Proc: 0]: global_index_init: 0.173 [ms]
[OGL LOG][Proc: 0]nuTilda_local_coeffs: call_update: 0 [ms]
[OGL LOG][Proc: 0]nuTilda_non_local_coeffs: call_update: 0 [ms]
[OGL LOG][Proc: 0]nuTilda: update_local_matrix_data: 39.363 [ms]
[OGL LOG][Proc: 0]nuTilda: update_non_local_matrix_data: 0.334 [ms]
[OGL LOG][Proc: 0]nuTilda_matrix: call_update: 2.042 [ms]
[OGL LOG][Proc: 0]nuTilda_rhs: call_update: 1.275 [ms]
[OGL LOG][Preconditioner.H:121] Generate preconditioner BJ MaxBlockSize 1
[OGL LOG][Proc: 0]nuTilda: init_precond: 1.28 [ms]
[OGL LOG][StoppingCriterion.H:239] Creating stopping criterion with minIter 3 frequency 1
[OGL LOG][Proc: 0]nuTilda: generate_solver: 0.021 [ms]
[OGL LOG][Proc: 0]nuTilda: solve: 57.486 [ms]
[OGL LOG][Proc: 0]nuTilda: copy_x_back: 2.658 [ms]
[OGL LOG][lduLduBase.H:330] 
Statistics:
	Time per iteration: 28743 [mu s]
	Time per residual norm calculation: 975.000000 [mu s]
	Time per iteration and DOF: 2.278609 [ns]
	Retrieve results bandwidth 3.170000 [GByte/s]
[OGL LOG][Proc: 0]nuTilda: solve_multi_gpu: 71.86799999999999 [ms]
BJcudaGKOBiCGStab:  Solving for nuTilda, Initial residual = 0.03633730587655377, Final residual = 0.002529814310713527, No Iterations 2
ExecutionTime = 221.51 s  ClockTime = 222 s

Time = 10

velocityDampingConstraint velocityDamping damped 458 (0%) of cells, with max limit 300
[OGL LOG][Proc: 0]: global_index_init: 0.166 [ms]
[OGL LOG][Proc: 0]Ux_local_coeffs: call_update: 0 [ms]
[OGL LOG][Proc: 0]Ux_non_local_coeffs: call_update: 0 [ms]
[OGL LOG][Proc: 0]Ux: update_local_matrix_data: 40.046 [ms]
[OGL LOG][Proc: 0]Ux: update_non_local_matrix_data: 0.353 [ms]
[OGL LOG][Proc: 0]Ux_matrix: call_update: 2.748 [ms]
[OGL LOG][Proc: 0]Ux_rhs: call_update: 1.168 [ms]
[OGL LOG][Preconditioner.H:121] Generate preconditioner BJ MaxBlockSize 1
[OGL LOG][Proc: 0]Ux: init_precond: 1.387 [ms]
[OGL LOG][StoppingCriterion.H:239] Creating stopping criterion with minIter 4 frequency 1
[OGL LOG][Proc: 0]Ux: generate_solver: 0.016 [ms]
[OGL LOG][Proc: 0]Ux: solve: 75.423 [ms]
[OGL LOG][Proc: 0]Ux: copy_x_back: 2.586 [ms]
[OGL LOG][lduLduBase.H:330] 
Statistics:
	Time per iteration: 18855 [mu s]
	Time per residual norm calculation: 1847.000000 [mu s]
	Time per iteration and DOF: 1.494735 [ns]
	Retrieve results bandwidth 3.258000 [GByte/s]
[OGL LOG][Proc: 0]Ux: solve_multi_gpu: 88.646 [ms]
BJcudaGKOBiCGStab:  Solving for Ux, Initial residual = 0.04075139880364644, Final residual = 0.003509529092869966, No Iterations 4
[OGL LOG][Proc: 0]: global_index_init: 0.078 [ms]
[OGL LOG][Proc: 0]Uy_local_coeffs: call_update: 0 [ms]
[OGL LOG][Proc: 0]Uy_non_local_coeffs: call_update: 0 [ms]
[OGL LOG][Proc: 0]Uy: update_local_matrix_data: 39.994 [ms]
[OGL LOG][Proc: 0]Uy: update_non_local_matrix_data: 0.326 [ms]
[OGL LOG][Proc: 0]Uy_matrix: call_update: 2.513 [ms]
[OGL LOG][Proc: 0]Uy_rhs: call_update: 1.234 [ms]
[OGL LOG][Preconditioner.H:121] Generate preconditioner BJ MaxBlockSize 1
[OGL LOG][Proc: 0]Uy: init_precond: 1.412 [ms]
[OGL LOG][StoppingCriterion.H:239] Creating stopping criterion with minIter 4 frequency 1
[OGL LOG][Proc: 0]Uy: generate_solver: 0.015 [ms]
[OGL LOG][Proc: 0]Uy: solve: 69.694 [ms]
[OGL LOG][Proc: 0]Uy: copy_x_back: 2.531 [ms]
[OGL LOG][lduLduBase.H:330] 
Statistics:
	Time per iteration: 23231 [mu s]
	Time per residual norm calculation: 1630.000000 [mu s]
	Time per iteration and DOF: 1.841644 [ns]
	Retrieve results bandwidth 3.329000 [GByte/s]
[OGL LOG][Proc: 0]Uy: solve_multi_gpu: 81.511 [ms]
BJcudaGKOBiCGStab:  Solving for Uy, Initial residual = 0.09266008017285123, Final residual = 0.008887431049040469, No Iterations 3
[OGL LOG][Proc: 0]: global_index_init: 0.448 [ms]
[OGL LOG][Proc: 0]Uz_local_coeffs: call_update: 0 [ms]
[OGL LOG][Proc: 0]Uz_non_local_coeffs: call_update: 0 [ms]
[OGL LOG][Proc: 0]Uz: update_local_matrix_data: 39.991 [ms]
[OGL LOG][Proc: 0]Uz: update_non_local_matrix_data: 0.316 [ms]
[OGL LOG][Proc: 0]Uz_matrix: call_update: 2.436 [ms]
[OGL LOG][Proc: 0]Uz_rhs: call_update: 1.235 [ms]
[OGL LOG][Preconditioner.H:121] Generate preconditioner BJ MaxBlockSize 1
[OGL LOG][Proc: 0]Uz: init_precond: 1.432 [ms]
[OGL LOG][StoppingCriterion.H:239] Creating stopping criterion with minIter 4 frequency 1
[OGL LOG][Proc: 0]Uz: generate_solver: 0.017 [ms]
[OGL LOG][Proc: 0]Uz: solve: 67.812 [ms]
[OGL LOG][Proc: 0]Uz: copy_x_back: 2.574 [ms]
[OGL LOG][lduLduBase.H:330] 
Statistics:
	Time per iteration: 16953 [mu s]
	Time per residual norm calculation: 1522.000000 [mu s]
	Time per iteration and DOF: 1.343954 [ns]
	Retrieve results bandwidth 3.273000 [GByte/s]
[OGL LOG][Proc: 0]Uz: solve_multi_gpu: 78.98099999999999 [ms]
BJcudaGKOBiCGStab:  Solving for Uz, Initial residual = 0.1468191588107696, Final residual = 0.008007654063823677, No Iterations 4
[OGL LOG][Proc: 0]: global_index_init: 0.028 [ms]
[OGL LOG][Proc: 0]p_local_coeffs: call_update: 0 [ms]
[OGL LOG][Proc: 0]p_non_local_coeffs: call_update: 0 [ms]
[OGL LOG][Proc: 0]p: update_local_matrix_data: 30.681 [ms]
[OGL LOG][Proc: 0]p: update_non_local_matrix_data: 0.358 [ms]
[OGL LOG][Proc: 0]p_matrix: call_update: 2.299 [ms]
[OGL LOG][Proc: 0]p_rhs: call_update: 0.95 [ms]
[OGL LOG][Preconditioner.H:121] Generate preconditioner BJ MaxBlockSize 1
[OGL LOG][Proc: 0]p: init_precond: 1.271 [ms]
[OGL LOG][StoppingCriterion.H:239] Creating stopping criterion with minIter 432 frequency 12
[OGL LOG][Proc: 0]p: generate_solver: 0.015 [ms]
[OGL LOG][Proc: 0]p: solve: 1095.656 [ms]
[OGL LOG][Proc: 0]p: copy_x_back: 2.593 [ms]
[OGL LOG][lduLduBase.H:330] 
Statistics:
	Time per iteration: 2530 [mu s]
	Time per residual norm calculation: 1280.000000 [mu s]
	Time per iteration and DOF: 0.200566 [ns]
	Retrieve results bandwidth 3.249000 [GByte/s]
[OGL LOG][Proc: 0]p: solve_multi_gpu: 1107.498 [ms]
BJcudaGKOCG:  Solving for p, Initial residual = 0.3232940880694958, Final residual = 0.001437398947230088, No Iterations 433
time step continuity errors : sum local = 0.01383497131646775, global = 0.003312136987625801, cumulative = -0.01118272636771611
[OGL LOG][Proc: 0]: global_index_init: 0.021 [ms]
[OGL LOG][Proc: 0]nuTilda_local_coeffs: call_update: 0 [ms]
[OGL LOG][Proc: 0]nuTilda_non_local_coeffs: call_update: 0 [ms]
[OGL LOG][Proc: 0]nuTilda: update_local_matrix_data: 40.526 [ms]
[OGL LOG][Proc: 0]nuTilda: update_non_local_matrix_data: 0.307 [ms]
[OGL LOG][Proc: 0]nuTilda_matrix: call_update: 2.034 [ms]
[OGL LOG][Proc: 0]nuTilda_rhs: call_update: 1.111 [ms]
[OGL LOG][Preconditioner.H:121] Generate preconditioner BJ MaxBlockSize 1
[OGL LOG][Proc: 0]nuTilda: init_precond: 1.265 [ms]
[OGL LOG][StoppingCriterion.H:239] Creating stopping criterion with minIter 3 frequency 1
[OGL LOG][Proc: 0]nuTilda: generate_solver: 0.016 [ms]
[OGL LOG][Proc: 0]nuTilda: solve: 58.706 [ms]
[OGL LOG][Proc: 0]nuTilda: copy_x_back: 2.53 [ms]
[OGL LOG][lduLduBase.H:330] 
Statistics:
	Time per iteration: 29353 [mu s]
	Time per residual norm calculation: 1275.000000 [mu s]
	Time per iteration and DOF: 2.326967 [ns]
	Retrieve results bandwidth 3.330000 [GByte/s]
[OGL LOG][Proc: 0]nuTilda: solve_multi_gpu: 79.018 [ms]
BJcudaGKOBiCGStab:  Solving for nuTilda, Initial residual = 0.03118915089430655, Final residual = 0.002038381088510053, No Iterations 2
ExecutionTime = 226.77 s  ClockTime = 228 s

Time = 11

velocityDampingConstraint velocityDamping damped 115 (0%) of cells, with max limit 300
[OGL LOG][Proc: 0]: global_index_init: 0.134 [ms]
[OGL LOG][Proc: 0]Ux_local_coeffs: call_update: 0 [ms]
[OGL LOG][Proc: 0]Ux_non_local_coeffs: call_update: 0 [ms]
[OGL LOG][Proc: 0]Ux: update_local_matrix_data: 40.151 [ms]
[OGL LOG][Proc: 0]Ux: update_non_local_matrix_data: 0.321 [ms]
[OGL LOG][Proc: 0]Ux_matrix: call_update: 3.055 [ms]
[OGL LOG][Proc: 0]Ux_rhs: call_update: 0.983 [ms]
[OGL LOG][Preconditioner.H:121] Generate preconditioner BJ MaxBlockSize 1
[OGL LOG][Proc: 0]Ux: init_precond: 1.414 [ms]
[OGL LOG][StoppingCriterion.H:239] Creating stopping criterion with minIter 4 frequency 1
[OGL LOG][Proc: 0]Ux: generate_solver: 0.017 [ms]
[OGL LOG][Proc: 0]Ux: solve: 70.425 [ms]
[OGL LOG][Proc: 0]Ux: copy_x_back: 2.59 [ms]
[OGL LOG][lduLduBase.H:330] 
Statistics:
	Time per iteration: 23475 [mu s]
	Time per residual norm calculation: 1816.000000 [mu s]
	Time per iteration and DOF: 1.860987 [ns]
	Retrieve results bandwidth 3.253000 [GByte/s]
[OGL LOG][Proc: 0]Ux: solve_multi_gpu: 83.76300000000001 [ms]
BJcudaGKOBiCGStab:  Solving for Ux, Initial residual = 0.05117697396415252, Final residual = 0.004004465797345653, No Iterations 3
[OGL LOG][Proc: 0]: global_index_init: 0.06900000000000001 [ms]
[OGL LOG][Proc: 0]Uy_local_coeffs: call_update: 0 [ms]
[OGL LOG][Proc: 0]Uy_non_local_coeffs: call_update: 0 [ms]
[OGL LOG][Proc: 0]Uy: update_local_matrix_data: 40.425 [ms]
[OGL LOG][Proc: 0]Uy: update_non_local_matrix_data: 0.313 [ms]
[OGL LOG][Proc: 0]Uy_matrix: call_update: 2.89 [ms]
[OGL LOG][Proc: 0]Uy_rhs: call_update: 1.218 [ms]
[OGL LOG][Preconditioner.H:121] Generate preconditioner BJ MaxBlockSize 1
[OGL LOG][Proc: 0]Uy: init_precond: 1.417 [ms]
[OGL LOG][StoppingCriterion.H:239] Creating stopping criterion with minIter 4 frequency 1
[OGL LOG][Proc: 0]Uy: generate_solver: 0.014 [ms]
[OGL LOG][Proc: 0]Uy: solve: 71.10299999999999 [ms]
[OGL LOG][Proc: 0]Uy: copy_x_back: 2.486 [ms]
[OGL LOG][lduLduBase.H:330] 
Statistics:
	Time per iteration: 23701 [mu s]
	Time per residual norm calculation: 1626.000000 [mu s]
	Time per iteration and DOF: 1.878904 [ns]
	Retrieve results bandwidth 3.389000 [GByte/s]
[OGL LOG][Proc: 0]Uy: solve_multi_gpu: 82.126 [ms]
[...]
[OGL LOG][Proc: 0]p: solve_multi_gpu: 547.3200000000001 [ms]
BJcudaGKOCG:  Solving for p, Initial residual = 0.08246198804337031, Final residual = 0.0008237541544413577, No Iterations 193
time step continuity errors : sum local = 0.001307608544696336, global = 4.806217262347425e-05, cumulative = -0.009126061845000397
[OGL LOG][Proc: 0]: global_index_init: 0.021 [ms]
[OGL LOG][Proc: 0]nuTilda_local_coeffs: call_update: 0 [ms]
[OGL LOG][Proc: 0]nuTilda_non_local_coeffs: call_update: 0 [ms]
[OGL LOG][Proc: 0]nuTilda: update_local_matrix_data: 38.461 [ms]
[OGL LOG][Proc: 0]nuTilda: update_non_local_matrix_data: 0.38 [ms]
[OGL LOG][Proc: 0]nuTilda_matrix: call_update: 2.131 [ms]
[OGL LOG][Proc: 0]nuTilda_rhs: call_update: 1.13 [ms]
[OGL LOG][Preconditioner.H:121] Generate preconditioner BJ MaxBlockSize 1
[OGL LOG][Proc: 0]nuTilda: init_precond: 1.342 [ms]
[OGL LOG][StoppingCriterion.H:239] Creating stopping criterion with minIter 3 frequency 1
[OGL LOG][Proc: 0]nuTilda: generate_solver: 0.016 [ms]
[OGL LOG][Proc: 0]nuTilda: solve: 57.353 [ms]
[OGL LOG][Proc: 0]nuTilda: copy_x_back: 2.673 [ms]
[OGL LOG][lduLduBase.H:330] 
Statistics:
	Time per iteration: 28676 [mu s]
	Time per residual norm calculation: 1430.000000 [mu s]
	Time per iteration and DOF: 2.273298 [ns]
	Retrieve results bandwidth 3.152000 [GByte/s]
[OGL LOG][Proc: 0]nuTilda: solve_multi_gpu: 77.771 [ms]
BJcudaGKOBiCGStab:  Solving for nuTilda, Initial residual = 0.01373848578168233, Final residual = 0.001079037180604495, No Iterations 2
ExecutionTime = 683.23 s  ClockTime = 686 s

Time = 98

velocityDampingConstraint velocityDamping damped 0 (0%) of cells, with max limit 300
[OGL LOG][Proc: 0]: global_index_init: 0.067 [ms]
[OGL LOG][Proc: 0]Ux_local_coeffs: call_update: 0 [ms]
[OGL LOG][Proc: 0]Ux_non_local_coeffs: call_update: 0 [ms]
[OGL LOG][Proc: 0]Ux: update_local_matrix_data: 39.272 [ms]
[OGL LOG][Proc: 0]Ux: update_non_local_matrix_data: 0.358 [ms]
[OGL LOG][Proc: 0]Ux_matrix: call_update: 2.748 [ms]
[OGL LOG][Proc: 0]Ux_rhs: call_update: 1.231 [ms]
[OGL LOG][Preconditioner.H:121] Generate preconditioner BJ MaxBlockSize 1
[OGL LOG][Proc: 0]Ux: init_precond: 1.46 [ms]
[OGL LOG][StoppingCriterion.H:239] Creating stopping criterion with minIter 4 frequency 1
[OGL LOG][Proc: 0]Ux: generate_solver: 0.016 [ms]
[OGL LOG][Proc: 0]Ux: solve: 73.545 [ms]
[OGL LOG][Proc: 0]Ux: copy_x_back: 2.664 [ms]
[OGL LOG][lduLduBase.H:330] 
Statistics:
	Time per iteration: 18386 [mu s]
	Time per residual norm calculation: 1273.000000 [mu s]
	Time per iteration and DOF: 1.457555 [ns]
	Retrieve results bandwidth 3.162000 [GByte/s]
[OGL LOG][Proc: 0]Ux: solve_multi_gpu: 86.666 [ms]
BJcudaGKOBiCGStab:  Solving for Ux, Initial residual = 0.006188900426351779, Final residual = 0.0001693915545666649, No Iterations 4
[OGL LOG][Proc: 0]: global_index_init: 0.144 [ms]
[OGL LOG][Proc: 0]Uy_local_coeffs: call_update: 0 [ms]
[OGL LOG][Proc: 0]Uy_non_local_coeffs: call_update: 0 [ms]
[OGL LOG][Proc: 0]Uy: update_local_matrix_data: 39.843 [ms]
[OGL LOG][Proc: 0]Uy: update_non_local_matrix_data: 0.314 [ms]
[OGL LOG][Proc: 0]Uy_matrix: call_update: 2.338 [ms]
[OGL LOG][Proc: 0]Uy_rhs: call_update: 1.418 [ms]
[OGL LOG][Preconditioner.H:121] Generate preconditioner BJ MaxBlockSize 1
[OGL LOG][Proc: 0]Uy: init_precond: 1.378 [ms]
[OGL LOG][StoppingCriterion.H:239] Creating stopping criterion with minIter 4 frequency 1
[OGL LOG][Proc: 0]Uy: generate_solver: 0.016 [ms]
[OGL LOG][Proc: 0]Uy: solve: 70.31999999999999 [ms]
[OGL LOG][Proc: 0]Uy: copy_x_back: 2.547 [ms]
[OGL LOG][lduLduBase.H:330] 
Statistics:
	Time per iteration: 23440 [mu s]
	Time per residual norm calculation: 1820.000000 [mu s]
	Time per iteration and DOF: 1.858213 [ns]
	Retrieve results bandwidth 3.308000 [GByte/s]
[OGL LOG][Proc: 0]Uy: solve_multi_gpu: 80.898 [ms]
BJcudaGKOBiCGStab:  Solving for Uy, Initial residual = 0.024556257671812, Final residual = 0.002046593909566348, No Iterations 3
[OGL LOG][Proc: 0]: global_index_init: 0.124 [ms]
[OGL LOG][Proc: 0]Uz_local_coeffs: call_update: 0 [ms]
[OGL LOG][Proc: 0]Uz_non_local_coeffs: call_update: 0 [ms]
[OGL LOG][Proc: 0]Uz: update_local_matrix_data: 40.298 [ms]
[OGL LOG][Proc: 0]Uz: update_non_local_matrix_data: 0.308 [ms]
[OGL LOG][Proc: 0]Uz_matrix: call_update: 1.554 [ms]
[OGL LOG][Proc: 0]Uz_rhs: call_update: 2.125 [ms]
[OGL LOG][Preconditioner.H:121] Generate preconditioner BJ MaxBlockSize 1
[OGL LOG][Proc: 0]Uz: init_precond: 1.554 [ms]
[OGL LOG][StoppingCriterion.H:239] Creating stopping criterion with minIter 4 frequency 1
[OGL LOG][Proc: 0]Uz: generate_solver: 0.016 [ms]
[OGL LOG][Proc: 0]Uz: solve: 69.453 [ms]
[OGL LOG][Proc: 0]Uz: copy_x_back: 2.574 [ms]
[OGL LOG][lduLduBase.H:330] 
Statistics:
	Time per iteration: 17363 [mu s]
	Time per residual norm calculation: 1610.000000 [mu s]
	Time per iteration and DOF: 1.376457 [ns]
	Retrieve results bandwidth 3.273000 [GByte/s]
[OGL LOG][Proc: 0]Uz: solve_multi_gpu: 80.375 [ms]
BJcudaGKOBiCGStab:  Solving for Uz, Initial residual = 0.02288561964657628, Final residual = 0.002128216853108731, No Iterations 4
[OGL LOG][Proc: 0]: global_index_init: 0.057 [ms]
[OGL LOG][Proc: 0]p_local_coeffs: call_update: 0 [ms]
[OGL LOG][Proc: 0]p_non_local_coeffs: call_update: 0 [ms]
[OGL LOG][Proc: 0]p: update_local_matrix_data: 31.564 [ms]
[OGL LOG][Proc: 0]p: update_non_local_matrix_data: 0.303 [ms]
[OGL LOG][Proc: 0]p_matrix: call_update: 2.277 [ms]
[OGL LOG][Proc: 0]p_rhs: call_update: 1.052 [ms]
[OGL LOG][Preconditioner.H:121] Generate preconditioner BJ MaxBlockSize 1
[OGL LOG][Proc: 0]p: init_precond: 1.264 [ms]
[OGL LOG][StoppingCriterion.H:239] Creating stopping criterion with minIter 115 frequency 8
[OGL LOG][Proc: 0]p: generate_solver: 0.015 [ms]
[OGL LOG][Proc: 0]p: solve: 1441.128 [ms]
[OGL LOG][Proc: 0]p: copy_x_back: 2.75 [ms]
[OGL LOG][lduLduBase.H:330] 
Statistics:
	Time per iteration: 2644 [mu s]
	Time per residual norm calculation: 1432.000000 [mu s]
	Time per iteration and DOF: 0.209604 [ns]
	Retrieve results bandwidth 3.064000 [GByte/s]
[OGL LOG][Proc: 0]p: solve_multi_gpu: 1452.019 [ms]
BJcudaGKOCG:  Solving for p, Initial residual = 0.07937232726254681, Final residual = 0.0007866318646105313, No Iterations 545
time step continuity errors : sum local = 0.001237510616218578, global = 1.047062114885865e-05, cumulative = -0.009115591223851539
[OGL LOG][Proc: 0]: global_index_init: 0.021 [ms]
[OGL LOG][Proc: 0]nuTilda_local_coeffs: call_update: 0 [ms]
[OGL LOG][Proc: 0]nuTilda_non_local_coeffs: call_update: 0 [ms]
[OGL LOG][Proc: 0]nuTilda: update_local_matrix_data: 39.474 [ms]
[OGL LOG][Proc: 0]nuTilda: update_non_local_matrix_data: 0.309 [ms]
[OGL LOG][Proc: 0]nuTilda_matrix: call_update: 2.064 [ms]
[OGL LOG][Proc: 0]nuTilda_rhs: call_update: 1.188 [ms]
[OGL LOG][Preconditioner.H:121] Generate preconditioner BJ MaxBlockSize 1
[OGL LOG][Proc: 0]nuTilda: init_precond: 1.354 [ms]
[OGL LOG][StoppingCriterion.H:239] Creating stopping criterion with minIter 3 frequency 1
[OGL LOG][Proc: 0]nuTilda: generate_solver: 0.017 [ms]
[OGL LOG][Proc: 0]nuTilda: solve: 58.662 [ms]
[OGL LOG][Proc: 0]nuTilda: copy_x_back: 2.792 [ms]
[OGL LOG][lduLduBase.H:330] 
Statistics:
	Time per iteration: 29331 [mu s]
	Time per residual norm calculation: 1429.000000 [mu s]
	Time per iteration and DOF: 2.325223 [ns]
	Retrieve results bandwidth 3.017000 [GByte/s]
[OGL LOG][Proc: 0]nuTilda: solve_multi_gpu: 74.75700000000001 [ms]
BJcudaGKOBiCGStab:  Solving for nuTilda, Initial residual = 0.01268931449949562, Final residual = 0.00110627172981999, No Iterations 2
bounding nuTilda, min: -3.758309301817259e-06 max: 0.03991707956616401 average: 0.001245320189761181
ExecutionTime = 688.74 s  ClockTime = 691 s

Time = 99

velocityDampingConstraint velocityDamping damped 0 (0%) of cells, with max limit 300
[OGL LOG][Proc: 0]: global_index_init: 0.066 [ms]
[OGL LOG][Proc: 0]Ux_local_coeffs: call_update: 0 [ms]
[OGL LOG][Proc: 0]Ux_non_local_coeffs: call_update: 0 [ms]
[OGL LOG][Proc: 0]Ux: update_local_matrix_data: 40.356 [ms]
[OGL LOG][Proc: 0]Ux: update_non_local_matrix_data: 0.339 [ms]
[OGL LOG][Proc: 0]Ux_matrix: call_update: 1.59 [ms]
[OGL LOG][Proc: 0]Ux_rhs: call_update: 2.376 [ms]
[OGL LOG][Preconditioner.H:121] Generate preconditioner BJ MaxBlockSize 1
[OGL LOG][Proc: 0]Ux: init_precond: 1.593 [ms]
[OGL LOG][StoppingCriterion.H:239] Creating stopping criterion with minIter 4 frequency 1
[OGL LOG][Proc: 0]Ux: generate_solver: 0.019 [ms]
[OGL LOG][Proc: 0]Ux: solve: 70.40600000000001 [ms]
[OGL LOG][Proc: 0]Ux: copy_x_back: 2.725 [ms]
[OGL LOG][lduLduBase.H:330] 
Statistics:
	Time per iteration: 23468 [mu s]
	Time per residual norm calculation: 1238.000000 [mu s]
	Time per iteration and DOF: 1.860432 [ns]
	Retrieve results bandwidth 3.092000 [GByte/s]
[OGL LOG][Proc: 0]Ux: solve_multi_gpu: 83.7 [ms]
BJcudaGKOBiCGStab:  Solving for Ux, Initial residual = 0.006137878734881501, Final residual = 0.0005594545176200067, No Iterations 3
[OGL LOG][Proc: 0]: global_index_init: 0.067 [ms]
[OGL LOG][Proc: 0]Uy_local_coeffs: call_update: 0 [ms]
[OGL LOG][Proc: 0]Uy_non_local_coeffs: call_update: 0 [ms]
[OGL LOG][Proc: 0]Uy: update_local_matrix_data: 39.788 [ms]
[OGL LOG][Proc: 0]Uy: update_non_local_matrix_data: 0.322 [ms]
[OGL LOG][Proc: 0]Uy_matrix: call_update: 3.195 [ms]
[OGL LOG][Proc: 0]Uy_rhs: call_update: 0.899 [ms]
[OGL LOG][Preconditioner.H:121] Generate preconditioner BJ MaxBlockSize 1
[OGL LOG][Proc: 0]Uy: init_precond: 1.39 [ms]
[OGL LOG][StoppingCriterion.H:239] Creating stopping criterion with minIter 4 frequency 1
[OGL LOG][Proc: 0]Uy: generate_solver: 0.015 [ms]
[OGL LOG][Proc: 0]Uy: solve: 69.20999999999999 [ms]
[OGL LOG][Proc: 0]Uy: copy_x_back: 2.587 [ms]
[OGL LOG][lduLduBase.H:330] 
Statistics:
	Time per iteration: 23070 [mu s]
	Time per residual norm calculation: 1813.000000 [mu s]
	Time per iteration and DOF: 1.828881 [ns]
	Retrieve results bandwidth 3.257000 [GByte/s]
[OGL LOG][Proc: 0]Uy: solve_multi_gpu: 80.861 [ms]
BJcudaGKOBiCGStab:  Solving for Uy, Initial residual = 0.0242631658582229, Final residual = 0.002129418713091042, No Iterations 3
[OGL LOG][Proc: 0]: global_index_init: 0.411 [ms]
[OGL LOG][Proc: 0]Uz_local_coeffs: call_update: 0 [ms]
[OGL LOG][Proc: 0]Uz_non_local_coeffs: call_update: 0 [ms]
[OGL LOG][Proc: 0]Uz: update_local_matrix_data: 39.374 [ms]
[OGL LOG][Proc: 0]Uz: update_non_local_matrix_data: 0.296 [ms]
[OGL LOG][Proc: 0]Uz_matrix: call_update: 2.757 [ms]
[OGL LOG][Proc: 0]Uz_rhs: call_update: 0.992 [ms]
[OGL LOG][Preconditioner.H:121] Generate preconditioner BJ MaxBlockSize 1
[OGL LOG][Proc: 0]Uz: init_precond: 1.306 [ms]
[OGL LOG][StoppingCriterion.H:239] Creating stopping criterion with minIter 4 frequency 1
[OGL LOG][Proc: 0]Uz: generate_solver: 0.016 [ms]
[OGL LOG][Proc: 0]Uz: solve: 68.72199999999999 [ms]
[OGL LOG][Proc: 0]Uz: copy_x_back: 2.644 [ms]
[OGL LOG][lduLduBase.H:330] 
Statistics:
	Time per iteration: 22907 [mu s]
	Time per residual norm calculation: 1454.000000 [mu s]
	Time per iteration and DOF: 1.815959 [ns]
	Retrieve results bandwidth 3.186000 [GByte/s]
[OGL LOG][Proc: 0]Uz: solve_multi_gpu: 80.673 [ms]
BJcudaGKOBiCGStab:  Solving for Uz, Initial residual = 0.02273143449376007, Final residual = 0.002112669536956452, No Iterations 3
[OGL LOG][Proc: 0]: global_index_init: 0.074 [ms]
[OGL LOG][Proc: 0]p_local_coeffs: call_update: 0 [ms]
[OGL LOG][Proc: 0]p_non_local_coeffs: call_update: 0 [ms]
[OGL LOG][Proc: 0]p: update_local_matrix_data: 33.149 [ms]
[OGL LOG][Proc: 0]p: update_non_local_matrix_data: 0.301 [ms]
[OGL LOG][Proc: 0]p_matrix: call_update: 2.254 [ms]
[OGL LOG][Proc: 0]p_rhs: call_update: 0.9399999999999999 [ms]
[OGL LOG][Preconditioner.H:121] Generate preconditioner BJ MaxBlockSize 1
[OGL LOG][Proc: 0]p: init_precond: 1.278 [ms]
[OGL LOG][StoppingCriterion.H:239] Creating stopping criterion with minIter 327 frequency 14
[OGL LOG][Proc: 0]p: generate_solver: 0.016 [ms]
[OGL LOG][Proc: 0]p: solve: 852.67 [ms]
[OGL LOG][Proc: 0]p: copy_x_back: 2.76 [ms]
[OGL LOG][lduLduBase.H:330] 
Statistics:
	Time per iteration: 2530 [mu s]
	Time per residual norm calculation: 1438.000000 [mu s]
	Time per iteration and DOF: 0.200566 [ns]
	Retrieve results bandwidth 3.052000 [GByte/s]
[OGL LOG][Proc: 0]p: solve_multi_gpu: 862.54 [ms]
BJcudaGKOCG:  Solving for p, Initial residual = 0.07557936191248547, Final residual = 0.0002948420955279838, No Iterations 337
time step continuity errors : sum local = 0.0004752027916073559, global = 6.447607950432289e-06, cumulative = -0.009109143615901106
[OGL LOG][Proc: 0]: global_index_init: 3.042 [ms]
[OGL LOG][Proc: 0]nuTilda_local_coeffs: call_update: 0 [ms]
[OGL LOG][Proc: 0]nuTilda_non_local_coeffs: call_update: 0 [ms]
[OGL LOG][Proc: 0]nuTilda: update_local_matrix_data: 39.56 [ms]
[OGL LOG][Proc: 0]nuTilda: update_non_local_matrix_data: 0.334 [ms]
[OGL LOG][Proc: 0]nuTilda_matrix: call_update: 2.271 [ms]
[OGL LOG][Proc: 0]nuTilda_rhs: call_update: 1.034 [ms]
[OGL LOG][Preconditioner.H:121] Generate preconditioner BJ MaxBlockSize 1
[OGL LOG][Proc: 0]nuTilda: init_precond: 1.265 [ms]
[OGL LOG][StoppingCriterion.H:239] Creating stopping criterion with minIter 3 frequency 1
[OGL LOG][Proc: 0]nuTilda: generate_solver: 0.015 [ms]
[OGL LOG][Proc: 0]nuTilda: solve: 58.516 [ms]
[OGL LOG][Proc: 0]nuTilda: copy_x_back: 2.689 [ms]
[OGL LOG][lduLduBase.H:330] 
Statistics:
	Time per iteration: 29258 [mu s]
	Time per residual norm calculation: 1273.000000 [mu s]
	Time per iteration and DOF: 2.319436 [ns]
	Retrieve results bandwidth 3.133000 [GByte/s]
[OGL LOG][Proc: 0]nuTilda: solve_multi_gpu: 79.245 [ms]
BJcudaGKOBiCGStab:  Solving for nuTilda, Initial residual = 0.01355106931164393, Final residual = 0.001069039625331089, No Iterations 2
ExecutionTime = 693.62 s  ClockTime = 696 s

Time = 100

velocityDampingConstraint velocityDamping damped 0 (0%) of cells, with max limit 300
[OGL LOG][Proc: 0]: global_index_init: 0.141 [ms]
[OGL LOG][Proc: 0]Ux_local_coeffs: call_update: 0 [ms]
[OGL LOG][Proc: 0]Ux_non_local_coeffs: call_update: 0 [ms]
[OGL LOG][Proc: 0]Ux: update_local_matrix_data: 40.03 [ms]
[OGL LOG][Proc: 0]Ux: update_non_local_matrix_data: 0.322 [ms]
[OGL LOG][Proc: 0]Ux_matrix: call_update: 2.535 [ms]
[OGL LOG][Proc: 0]Ux_rhs: call_update: 1.238 [ms]
[OGL LOG][Preconditioner.H:121] Generate preconditioner BJ MaxBlockSize 1
[OGL LOG][Proc: 0]Ux: init_precond: 1.414 [ms]
[OGL LOG][StoppingCriterion.H:239] Creating stopping criterion with minIter 4 frequency 1
[OGL LOG][Proc: 0]Ux: generate_solver: 0.015 [ms]
[OGL LOG][Proc: 0]Ux: solve: 74.70999999999999 [ms]
[OGL LOG][Proc: 0]Ux: copy_x_back: 2.532 [ms]
[OGL LOG][lduLduBase.H:330] 
Statistics:
	Time per iteration: 18677 [mu s]
	Time per residual norm calculation: 1653.000000 [mu s]
	Time per iteration and DOF: 1.480624 [ns]
	Retrieve results bandwidth 3.327000 [GByte/s]
[OGL LOG][Proc: 0]Ux: solve_multi_gpu: 89.095 [ms]
BJcudaGKOBiCGStab:  Solving for Ux, Initial residual = 0.006069635500592009, Final residual = 0.0001455864294235771, No Iterations 4
[OGL LOG][Proc: 0]: global_index_init: 0.043 [ms]
[OGL LOG][Proc: 0]Uy_local_coeffs: call_update: 0 [ms]
[OGL LOG][Proc: 0]Uy_non_local_coeffs: call_update: 0 [ms]
[OGL LOG][Proc: 0]Uy: update_local_matrix_data: 40.197 [ms]
[OGL LOG][Proc: 0]Uy: update_non_local_matrix_data: 0.309 [ms]
[OGL LOG][Proc: 0]Uy_matrix: call_update: 2.525 [ms]
[OGL LOG][Proc: 0]Uy_rhs: call_update: 1.113 [ms]
[OGL LOG][Preconditioner.H:121] Generate preconditioner BJ MaxBlockSize 1
[OGL LOG][Proc: 0]Uy: init_precond: 1.399 [ms]
[OGL LOG][StoppingCriterion.H:239] Creating stopping criterion with minIter 4 frequency 1
[OGL LOG][Proc: 0]Uy: generate_solver: 0.015 [ms]
[OGL LOG][Proc: 0]Uy: solve: 69.794 [ms]
[OGL LOG][Proc: 0]Uy: copy_x_back: 2.478 [ms]
[OGL LOG][lduLduBase.H:330] 
Statistics:
	Time per iteration: 23264 [mu s]
	Time per residual norm calculation: 1750.000000 [mu s]
	Time per iteration and DOF: 1.844260 [ns]
	Retrieve results bandwidth 3.400000 [GByte/s]
[OGL LOG][Proc: 0]Uy: solve_multi_gpu: 82.524 [ms]
BJcudaGKOBiCGStab:  Solving for Uy, Initial residual = 0.02398057248342034, Final residual = 0.001837137964271019, No Iterations 3
[OGL LOG][Proc: 0]: global_index_init: 0.302 [ms]
[OGL LOG][Proc: 0]Uz_local_coeffs: call_update: 0 [ms]
[OGL LOG][Proc: 0]Uz_non_local_coeffs: call_update: 0 [ms]
[OGL LOG][Proc: 0]Uz: update_local_matrix_data: 39.597 [ms]
[OGL LOG][Proc: 0]Uz: update_non_local_matrix_data: 0.35 [ms]
[OGL LOG][Proc: 0]Uz_matrix: call_update: 3.094 [ms]
[OGL LOG][Proc: 0]Uz_rhs: call_update: 1.043 [ms]
[OGL LOG][Preconditioner.H:121] Generate preconditioner BJ MaxBlockSize 1
[OGL LOG][Proc: 0]Uz: init_precond: 1.454 [ms]
[OGL LOG][StoppingCriterion.H:239] Creating stopping criterion with minIter 4 frequency 1
[OGL LOG][Proc: 0]Uz: generate_solver: 0.014 [ms]
[OGL LOG][Proc: 0]Uz: solve: 67.38200000000001 [ms]
[OGL LOG][Proc: 0]Uz: copy_x_back: 2.573 [ms]
[OGL LOG][lduLduBase.H:330] 
Statistics:
	Time per iteration: 22460 [mu s]
	Time per residual norm calculation: 1691.000000 [mu s]
	Time per iteration and DOF: 1.780523 [ns]
	Retrieve results bandwidth 3.274000 [GByte/s]
[OGL LOG][Proc: 0]Uz: solve_multi_gpu: 79.636 [ms]
BJcudaGKOBiCGStab:  Solving for Uz, Initial residual = 0.02260243355504426, Final residual = 0.001893524433200498, No Iterations 3
[OGL LOG][Proc: 0]: global_index_init: 0.312 [ms]
[OGL LOG][Proc: 0]p_local_coeffs: call_update: 0 [ms]
[OGL LOG][Proc: 0]p_non_local_coeffs: call_update: 0 [ms]
[OGL LOG][Proc: 0]p: update_local_matrix_data: 30.572 [ms]
[OGL LOG][Proc: 0]p: update_non_local_matrix_data: 0.363 [ms]
[OGL LOG][Proc: 0]p_matrix: call_update: 2.688 [ms]
[OGL LOG][Proc: 0]p_rhs: call_update: 0.956 [ms]
[OGL LOG][Preconditioner.H:121] Generate preconditioner BJ MaxBlockSize 1
[OGL LOG][Proc: 0]p: init_precond: 1.265 [ms]
[OGL LOG][StoppingCriterion.H:239] Creating stopping criterion with minIter 202 frequency 11
[OGL LOG][Proc: 0]p: generate_solver: 0.021 [ms]
[OGL LOG][Proc: 0]p: solve: 655.6950000000001 [ms]
[OGL LOG][Proc: 0]p: copy_x_back: 2.68 [ms]
[OGL LOG][lduLduBase.H:330] 
Statistics:
	Time per iteration: 2698 [mu s]
	Time per residual norm calculation: 1427.000000 [mu s]
	Time per iteration and DOF: 0.213885 [ns]
	Retrieve results bandwidth 3.144000 [GByte/s]
[OGL LOG][Proc: 0]p: solve_multi_gpu: 666.908 [ms]
BJcudaGKOCG:  Solving for p, Initial residual = 0.07416568325483754, Final residual = 0.0007176970661230619, No Iterations 243
time step continuity errors : sum local = 0.001162135006526157, global = -9.503343930270784e-05, cumulative = -0.009204177055203815
[OGL LOG][Proc: 0]: global_index_init: 1.181 [ms]
[OGL LOG][Proc: 0]nuTilda_local_coeffs: call_update: 0 [ms]
[OGL LOG][Proc: 0]nuTilda_non_local_coeffs: call_update: 0 [ms]
[OGL LOG][Proc: 0]nuTilda: update_local_matrix_data: 38.813 [ms]
[OGL LOG][Proc: 0]nuTilda: update_non_local_matrix_data: 0.334 [ms]
[OGL LOG][Proc: 0]nuTilda_matrix: call_update: 2.112 [ms]
[OGL LOG][Proc: 0]nuTilda_rhs: call_update: 1.109 [ms]
[OGL LOG][Preconditioner.H:121] Generate preconditioner BJ MaxBlockSize 1
[OGL LOG][Proc: 0]nuTilda: init_precond: 1.556 [ms]
[OGL LOG][StoppingCriterion.H:239] Creating stopping criterion with minIter 3 frequency 1
[OGL LOG][Proc: 0]nuTilda: generate_solver: 0.018 [ms]
[OGL LOG][Proc: 0]nuTilda: solve: 57.346 [ms]
[OGL LOG][Proc: 0]nuTilda: copy_x_back: 2.661 [ms]
[OGL LOG][lduLduBase.H:330] 
Statistics:
	Time per iteration: 28673 [mu s]
	Time per residual norm calculation: 1275.000000 [mu s]
	Time per iteration and DOF: 2.273060 [ns]
	Retrieve results bandwidth 3.166000 [GByte/s]
[OGL LOG][Proc: 0]nuTilda: solve_multi_gpu: 72.446 [ms]
BJcudaGKOBiCGStab:  Solving for nuTilda, Initial residual = 0.01258276799125315, Final residual = 0.001107217560821911, No Iterations 2
bounding nuTilda, min: -1.781727956880018e-05 max: 0.04102874529610899 average: 0.001311021674777061
ExecutionTime = 698.37 s  ClockTime = 701 s

End

Finalising parallel run
