/*---------------------------------------------------------------------------*\
| =========                 |                                                 |
| \\      /  F ield         | OpenFOAM: The Open Source CFD Toolbox           |
|  \\    /   O peration     | Version:  2306                                  |
|   \\  /    A nd           | Website:  www.openfoam.com                      |
|    \\/     M anipulation  |                                                 |
\*---------------------------------------------------------------------------*/
Build  : c423ebec-20231012 OPENFOAM=2306 version=v2306
Arch   : "LSB;label=32;scalar=64"
Exec   : decomposePar -force
Date   : Feb 16 2024
Time   : 09:03:02
Host   : hkn0340.localdomain
PID    : 3645369
--> FOAM Warning : 
    From Foam::fileName Foam::cwd_L()
    in file POSIX.C at line 552
    PWD is not the cwd() - reverting to physical description
I/O    : uncollated
--> FOAM Warning : 
    From Foam::fileName Foam::cwd_L()
    in file POSIX.C at line 552
    PWD is not the cwd() - reverting to physical description
Case   : /hkfs/work/workspace/scratch/eq4036-windsorbody_setup/workspace/1af8cea7252c2a55771597f5453b9956/case
nProcs : 1
trapFpe: Floating point exception trapping enabled (FOAM_SIGFPE).
fileModificationChecking : Monitoring run-time modified files using timeStampMaster (fileModificationSkew 5, maxFileModificationPolls 20)
allowSystemOperations : Allowing user-supplied system call operations

// * * * * * * * * * * * * * * * * * * * * * * * * * * * * * * * * * * * * * //
Create time

--> FOAM Warning : 
    From void* Foam::dlLibraryTable::openLibrary(const Foam::fileName&, bool)
    in file db/dynamicLibrary/dlLibraryTable/dlLibraryTable.C at line 188
    Could not load "libpetscFoam.so"
libpetscFoam.so: cannot open shared object file: No such file or directory


Decomposing mesh

Create mesh

Calculating distribution of cells
Decomposition method simple [760] (region region0)

Finished decomposition in 3.8 s

Calculating original mesh data

Distributing cells to processors

Distributing faces to processors

Distributing points to processors

Constructing processor meshes

Processor 0
    Number of cells = 19094
    Number of points = 37102
    Number of faces shared with processor 1 = 22
    Number of faces shared with processor 4 = 435
    Number of faces shared with processor 5 = 1
    Number of faces shared with processor 8 = 13643
    Number of faces shared with processor 9 = 1
    Number of faces shared with processor 16 = 4192
    Number of faces shared with processor 24 = 306
    Number of faces shared with processor 32 = 58
    Number of processor patches = 8
    Number of processor faces = 18658
    Number of boundary faces = 17544

Processor 1
    Number of cells = 506
    Number of points = 1146
    Number of faces shared with processor 0 = 22
    Number of faces shared with processor 5 = 44
    Number of faces shared with processor 9 = 82
    Number of faces shared with processor 17 = 490
    Number of processor patches = 4
    Number of processor faces = 638
    Number of boundary faces = 506

Processor 2: Number of cells = 0

Processor 3: Number of cells = 0

Processor 4
    Number of cells = 35914
    Number of points = 58526
    Number of faces shared with processor 0 = 435
    Number of faces shared with processor 5 = 108
    Number of faces shared with processor 8 = 6
    Number of faces shared with processor 12 = 16071
    Number of faces shared with processor 13 = 1
    Number of faces shared with processor 20 = 5786
    Number of faces shared with processor 28 = 1092
    Number of faces shared with processor 36 = 97
    Number of faces shared with processor 44 = 27
    Number of faces shared with processor 52 = 1
    Number of processor patches = 10
    Number of processor faces = 23624
    Number of boundary faces = 22200

Processor 5
    Number of cells = 9716
    Number of points = 19660
    Number of faces shared with processor 0 = 1
    Number of faces shared with processor 1 = 44
    Number of faces shared with processor 4 = 108
    Number of faces shared with processor 6 = 57
    Number of faces shared with processor 9 = 2
    Number of faces shared with processor 13 = 6906
    Number of faces shared with processor 14 = 1
    Number of faces shared with processor 21 = 2948
    Number of faces shared with processor 29 = 12
    Number of processor patches = 9
    Number of processor faces = 10079
    Number of boundary faces = 9723

Processor 6
    Number of cells = 1124
    Number of points = 2438
    Number of faces shared with processor 5 = 57
    Number of faces shared with processor 7 = 7
    Number of faces shared with processor 14 = 246
    Number of faces shared with processor 15 = 1
    Number of faces shared with processor 22 = 908
    Number of faces shared with processor 30 = 148
    Number of processor patches = 6
    Number of processor faces = 1367
    Number of boundary faces = 1132

Processor 7
    Number of cells = 37
    Number of points = 116
    Number of faces shared with processor 6 = 7
    Number of faces shared with processor 15 = 19
    Number of faces shared with processor 23 = 21
    Number of faces shared with processor 31 = 16
    Number of processor patches = 4
    Number of processor faces = 63
    Number of boundary faces = 44

Processor 8
    Number of cells = 17746
    Number of points = 36372
    Number of faces shared with processor 0 = 13643
    Number of faces shared with processor 4 = 6
    Number of faces shared with processor 9 = 65
    Number of faces shared with processor 12 = 208
    Number of faces shared with processor 13 = 1
    Number of faces shared with processor 16 = 8682
    Number of faces shared with processor 17 = 1
    Number of faces shared with processor 24 = 8053
    Number of faces shared with processor 25 = 1
    Number of faces shared with processor 32 = 1178
    Number of faces shared with processor 40 = 366
    Number of faces shared with processor 48 = 39
    Number of processor patches = 12
    Number of processor faces = 32243
    Number of boundary faces = 4371

Processor 9
    Number of cells = 9357
    Number of points = 18958
    Number of faces shared with processor 0 = 1
    Number of faces shared with processor 1 = 82
    Number of faces shared with processor 5 = 2
    Number of faces shared with processor 8 = 65
    Number of faces shared with processor 10 = 40
    Number of faces shared with processor 13 = 105
    Number of faces shared with processor 17 = 5240
    Number of faces shared with processor 18 = 1
    Number of faces shared with processor 25 = 4259
    Number of faces shared with processor 33 = 40
    Number of processor patches = 10
    Number of processor faces = 9835
    Number of boundary faces = 9341

Processor 10
    Number of cells = 1640
    Number of points = 3522
    Number of faces shared with processor 9 = 40
    Number of faces shared with processor 14 = 80
    Number of faces shared with processor 18 = 129
    Number of faces shared with processor 26 = 1631
    Number of processor patches = 4
    Number of processor faces = 1880
    Number of boundary faces = 1640

Processor 11: Number of cells = 0

Processor 12
    Number of cells = 15531
    Number of points = 32596
    Number of faces shared with processor 4 = 16071
    Number of faces shared with processor 8 = 208
    Number of faces shared with processor 13 = 95
    Number of faces shared with processor 16 = 2
    Number of faces shared with processor 20 = 6869
    Number of faces shared with processor 21 = 1
    Number of faces shared with processor 28 = 6996
    Number of faces shared with processor 36 = 1946
    Number of faces shared with processor 44 = 414
    Number of faces shared with processor 52 = 120
    Number of faces shared with processor 60 = 41
    Number of processor patches = 11
    Number of processor faces = 32763
    Number of boundary faces = 43

Processor 13
    Number of cells = 9246
    Number of points = 19114
    Number of faces shared with processor 4 = 1
    Number of faces shared with processor 5 = 6906
    Number of faces shared with processor 8 = 1
    Number of faces shared with processor 9 = 105
    Number of faces shared with processor 12 = 95
    Number of faces shared with processor 14 = 68
    Number of faces shared with processor 17 = 2
    Number of faces shared with processor 21 = 3506
    Number of faces shared with processor 29 = 5857
    Number of faces shared with processor 37 = 133
    Number of faces shared with processor 45 = 126
    Number of processor patches = 11
    Number of processor faces = 16800
    Number of boundary faces = 2502

Processor 14
    Number of cells = 10008
    Number of points = 20354
    Number of faces shared with processor 5 = 1
    Number of faces shared with processor 6 = 246
    Number of faces shared with processor 10 = 80
    Number of faces shared with processor 13 = 68
    Number of faces shared with processor 15 = 66
    Number of faces shared with processor 18 = 2
    Number of faces shared with processor 22 = 5719
    Number of faces shared with processor 30 = 4308
    Number of faces shared with processor 38 = 89
    Number of faces shared with processor 46 = 20
    Number of processor patches = 10
    Number of processor faces = 10599
    Number of boundary faces = 9943

Processor 15
    Number of cells = 2863
    Number of points = 5992
    Number of faces shared with processor 6 = 1
    Number of faces shared with processor 7 = 19
    Number of faces shared with processor 14 = 66
    Number of faces shared with processor 23 = 321
    Number of faces shared with processor 31 = 2278
    Number of faces shared with processor 39 = 519
    Number of processor patches = 6
    Number of processor faces = 3204
    Number of boundary faces = 2874

Processor 16
    Number of cells = 12467
    Number of points = 26542
    Number of faces shared with processor 0 = 4192
    Number of faces shared with processor 8 = 8682
    Number of faces shared with processor 12 = 2
    Number of faces shared with processor 17 = 78
    Number of faces shared with processor 20 = 158
    Number of faces shared with processor 24 = 3032
    Number of faces shared with processor 25 = 1
    Number of faces shared with processor 32 = 7735
    Number of faces shared with processor 40 = 2118
    Number of faces shared with processor 48 = 572
    Number of faces shared with processor 56 = 52
    Number of faces shared with processor 64 = 8
    Number of processor patches = 12
    Number of processor faces = 26630
    Number of boundary faces = 294

Processor 17
    Number of cells = 7597
    Number of points = 15922
    Number of faces shared with processor 1 = 490
    Number of faces shared with processor 8 = 1
    Number of faces shared with processor 9 = 5240
    Number of faces shared with processor 13 = 2
    Number of faces shared with processor 16 = 78
    Number of faces shared with processor 18 = 44
    Number of faces shared with processor 21 = 135
    Number of faces shared with processor 25 = 1661
    Number of faces shared with processor 26 = 1
    Number of faces shared with processor 33 = 5563
    Number of faces shared with processor 41 = 629
    Number of processor patches = 11
    Number of processor faces = 13844
    Number of boundary faces = 2049

Processor 18
    Number of cells = 7997
    Number of points = 16364
    Number of faces shared with processor 9 = 1
    Number of faces shared with processor 10 = 129
    Number of faces shared with processor 14 = 2
    Number of faces shared with processor 17 = 44
    Number of faces shared with processor 19 = 42
    Number of faces shared with processor 22 = 64
    Number of faces shared with processor 26 = 2758
    Number of faces shared with processor 34 = 5365
    Number of faces shared with processor 35 = 1
    Number of faces shared with processor 42 = 46
    Number of processor patches = 10
    Number of processor faces = 8452
    Number of boundary faces = 7988

Processor 19
    Number of cells = 1707
    Number of points = 3662
    Number of faces shared with processor 18 = 42
    Number of faces shared with processor 23 = 82
    Number of faces shared with processor 27 = 122
    Number of faces shared with processor 35 = 1707
    Number of processor patches = 4
    Number of processor faces = 1953
    Number of boundary faces = 1707

Processor 20
    Number of cells = 11812
    Number of points = 25178
    Number of faces shared with processor 4 = 5786
    Number of faces shared with processor 12 = 6869
    Number of faces shared with processor 16 = 158
    Number of faces shared with processor 21 = 26
    Number of faces shared with processor 24 = 6
    Number of faces shared with processor 28 = 1859
    Number of faces shared with processor 29 = 1
    Number of faces shared with processor 36 = 8574
    Number of faces shared with processor 44 = 1883
    Number of faces shared with processor 52 = 203
    Number of faces shared with processor 60 = 236
    Number of faces shared with processor 68 = 52
    Number of processor patches = 12
    Number of processor faces = 25653
    Number of boundary faces = 66

Processor 21
    Number of cells = 6078
    Number of points = 12946
    Number of faces shared with processor 5 = 2948
    Number of faces shared with processor 12 = 1
    Number of faces shared with processor 13 = 3506
    Number of faces shared with processor 17 = 135
    Number of faces shared with processor 20 = 26
    Number of faces shared with processor 22 = 83
    Number of faces shared with processor 29 = 1839
    Number of faces shared with processor 30 = 1
    Number of faces shared with processor 37 = 3183
    Number of faces shared with processor 45 = 856
    Number of faces shared with processor 53 = 331
    Number of processor patches = 11
    Number of processor faces = 12909
    Number of boundary faces = 0

Processor 22
    Number of cells = 7399
    Number of points = 15248
    Number of faces shared with processor 6 = 908
    Number of faces shared with processor 14 = 5719
    Number of faces shared with processor 18 = 64
    Number of faces shared with processor 21 = 83
    Number of faces shared with processor 23 = 44
    Number of faces shared with processor 26 = 2
    Number of faces shared with processor 30 = 1487
    Number of faces shared with processor 31 = 1
    Number of faces shared with processor 38 = 5751
    Number of faces shared with processor 46 = 379
    Number of faces shared with processor 54 = 156
    Number of processor patches = 11
    Number of processor faces = 14594
    Number of boundary faces = 904

Processor 23
    Number of cells = 11334
    Number of points = 23126
    Number of faces shared with processor 7 = 21
    Number of faces shared with processor 15 = 321
    Number of faces shared with processor 19 = 82
    Number of faces shared with processor 22 = 44
    Number of faces shared with processor 27 = 2
    Number of faces shared with processor 31 = 2969
    Number of faces shared with processor 39 = 7922
    Number of faces shared with processor 47 = 800
    Number of faces shared with processor 55 = 21
    Number of processor patches = 9
    Number of processor faces = 12182
    Number of boundary faces = 11261

Processor 24
    Number of cells = 10513
    Number of points = 22579
    Number of faces shared with processor 0 = 306
    Number of faces shared with processor 8 = 8053
    Number of faces shared with processor 16 = 3032
    Number of faces shared with processor 20 = 6
    Number of faces shared with processor 25 = 36
    Number of faces shared with processor 28 = 96
    Number of faces shared with processor 32 = 1173
    Number of faces shared with processor 40 = 7850
    Number of faces shared with processor 48 = 1835
    Number of faces shared with processor 56 = 488
    Number of faces shared with processor 64 = 51
    Number of faces shared with processor 72 = 14
    Number of processor patches = 12
    Number of processor faces = 22940
    Number of boundary faces = 65

Processor 25
    Number of cells = 5880
    Number of points = 12200
    Number of faces shared with processor 8 = 1
    Number of faces shared with processor 9 = 4259
    Number of faces shared with processor 16 = 1
    Number of faces shared with processor 17 = 1661
    Number of faces shared with processor 24 = 36
    Number of faces shared with processor 26 = 75
    Number of faces shared with processor 29 = 36
    Number of faces shared with processor 32 = 1
    Number of faces shared with processor 33 = 721
    Number of faces shared with processor 34 = 1
    Number of faces shared with processor 41 = 4764
    Number of faces shared with processor 49 = 622
    Number of faces shared with processor 57 = 1
    Number of processor patches = 13
    Number of processor faces = 12179
    Number of boundary faces = 218

Processor 26
    Number of cells = 6147
    Number of points = 12934
    Number of faces shared with processor 10 = 1631
    Number of faces shared with processor 17 = 1
    Number of faces shared with processor 18 = 2758
    Number of faces shared with processor 22 = 2
    Number of faces shared with processor 25 = 75
    Number of faces shared with processor 27 = 38
    Number of faces shared with processor 30 = 122
    Number of faces shared with processor 34 = 831
    Number of faces shared with processor 42 = 5032
    Number of faces shared with processor 50 = 536
    Number of processor patches = 10
    Number of processor faces = 11026
    Number of boundary faces = 1931

Processor 27
    Number of cells = 8260
    Number of points = 16840
    Number of faces shared with processor 19 = 122
    Number of faces shared with processor 23 = 2
    Number of faces shared with processor 26 = 38
    Number of faces shared with processor 31 = 121
    Number of faces shared with processor 35 = 1561
    Number of faces shared with processor 43 = 6956
    Number of faces shared with processor 51 = 15
    Number of processor patches = 7
    Number of processor faces = 8815
    Number of boundary faces = 8260

Processor 28
    Number of cells = 8980
    Number of points = 20268
    Number of faces shared with processor 4 = 1092
    Number of faces shared with processor 12 = 6996
    Number of faces shared with processor 20 = 1859
    Number of faces shared with processor 24 = 96
    Number of faces shared with processor 29 = 59
    Number of faces shared with processor 32 = 4
    Number of faces shared with processor 36 = 1311
    Number of faces shared with processor 37 = 1
    Number of faces shared with processor 44 = 4899
    Number of faces shared with processor 52 = 2896
    Number of faces shared with processor 60 = 797
    Number of faces shared with processor 68 = 404
    Number of faces shared with processor 76 = 27
    Number of processor patches = 13
    Number of processor faces = 20441
    Number of boundary faces = 42

Processor 29
    Number of cells = 7577
    Number of points = 15526
    Number of faces shared with processor 5 = 12
    Number of faces shared with processor 13 = 5857
    Number of faces shared with processor 20 = 1
    Number of faces shared with processor 21 = 1839
    Number of faces shared with processor 25 = 36
    Number of faces shared with processor 28 = 59
    Number of faces shared with processor 30 = 31
    Number of faces shared with processor 33 = 2
    Number of faces shared with processor 37 = 284
    Number of faces shared with processor 45 = 5923
    Number of faces shared with processor 53 = 1675
    Number of faces shared with processor 61 = 9
    Number of faces shared with processor 69 = 4
    Number of processor patches = 13
    Number of processor faces = 15732
    Number of boundary faces = 2

Processor 30
    Number of cells = 5569
    Number of points = 11852
    Number of faces shared with processor 6 = 148
    Number of faces shared with processor 14 = 4308
    Number of faces shared with processor 21 = 1
    Number of faces shared with processor 22 = 1487
    Number of faces shared with processor 26 = 122
    Number of faces shared with processor 29 = 31
    Number of faces shared with processor 31 = 73
    Number of faces shared with processor 34 = 2
    Number of faces shared with processor 38 = 629
    Number of faces shared with processor 46 = 4165
    Number of faces shared with processor 54 = 649
    Number of faces shared with processor 62 = 238
    Number of processor patches = 12
    Number of processor faces = 11853
    Number of boundary faces = 0

Processor 31
    Number of cells = 13465
    Number of points = 27738
    Number of faces shared with processor 7 = 16
    Number of faces shared with processor 15 = 2278
    Number of faces shared with processor 22 = 1
    Number of faces shared with processor 23 = 2969
    Number of faces shared with processor 27 = 121
    Number of faces shared with processor 30 = 73
    Number of faces shared with processor 35 = 2
    Number of faces shared with processor 39 = 2433
    Number of faces shared with processor 47 = 10454
    Number of faces shared with processor 55 = 980
    Number of faces shared with processor 63 = 117
    Number of processor patches = 11
    Number of processor faces = 19444
    Number of boundary faces = 8595

Processor 32
    Number of cells = 9203
    Number of points = 20477
    Number of faces shared with processor 0 = 58
    Number of faces shared with processor 8 = 1178
    Number of faces shared with processor 16 = 7735
    Number of faces shared with processor 24 = 1173
    Number of faces shared with processor 25 = 1
    Number of faces shared with processor 28 = 4
    Number of faces shared with processor 33 = 56
    Number of faces shared with processor 36 = 152
    Number of faces shared with processor 40 = 1278
    Number of faces shared with processor 48 = 5925
    Number of faces shared with processor 56 = 2773
    Number of faces shared with processor 64 = 329
    Number of faces shared with processor 72 = 114
    Number of faces shared with processor 80 = 10
    Number of processor patches = 14
    Number of processor faces = 20786
    Number of boundary faces = 51

Processor 33
    Number of cells = 6132
    Number of points = 13022
    Number of faces shared with processor 9 = 40
    Number of faces shared with processor 17 = 5563
    Number of faces shared with processor 25 = 721
    Number of faces shared with processor 29 = 2
    Number of faces shared with processor 32 = 56
    Number of faces shared with processor 34 = 27
    Number of faces shared with processor 37 = 107
    Number of faces shared with processor 41 = 339
    Number of faces shared with processor 49 = 5721
    Number of faces shared with processor 57 = 258
    Number of faces shared with processor 65 = 110
    Number of processor patches = 11
    Number of processor faces = 12944
    Number of boundary faces = 42

Processor 34
    Number of cells = 6245
    Number of points = 13002
    Number of faces shared with processor 18 = 5365
    Number of faces shared with processor 25 = 1
    Number of faces shared with processor 26 = 831
    Number of faces shared with processor 30 = 2
    Number of faces shared with processor 33 = 27
    Number of faces shared with processor 35 = 73
    Number of faces shared with processor 38 = 23
    Number of faces shared with processor 42 = 885
    Number of faces shared with processor 43 = 1
    Number of faces shared with processor 50 = 5007
    Number of faces shared with processor 58 = 563
    Number of processor patches = 11
    Number of processor faces = 12778
    Number of boundary faces = 302

Processor 35
    Number of cells = 12346
    Number of points = 25586
    Number of faces shared with processor 18 = 1
    Number of faces shared with processor 19 = 1707
    Number of faces shared with processor 27 = 1561
    Number of faces shared with processor 31 = 2
    Number of faces shared with processor 34 = 73
    Number of faces shared with processor 39 = 183
    Number of faces shared with processor 43 = 2706
    Number of faces shared with processor 51 = 9600
    Number of faces shared with processor 59 = 476
    Number of processor patches = 9
    Number of processor faces = 16309
    Number of boundary faces = 9349

Processor 36
    Number of cells = 10686
    Number of points = 23524
    Number of faces shared with processor 4 = 97
    Number of faces shared with processor 12 = 1946
    Number of faces shared with processor 20 = 8574
    Number of faces shared with processor 28 = 1311
    Number of faces shared with processor 32 = 152
    Number of faces shared with processor 37 = 21
    Number of faces shared with processor 40 = 5
    Number of faces shared with processor 44 = 1039
    Number of faces shared with processor 45 = 1
    Number of faces shared with processor 52 = 6957
    Number of faces shared with processor 60 = 2114
    Number of faces shared with processor 68 = 1378
    Number of faces shared with processor 76 = 178
    Number of faces shared with processor 84 = 12
    Number of faces shared with processor 92 = 2
    Number of processor patches = 15
    Number of processor faces = 23787
    Number of boundary faces = 27

Processor 37
    Number of cells = 3316
    Number of points = 7374
    Number of faces shared with processor 13 = 133
    Number of faces shared with processor 21 = 3183
    Number of faces shared with processor 28 = 1
    Number of faces shared with processor 29 = 284
    Number of faces shared with processor 33 = 107
    Number of faces shared with processor 36 = 21
    Number of faces shared with processor 38 = 54
    Number of faces shared with processor 45 = 200
    Number of faces shared with processor 46 = 3
    Number of faces shared with processor 53 = 2917
    Number of faces shared with processor 61 = 265
    Number of faces shared with processor 69 = 112
    Number of faces shared with processor 77 = 23
    Number of processor patches = 13
    Number of processor faces = 7303
    Number of boundary faces = 7

Processor 38
    Number of cells = 6364
    Number of points = 13044
    Number of faces shared with processor 14 = 89
    Number of faces shared with processor 22 = 5751
    Number of faces shared with processor 30 = 629
    Number of faces shared with processor 34 = 23
    Number of faces shared with processor 37 = 54
    Number of faces shared with processor 39 = 28
    Number of faces shared with processor 42 = 2
    Number of faces shared with processor 46 = 372
    Number of faces shared with processor 47 = 1
    Number of faces shared with processor 54 = 5299
    Number of faces shared with processor 62 = 1042
    Number of processor patches = 11
    Number of processor faces = 13290
    Number of boundary faces = 0

Processor 39
    Number of cells = 12099
    Number of points = 25170
    Number of faces shared with processor 15 = 519
    Number of faces shared with processor 23 = 7922
    Number of faces shared with processor 31 = 2433
    Number of faces shared with processor 35 = 183
    Number of faces shared with processor 38 = 28
    Number of faces shared with processor 43 = 2
    Number of faces shared with processor 47 = 1850
    Number of faces shared with processor 55 = 9181
    Number of faces shared with processor 63 = 1297
    Number of faces shared with processor 71 = 284
    Number of processor patches = 10
    Number of processor faces = 23699
    Number of boundary faces = 1759

Processor 40
    Number of cells = 10400
    Number of points = 22974
    Number of faces shared with processor 8 = 366
    Number of faces shared with processor 16 = 2118
    Number of faces shared with processor 24 = 7850
    Number of faces shared with processor 32 = 1278
    Number of faces shared with processor 36 = 5
    Number of faces shared with processor 41 = 38
    Number of faces shared with processor 44 = 113
    Number of faces shared with processor 48 = 1131
    Number of faces shared with processor 49 = 1
    Number of faces shared with processor 56 = 8131
    Number of faces shared with processor 57 = 1
    Number of faces shared with processor 64 = 1374
    Number of faces shared with processor 72 = 753
    Number of faces shared with processor 80 = 98
    Number of processor patches = 14
    Number of processor faces = 23257
    Number of boundary faces = 35

Processor 41
    Number of cells = 5436
    Number of points = 11378
    Number of faces shared with processor 17 = 629
    Number of faces shared with processor 25 = 4764
    Number of faces shared with processor 33 = 339
    Number of faces shared with processor 40 = 38
    Number of faces shared with processor 42 = 71
    Number of faces shared with processor 45 = 25
    Number of faces shared with processor 49 = 229
    Number of faces shared with processor 57 = 4128
    Number of faces shared with processor 65 = 1224
    Number of faces shared with processor 73 = 92
    Number of processor patches = 10
    Number of processor faces = 11539
    Number of boundary faces = 0

Processor 42
    Number of cells = 5809
    Number of points = 12356
    Number of faces shared with processor 18 = 46
    Number of faces shared with processor 26 = 5032
    Number of faces shared with processor 34 = 885
    Number of faces shared with processor 38 = 2
    Number of faces shared with processor 41 = 71
    Number of faces shared with processor 43 = 31
    Number of faces shared with processor 46 = 124
    Number of faces shared with processor 50 = 460
    Number of faces shared with processor 51 = 1
    Number of faces shared with processor 58 = 5479
    Number of faces shared with processor 66 = 161
    Number of faces shared with processor 74 = 16
    Number of processor patches = 12
    Number of processor faces = 12308
    Number of boundary faces = 63

Processor 43
    Number of cells = 13322
    Number of points = 27096
    Number of faces shared with processor 27 = 6956
    Number of faces shared with processor 34 = 1
    Number of faces shared with processor 35 = 2706
    Number of faces shared with processor 39 = 2
    Number of faces shared with processor 42 = 31
    Number of faces shared with processor 47 = 151
    Number of faces shared with processor 51 = 2988
    Number of faces shared with processor 59 = 9711
    Number of faces shared with processor 63 = 1
    Number of faces shared with processor 67 = 1085
    Number of processor patches = 10
    Number of processor faces = 23632
    Number of boundary faces = 4097

Processor 44
    Number of cells = 7181
    Number of points = 16562
    Number of faces shared with processor 4 = 27
    Number of faces shared with processor 12 = 414
    Number of faces shared with processor 20 = 1883
    Number of faces shared with processor 28 = 4899
    Number of faces shared with processor 36 = 1039
    Number of faces shared with processor 40 = 113
    Number of faces shared with processor 45 = 69
    Number of faces shared with processor 48 = 3
    Number of faces shared with processor 52 = 1058
    Number of faces shared with processor 60 = 3840
    Number of faces shared with processor 68 = 2610
    Number of faces shared with processor 76 = 688
    Number of faces shared with processor 84 = 131
    Number of faces shared with processor 92 = 27
    Number of processor patches = 14
    Number of processor faces = 16801
    Number of boundary faces = 82

Processor 45
    Number of cells = 6871
    Number of points = 14492
    Number of faces shared with processor 13 = 126
    Number of faces shared with processor 21 = 856
    Number of faces shared with processor 29 = 5923
    Number of faces shared with processor 36 = 1
    Number of faces shared with processor 37 = 200
    Number of faces shared with processor 41 = 25
    Number of faces shared with processor 44 = 69
    Number of faces shared with processor 46 = 22
    Number of faces shared with processor 49 = 2
    Number of faces shared with processor 53 = 440
    Number of faces shared with processor 54 = 2
    Number of faces shared with processor 61 = 5286
    Number of faces shared with processor 69 = 1037
    Number of faces shared with processor 77 = 555
    Number of processor patches = 14
    Number of processor faces = 14544
    Number of boundary faces = 0

Processor 46
    Number of cells = 4590
    Number of points = 9934
    Number of faces shared with processor 14 = 20
    Number of faces shared with processor 22 = 379
    Number of faces shared with processor 30 = 4165
    Number of faces shared with processor 37 = 3
    Number of faces shared with processor 38 = 372
    Number of faces shared with processor 42 = 124
    Number of faces shared with processor 45 = 22
    Number of faces shared with processor 47 = 62
    Number of faces shared with processor 50 = 2
    Number of faces shared with processor 53 = 1
    Number of faces shared with processor 54 = 174
    Number of faces shared with processor 55 = 2
    Number of faces shared with processor 62 = 4334
    Number of faces shared with processor 70 = 175
    Number of faces shared with processor 78 = 81
    Number of processor patches = 15
    Number of processor faces = 9916
    Number of boundary faces = 8

Processor 47
    Number of cells = 12782
    Number of points = 26644
    Number of faces shared with processor 23 = 800
    Number of faces shared with processor 31 = 10454
    Number of faces shared with processor 38 = 1
    Number of faces shared with processor 39 = 1850
    Number of faces shared with processor 43 = 151
    Number of faces shared with processor 46 = 62
    Number of faces shared with processor 51 = 3
    Number of faces shared with processor 55 = 1903
    Number of faces shared with processor 63 = 9942
    Number of faces shared with processor 71 = 1292
    Number of faces shared with processor 79 = 195
    Number of processor patches = 11
    Number of processor faces = 26653
    Number of boundary faces = 202

Processor 48
    Number of cells = 8426
    Number of points = 19100
    Number of faces shared with processor 8 = 39
    Number of faces shared with processor 16 = 572
    Number of faces shared with processor 24 = 1835
    Number of faces shared with processor 32 = 5925
    Number of faces shared with processor 40 = 1131
    Number of faces shared with processor 44 = 3
    Number of faces shared with processor 49 = 54
    Number of faces shared with processor 52 = 102
    Number of faces shared with processor 56 = 1271
    Number of faces shared with processor 57 = 1
    Number of faces shared with processor 64 = 5141
    Number of faces shared with processor 72 = 2315
    Number of faces shared with processor 80 = 851
    Number of faces shared with processor 88 = 79
    Number of processor patches = 14
    Number of processor faces = 19319
    Number of boundary faces = 78

Processor 49
    Number of cells = 6343
    Number of points = 13464
    Number of faces shared with processor 25 = 622
    Number of faces shared with processor 33 = 5721
    Number of faces shared with processor 40 = 1
    Number of faces shared with processor 41 = 229
    Number of faces shared with processor 45 = 2
    Number of faces shared with processor 48 = 54
    Number of faces shared with processor 50 = 24
    Number of faces shared with processor 53 = 118
    Number of faces shared with processor 57 = 369
    Number of faces shared with processor 58 = 1
    Number of faces shared with processor 65 = 6065
    Number of faces shared with processor 73 = 261
    Number of faces shared with processor 81 = 7
    Number of processor patches = 13
    Number of processor faces = 13474
    Number of boundary faces = 4

Processor 50
    Number of cells = 5696
    Number of points = 12004
    Number of faces shared with processor 26 = 536
    Number of faces shared with processor 34 = 5007
    Number of faces shared with processor 42 = 460
    Number of faces shared with processor 46 = 2
    Number of faces shared with processor 49 = 24
    Number of faces shared with processor 51 = 72
    Number of faces shared with processor 54 = 11
    Number of faces shared with processor 58 = 1121
    Number of faces shared with processor 59 = 1
    Number of faces shared with processor 66 = 3972
    Number of faces shared with processor 74 = 800
    Number of faces shared with processor 82 = 29
    Number of processor patches = 12
    Number of processor faces = 12035
    Number of boundary faces = 0

Processor 51
    Number of cells = 13055
    Number of points = 27232
    Number of faces shared with processor 27 = 15
    Number of faces shared with processor 35 = 9600
    Number of faces shared with processor 42 = 1
    Number of faces shared with processor 43 = 2988
    Number of faces shared with processor 47 = 3
    Number of faces shared with processor 50 = 72
    Number of faces shared with processor 55 = 175
    Number of faces shared with processor 59 = 3209
    Number of faces shared with processor 63 = 1
    Number of faces shared with processor 67 = 9878
    Number of faces shared with processor 75 = 531
    Number of faces shared with processor 83 = 7
    Number of processor patches = 12
    Number of processor faces = 26480
    Number of boundary faces = 923

Processor 52
    Number of cells = 10196
    Number of points = 22317
    Number of faces shared with processor 4 = 1
    Number of faces shared with processor 12 = 120
    Number of faces shared with processor 20 = 203
    Number of faces shared with processor 28 = 2896
    Number of faces shared with processor 36 = 6957
    Number of faces shared with processor 44 = 1058
    Number of faces shared with processor 48 = 102
    Number of faces shared with processor 53 = 10
    Number of faces shared with processor 56 = 4
    Number of faces shared with processor 60 = 935
    Number of faces shared with processor 68 = 7813
    Number of faces shared with processor 76 = 1944
    Number of faces shared with processor 84 = 251
    Number of faces shared with processor 92 = 181
    Number of faces shared with processor 100 = 54
    Number of processor patches = 15
    Number of processor faces = 22529
    Number of boundary faces = 27

Processor 53
    Number of cells = 4922
    Number of points = 10514
    Number of faces shared with processor 21 = 331
    Number of faces shared with processor 29 = 1675
    Number of faces shared with processor 37 = 2917
    Number of faces shared with processor 45 = 440
    Number of faces shared with processor 46 = 1
    Number of faces shared with processor 49 = 118
    Number of faces shared with processor 52 = 10
    Number of faces shared with processor 54 = 79
    Number of faces shared with processor 61 = 77
    Number of faces shared with processor 69 = 3854
    Number of faces shared with processor 77 = 802
    Number of faces shared with processor 85 = 336
    Number of processor patches = 12
    Number of processor faces = 10640
    Number of boundary faces = 0

Processor 54
    Number of cells = 6094
    Number of points = 12874
    Number of faces shared with processor 22 = 156
    Number of faces shared with processor 30 = 649
    Number of faces shared with processor 38 = 5299
    Number of faces shared with processor 45 = 2
    Number of faces shared with processor 46 = 174
    Number of faces shared with processor 50 = 11
    Number of faces shared with processor 53 = 79
    Number of faces shared with processor 55 = 18
    Number of faces shared with processor 58 = 2
    Number of faces shared with processor 62 = 455
    Number of faces shared with processor 63 = 2
    Number of faces shared with processor 70 = 5154
    Number of faces shared with processor 78 = 445
    Number of faces shared with processor 86 = 503
    Number of processor patches = 14
    Number of processor faces = 12949
    Number of boundary faces = 0

Processor 55
    Number of cells = 11659
    Number of points = 24448
    Number of faces shared with processor 23 = 21
    Number of faces shared with processor 31 = 980
    Number of faces shared with processor 39 = 9181
    Number of faces shared with processor 46 = 2
    Number of faces shared with processor 47 = 1903
    Number of faces shared with processor 51 = 175
    Number of faces shared with processor 54 = 18
    Number of faces shared with processor 59 = 4
    Number of faces shared with processor 62 = 1
    Number of faces shared with processor 63 = 1707
    Number of faces shared with processor 71 = 9044
    Number of faces shared with processor 79 = 1491
    Number of faces shared with processor 87 = 83
    Number of processor patches = 13
    Number of processor faces = 24610
    Number of boundary faces = 137

Processor 56
    Number of cells = 11515
    Number of points = 25042
    Number of faces shared with processor 16 = 52
    Number of faces shared with processor 24 = 488
    Number of faces shared with processor 32 = 2773
    Number of faces shared with processor 40 = 8131
    Number of faces shared with processor 48 = 1271
    Number of faces shared with processor 52 = 4
    Number of faces shared with processor 57 = 17
    Number of faces shared with processor 60 = 135
    Number of faces shared with processor 64 = 958
    Number of faces shared with processor 72 = 8913
    Number of faces shared with processor 80 = 1815
    Number of faces shared with processor 88 = 774
    Number of faces shared with processor 96 = 64
    Number of faces shared with processor 104 = 1
    Number of processor patches = 14
    Number of processor faces = 25396
    Number of boundary faces = 25

Processor 57
    Number of cells = 4389
    Number of points = 9500
    Number of faces shared with processor 25 = 1
    Number of faces shared with processor 33 = 258
    Number of faces shared with processor 40 = 1
    Number of faces shared with processor 41 = 4128
    Number of faces shared with processor 48 = 1
    Number of faces shared with processor 49 = 369
    Number of faces shared with processor 56 = 17
    Number of faces shared with processor 58 = 73
    Number of faces shared with processor 61 = 16
    Number of faces shared with processor 65 = 504
    Number of faces shared with processor 73 = 3712
    Number of faces shared with processor 81 = 427
    Number of faces shared with processor 89 = 32
    Number of processor patches = 13
    Number of processor faces = 9539
    Number of boundary faces = 5

Processor 58
    Number of cells = 6938
    Number of points = 14628
    Number of faces shared with processor 34 = 563
    Number of faces shared with processor 42 = 5479
    Number of faces shared with processor 49 = 1
    Number of faces shared with processor 50 = 1121
    Number of faces shared with processor 54 = 2
    Number of faces shared with processor 57 = 73
    Number of faces shared with processor 59 = 33
    Number of faces shared with processor 62 = 128
    Number of faces shared with processor 66 = 399
    Number of faces shared with processor 67 = 1
    Number of faces shared with processor 74 = 6293
    Number of faces shared with processor 82 = 597
    Number of processor patches = 12
    Number of processor faces = 14690
    Number of boundary faces = 4

Processor 59
    Number of cells = 13116
    Number of points = 27264
    Number of faces shared with processor 35 = 476
    Number of faces shared with processor 43 = 9711
    Number of faces shared with processor 50 = 1
    Number of faces shared with processor 51 = 3209
    Number of faces shared with processor 55 = 4
    Number of faces shared with processor 58 = 33
    Number of faces shared with processor 63 = 169
    Number of faces shared with processor 67 = 2434
    Number of faces shared with processor 75 = 9848
    Number of faces shared with processor 83 = 1458
    Number of processor patches = 10
    Number of processor faces = 27343
    Number of boundary faces = 299

Processor 60
    Number of cells = 6804
    Number of points = 16067
    Number of faces shared with processor 12 = 41
    Number of faces shared with processor 20 = 236
    Number of faces shared with processor 28 = 797
    Number of faces shared with processor 36 = 2114
    Number of faces shared with processor 44 = 3840
    Number of faces shared with processor 52 = 935
    Number of faces shared with processor 56 = 135
    Number of faces shared with processor 61 = 63
    Number of faces shared with processor 64 = 4
    Number of faces shared with processor 68 = 1153
    Number of faces shared with processor 76 = 4217
    Number of faces shared with processor 84 = 1409
    Number of faces shared with processor 92 = 614
    Number of faces shared with processor 100 = 508
    Number of faces shared with processor 108 = 62
    Number of processor patches = 15
    Number of processor faces = 16128
    Number of boundary faces = 26

Processor 61
    Number of cells = 5553
    Number of points = 11736
    Number of faces shared with processor 29 = 9
    Number of faces shared with processor 37 = 265
    Number of faces shared with processor 45 = 5286
    Number of faces shared with processor 53 = 77
    Number of faces shared with processor 57 = 16
    Number of faces shared with processor 60 = 63
    Number of faces shared with processor 62 = 10
    Number of faces shared with processor 65 = 2
    Number of faces shared with processor 69 = 408
    Number of faces shared with processor 77 = 4562
    Number of faces shared with processor 85 = 997
    Number of faces shared with processor 86 = 1
    Number of faces shared with processor 93 = 10
    Number of processor patches = 13
    Number of processor faces = 11706
    Number of boundary faces = 0

Processor 62
    Number of cells = 5614
    Number of points = 11902
    Number of faces shared with processor 30 = 238
    Number of faces shared with processor 38 = 1042
    Number of faces shared with processor 46 = 4334
    Number of faces shared with processor 54 = 455
    Number of faces shared with processor 55 = 1
    Number of faces shared with processor 58 = 128
    Number of faces shared with processor 61 = 10
    Number of faces shared with processor 63 = 82
    Number of faces shared with processor 70 = 395
    Number of faces shared with processor 78 = 4338
    Number of faces shared with processor 86 = 900
    Number of faces shared with processor 94 = 164
    Number of processor patches = 12
    Number of processor faces = 12087
    Number of boundary faces = 0

Processor 63
    Number of cells = 12462
    Number of points = 26466
    Number of faces shared with processor 31 = 117
    Number of faces shared with processor 39 = 1297
    Number of faces shared with processor 43 = 1
    Number of faces shared with processor 47 = 9942
    Number of faces shared with processor 51 = 1
    Number of faces shared with processor 54 = 2
    Number of faces shared with processor 55 = 1707
    Number of faces shared with processor 59 = 169
    Number of faces shared with processor 62 = 82
    Number of faces shared with processor 67 = 6
    Number of faces shared with processor 71 = 2484
    Number of faces shared with processor 79 = 9293
    Number of faces shared with processor 87 = 1028
    Number of faces shared with processor 95 = 413
    Number of processor patches = 14
    Number of processor faces = 26542
    Number of boundary faces = 96

Processor 64
    Number of cells = 6885
    Number of points = 15974
    Number of faces shared with processor 16 = 8
    Number of faces shared with processor 24 = 51
    Number of faces shared with processor 32 = 329
    Number of faces shared with processor 40 = 1374
    Number of faces shared with processor 48 = 5141
    Number of faces shared with processor 56 = 958
    Number of faces shared with processor 60 = 4
    Number of faces shared with processor 65 = 79
    Number of faces shared with processor 68 = 100
    Number of faces shared with processor 72 = 1160
    Number of faces shared with processor 80 = 4966
    Number of faces shared with processor 88 = 1473
    Number of faces shared with processor 96 = 314
    Number of faces shared with processor 104 = 92
    Number of faces shared with processor 112 = 10
    Number of processor patches = 15
    Number of processor faces = 16059
    Number of boundary faces = 32

Processor 65
    Number of cells = 7617
    Number of points = 16046
    Number of faces shared with processor 33 = 110
    Number of faces shared with processor 41 = 1224
    Number of faces shared with processor 49 = 6065
    Number of faces shared with processor 57 = 504
    Number of faces shared with processor 61 = 2
    Number of faces shared with processor 64 = 79
    Number of faces shared with processor 66 = 17
    Number of faces shared with processor 69 = 127
    Number of faces shared with processor 72 = 1
    Number of faces shared with processor 73 = 381
    Number of faces shared with processor 74 = 1
    Number of faces shared with processor 81 = 6461
    Number of faces shared with processor 89 = 832
    Number of faces shared with processor 97 = 363
    Number of processor patches = 14
    Number of processor faces = 16167
    Number of boundary faces = 0

Processor 66
    Number of cells = 4182
    Number of points = 9103
    Number of faces shared with processor 42 = 161
    Number of faces shared with processor 50 = 3972
    Number of faces shared with processor 58 = 399
    Number of faces shared with processor 65 = 17
    Number of faces shared with processor 67 = 68
    Number of faces shared with processor 70 = 15
    Number of faces shared with processor 74 = 1152
    Number of faces shared with processor 75 = 1
    Number of faces shared with processor 82 = 3049
    Number of faces shared with processor 90 = 248
    Number of faces shared with processor 98 = 11
    Number of processor patches = 11
    Number of processor faces = 9093
    Number of boundary faces = 4

Processor 67
    Number of cells = 12924
    Number of points = 27198
    Number of faces shared with processor 43 = 1085
    Number of faces shared with processor 51 = 9878
    Number of faces shared with processor 58 = 1
    Number of faces shared with processor 59 = 2434
    Number of faces shared with processor 63 = 6
    Number of faces shared with processor 66 = 68
    Number of faces shared with processor 71 = 172
    Number of faces shared with processor 75 = 3085
    Number of faces shared with processor 79 = 1
    Number of faces shared with processor 83 = 8990
    Number of faces shared with processor 91 = 1572
    Number of processor patches = 11
    Number of processor faces = 27292
    Number of boundary faces = 161

Processor 68
    Number of cells = 11878
    Number of points = 26580
    Number of faces shared with processor 20 = 52
    Number of faces shared with processor 28 = 404
    Number of faces shared with processor 36 = 1378
    Number of faces shared with processor 44 = 2610
    Number of faces shared with processor 52 = 7813
    Number of faces shared with processor 60 = 1153
    Number of faces shared with processor 64 = 100
    Number of faces shared with processor 69 = 15
    Number of faces shared with processor 72 = 8
    Number of faces shared with processor 76 = 1406
    Number of faces shared with processor 77 = 1
    Number of faces shared with processor 84 = 7720
    Number of faces shared with processor 92 = 2135
    Number of faces shared with processor 100 = 1634
    Number of faces shared with processor 108 = 369
    Number of faces shared with processor 116 = 26
    Number of processor patches = 16
    Number of processor faces = 26824
    Number of boundary faces = 47

Processor 69
    Number of cells = 4937
    Number of points = 10806
    Number of faces shared with processor 29 = 4
    Number of faces shared with processor 37 = 112
    Number of faces shared with processor 45 = 1037
    Number of faces shared with processor 53 = 3854
    Number of faces shared with processor 61 = 408
    Number of faces shared with processor 65 = 127
    Number of faces shared with processor 68 = 15
    Number of faces shared with processor 70 = 69
    Number of faces shared with processor 77 = 265
    Number of faces shared with processor 78 = 1
    Number of faces shared with processor 85 = 4362
    Number of faces shared with processor 93 = 448
    Number of faces shared with processor 101 = 94
    Number of faces shared with processor 109 = 38
    Number of processor patches = 14
    Number of processor faces = 10834
    Number of boundary faces = 8

Processor 70
    Number of cells = 5575
    Number of points = 11879
    Number of faces shared with processor 46 = 175
    Number of faces shared with processor 54 = 5154
    Number of faces shared with processor 62 = 395
    Number of faces shared with processor 66 = 15
    Number of faces shared with processor 69 = 69
    Number of faces shared with processor 71 = 12
    Number of faces shared with processor 74 = 2
    Number of faces shared with processor 78 = 450
    Number of faces shared with processor 79 = 1
    Number of faces shared with processor 86 = 5374
    Number of faces shared with processor 94 = 215
    Number of faces shared with processor 102 = 4
    Number of processor patches = 12
    Number of processor faces = 11866
    Number of boundary faces = 0

Processor 71
    Number of cells = 12393
    Number of points = 26346
    Number of faces shared with processor 39 = 284
    Number of faces shared with processor 47 = 1292
    Number of faces shared with processor 55 = 9044
    Number of faces shared with processor 63 = 2484
    Number of faces shared with processor 67 = 172
    Number of faces shared with processor 70 = 12
    Number of faces shared with processor 75 = 6
    Number of faces shared with processor 79 = 1728
    Number of faces shared with processor 87 = 9492
    Number of faces shared with processor 95 = 1561
    Number of faces shared with processor 103 = 411
    Number of processor patches = 11
    Number of processor faces = 26486
    Number of boundary faces = 64

Processor 72
    Number of cells = 11721
    Number of points = 26159
    Number of faces shared with processor 24 = 14
    Number of faces shared with processor 32 = 114
    Number of faces shared with processor 40 = 753
    Number of faces shared with processor 48 = 2315
    Number of faces shared with processor 56 = 8913
    Number of faces shared with processor 64 = 1160
    Number of faces shared with processor 65 = 1
    Number of faces shared with processor 68 = 8
    Number of faces shared with processor 73 = 14
    Number of faces shared with processor 76 = 165
    Number of faces shared with processor 80 = 1333
    Number of faces shared with processor 81 = 1
    Number of faces shared with processor 88 = 9464
    Number of faces shared with processor 96 = 1258
    Number of faces shared with processor 97 = 1
    Number of faces shared with processor 104 = 879
    Number of faces shared with processor 112 = 93
    Number of processor patches = 17
    Number of processor faces = 26486
    Number of boundary faces = 58

Processor 73
    Number of cells = 4065
    Number of points = 8898
    Number of faces shared with processor 41 = 92
    Number of faces shared with processor 49 = 261
    Number of faces shared with processor 57 = 3712
    Number of faces shared with processor 65 = 381
    Number of faces shared with processor 72 = 14
    Number of faces shared with processor 74 = 79
    Number of faces shared with processor 77 = 4
    Number of faces shared with processor 81 = 743
    Number of faces shared with processor 82 = 1
    Number of faces shared with processor 89 = 3107
    Number of faces shared with processor 97 = 447
    Number of faces shared with processor 105 = 44
    Number of processor patches = 12
    Number of processor faces = 8885
    Number of boundary faces = 4

Processor 74
    Number of cells = 7985
    Number of points = 16808
    Number of faces shared with processor 42 = 16
    Number of faces shared with processor 50 = 800
    Number of faces shared with processor 58 = 6293
    Number of faces shared with processor 65 = 1
    Number of faces shared with processor 66 = 1152
    Number of faces shared with processor 70 = 2
    Number of faces shared with processor 73 = 79
    Number of faces shared with processor 75 = 27
    Number of faces shared with processor 78 = 124
    Number of faces shared with processor 82 = 476
    Number of faces shared with processor 83 = 1
    Number of faces shared with processor 90 = 6868
    Number of faces shared with processor 91 = 1
    Number of faces shared with processor 98 = 796
    Number of faces shared with processor 106 = 233
    Number of processor patches = 15
    Number of processor faces = 16869
    Number of boundary faces = 0

Processor 75
    Number of cells = 12860
    Number of points = 27148
    Number of faces shared with processor 51 = 531
    Number of faces shared with processor 59 = 9848
    Number of faces shared with processor 66 = 1
    Number of faces shared with processor 67 = 3085
    Number of faces shared with processor 71 = 6
    Number of faces shared with processor 74 = 27
    Number of faces shared with processor 79 = 150
    Number of faces shared with processor 83 = 2791
    Number of faces shared with processor 91 = 9861
    Number of faces shared with processor 99 = 956
    Number of faces shared with processor 107 = 13
    Number of processor patches = 11
    Number of processor faces = 27269
    Number of boundary faces = 144

Processor 76
    Number of cells = 7073
    Number of points = 16452
    Number of faces shared with processor 28 = 27
    Number of faces shared with processor 36 = 178
    Number of faces shared with processor 44 = 688
    Number of faces shared with processor 52 = 1944
    Number of faces shared with processor 60 = 4217
    Number of faces shared with processor 68 = 1406
    Number of faces shared with processor 72 = 165
    Number of faces shared with processor 77 = 81
    Number of faces shared with processor 80 = 3
    Number of faces shared with processor 84 = 803
    Number of faces shared with processor 92 = 5520
    Number of faces shared with processor 100 = 775
    Number of faces shared with processor 108 = 699
    Number of faces shared with processor 116 = 177
    Number of processor patches = 14
    Number of processor faces = 16683
    Number of boundary faces = 19

Processor 77
    Number of cells = 5925
    Number of points = 12794
    Number of faces shared with processor 37 = 23
    Number of faces shared with processor 45 = 555
    Number of faces shared with processor 53 = 802
    Number of faces shared with processor 61 = 4562
    Number of faces shared with processor 68 = 1
    Number of faces shared with processor 69 = 265
    Number of faces shared with processor 73 = 4
    Number of faces shared with processor 76 = 81
    Number of faces shared with processor 78 = 17
    Number of faces shared with processor 81 = 2
    Number of faces shared with processor 85 = 571
    Number of faces shared with processor 86 = 2
    Number of faces shared with processor 93 = 4444
    Number of faces shared with processor 101 = 694
    Number of faces shared with processor 109 = 824
    Number of faces shared with processor 117 = 14
    Number of processor patches = 16
    Number of processor faces = 12861
    Number of boundary faces = 1

Processor 78
    Number of cells = 4822
    Number of points = 10540
    Number of faces shared with processor 46 = 81
    Number of faces shared with processor 54 = 445
    Number of faces shared with processor 62 = 4338
    Number of faces shared with processor 69 = 1
    Number of faces shared with processor 70 = 450
    Number of faces shared with processor 74 = 124
    Number of faces shared with processor 77 = 17
    Number of faces shared with processor 79 = 66
    Number of faces shared with processor 86 = 880
    Number of faces shared with processor 94 = 3670
    Number of faces shared with processor 102 = 438
    Number of faces shared with processor 110 = 126
    Number of faces shared with processor 118 = 2
    Number of processor patches = 13
    Number of processor faces = 10638
    Number of boundary faces = 8

Processor 79
    Number of cells = 11940
    Number of points = 25429
    Number of faces shared with processor 47 = 195
    Number of faces shared with processor 55 = 1491
    Number of faces shared with processor 63 = 9293
    Number of faces shared with processor 67 = 1
    Number of faces shared with processor 70 = 1
    Number of faces shared with processor 71 = 1728
    Number of faces shared with processor 75 = 150
    Number of faces shared with processor 78 = 66
    Number of faces shared with processor 83 = 4
    Number of faces shared with processor 86 = 1
    Number of faces shared with processor 87 = 2625
    Number of faces shared with processor 95 = 8210
    Number of faces shared with processor 103 = 1785
    Number of faces shared with processor 111 = 159
    Number of processor patches = 14
    Number of processor faces = 25709
    Number of boundary faces = 26

Processor 80
    Number of cells = 7781
    Number of points = 17851
    Number of faces shared with processor 32 = 10
    Number of faces shared with processor 40 = 98
    Number of faces shared with processor 48 = 851
    Number of faces shared with processor 56 = 1815
    Number of faces shared with processor 64 = 4966
    Number of faces shared with processor 72 = 1333
    Number of faces shared with processor 76 = 3
    Number of faces shared with processor 81 = 64
    Number of faces shared with processor 84 = 64
    Number of faces shared with processor 88 = 1027
    Number of faces shared with processor 96 = 5364
    Number of faces shared with processor 104 = 1121
    Number of faces shared with processor 112 = 1229
    Number of faces shared with processor 120 = 124
    Number of processor patches = 14
    Number of processor faces = 18069
    Number of boundary faces = 28

Processor 81
    Number of cells = 7348
    Number of points = 15620
    Number of faces shared with processor 49 = 7
    Number of faces shared with processor 57 = 427
    Number of faces shared with processor 65 = 6461
    Number of faces shared with processor 72 = 1
    Number of faces shared with processor 73 = 743
    Number of faces shared with processor 77 = 2
    Number of faces shared with processor 80 = 64
    Number of faces shared with processor 82 = 23
    Number of faces shared with processor 85 = 139
    Number of faces shared with processor 89 = 440
    Number of faces shared with processor 97 = 6903
    Number of faces shared with processor 98 = 1
    Number of faces shared with processor 105 = 435
    Number of faces shared with processor 113 = 20
    Number of processor patches = 14
    Number of processor faces = 15666
    Number of boundary faces = 5

Processor 82
    Number of cells = 3780
    Number of points = 8353
    Number of faces shared with processor 50 = 29
    Number of faces shared with processor 58 = 597
    Number of faces shared with processor 66 = 3049
    Number of faces shared with processor 73 = 1
    Number of faces shared with processor 74 = 476
    Number of faces shared with processor 81 = 23
    Number of faces shared with processor 83 = 71
    Number of faces shared with processor 86 = 25
    Number of faces shared with processor 90 = 1542
    Number of faces shared with processor 91 = 1
    Number of faces shared with processor 98 = 1879
    Number of faces shared with processor 99 = 1
    Number of faces shared with processor 106 = 655
    Number of faces shared with processor 114 = 14
    Number of processor patches = 14
    Number of processor faces = 8363
    Number of boundary faces = 5

Processor 83
    Number of cells = 12566
    Number of points = 26809
    Number of faces shared with processor 51 = 7
    Number of faces shared with processor 59 = 1458
    Number of faces shared with processor 67 = 8990
    Number of faces shared with processor 74 = 1
    Number of faces shared with processor 75 = 2791
    Number of faces shared with processor 79 = 4
    Number of faces shared with processor 82 = 71
    Number of faces shared with processor 87 = 197
    Number of faces shared with processor 91 = 2741
    Number of faces shared with processor 99 = 8822
    Number of faces shared with processor 103 = 1
    Number of faces shared with processor 107 = 1734
    Number of faces shared with processor 115 = 180
    Number of processor patches = 13
    Number of processor faces = 26997
    Number of boundary faces = 108

Processor 84
    Number of cells = 9465
    Number of points = 21047
    Number of faces shared with processor 36 = 12
    Number of faces shared with processor 44 = 131
    Number of faces shared with processor 52 = 251
    Number of faces shared with processor 60 = 1409
    Number of faces shared with processor 68 = 7720
    Number of faces shared with processor 76 = 803
    Number of faces shared with processor 80 = 64
    Number of faces shared with processor 85 = 9
    Number of faces shared with processor 88 = 5
    Number of faces shared with processor 92 = 1198
    Number of faces shared with processor 100 = 7243
    Number of faces shared with processor 108 = 1820
    Number of faces shared with processor 116 = 334
    Number of faces shared with processor 124 = 197
    Number of processor patches = 14
    Number of processor faces = 21196
    Number of boundary faces = 12

Processor 85
    Number of cells = 5690
    Number of points = 12414
    Number of faces shared with processor 53 = 336
    Number of faces shared with processor 61 = 997
    Number of faces shared with processor 69 = 4362
    Number of faces shared with processor 77 = 571
    Number of faces shared with processor 81 = 139
    Number of faces shared with processor 84 = 9
    Number of faces shared with processor 86 = 85
    Number of faces shared with processor 93 = 226
    Number of faces shared with processor 94 = 1
    Number of faces shared with processor 101 = 5147
    Number of faces shared with processor 109 = 337
    Number of faces shared with processor 117 = 237
    Number of faces shared with processor 125 = 4
    Number of processor patches = 13
    Number of processor faces = 12451
    Number of boundary faces = 0

Processor 86
    Number of cells = 7360
    Number of points = 15654
    Number of faces shared with processor 54 = 503
    Number of faces shared with processor 61 = 1
    Number of faces shared with processor 62 = 900
    Number of faces shared with processor 70 = 5374
    Number of faces shared with processor 77 = 2
    Number of faces shared with processor 78 = 880
    Number of faces shared with processor 79 = 1
    Number of faces shared with processor 82 = 25
    Number of faces shared with processor 85 = 85
    Number of faces shared with processor 87 = 33
    Number of faces shared with processor 90 = 2
    Number of faces shared with processor 94 = 555
    Number of faces shared with processor 95 = 2
    Number of faces shared with processor 102 = 6086
    Number of faces shared with processor 110 = 561
    Number of faces shared with processor 118 = 746
    Number of processor patches = 16
    Number of processor faces = 15756
    Number of boundary faces = 0

Processor 87
    Number of cells = 12401
    Number of points = 26738
    Number of faces shared with processor 55 = 83
    Number of faces shared with processor 63 = 1028
    Number of faces shared with processor 71 = 9492
    Number of faces shared with processor 79 = 2625
    Number of faces shared with processor 83 = 197
    Number of faces shared with processor 86 = 33
    Number of faces shared with processor 91 = 6
    Number of faces shared with processor 95 = 2562
    Number of faces shared with processor 103 = 9398
    Number of faces shared with processor 111 = 1148
    Number of faces shared with processor 119 = 206
    Number of processor patches = 11
    Number of processor faces = 26778
    Number of boundary faces = 25

Processor 88
    Number of cells = 11722
    Number of points = 25794
    Number of faces shared with processor 128 = 120
    Number of faces shared with processor 48 = 79
    Number of faces shared with processor 56 = 774
    Number of faces shared with processor 64 = 1473
    Number of faces shared with processor 72 = 9464
    Number of faces shared with processor 80 = 1027
    Number of faces shared with processor 84 = 5
    Number of faces shared with processor 89 = 21
    Number of faces shared with processor 92 = 174
    Number of faces shared with processor 96 = 1128
    Number of faces shared with processor 97 = 2
    Number of faces shared with processor 104 = 10027
    Number of faces shared with processor 112 = 829
    Number of faces shared with processor 120 = 832
    Number of processor patches = 14
    Number of processor faces = 25955
    Number of boundary faces = 22

Processor 89
    Number of cells = 3946
    Number of points = 8780
    Number of faces shared with processor 57 = 32
    Number of faces shared with processor 65 = 832
    Number of faces shared with processor 73 = 3107
    Number of faces shared with processor 81 = 440
    Number of faces shared with processor 88 = 21
    Number of faces shared with processor 90 = 63
    Number of faces shared with processor 93 = 2
    Number of faces shared with processor 97 = 853
    Number of faces shared with processor 105 = 2670
    Number of faces shared with processor 113 = 472
    Number of faces shared with processor 121 = 363
    Number of processor patches = 11
    Number of processor faces = 8855
    Number of boundary faces = 0

Processor 90
    Number of cells = 8361
    Number of points = 17624
    Number of faces shared with processor 66 = 248
    Number of faces shared with processor 74 = 6868
    Number of faces shared with processor 82 = 1542
    Number of faces shared with processor 86 = 2
    Number of faces shared with processor 89 = 63
    Number of faces shared with processor 91 = 38
    Number of faces shared with processor 94 = 114
    Number of faces shared with processor 98 = 566
    Number of faces shared with processor 106 = 7856
    Number of faces shared with processor 114 = 301
    Number of faces shared with processor 122 = 42
    Number of processor patches = 11
    Number of processor faces = 17640
    Number of boundary faces = 3

Processor 91
    Number of cells = 13330
    Number of points = 28431
    Number of faces shared with processor 67 = 1572
    Number of faces shared with processor 74 = 1
    Number of faces shared with processor 75 = 9861
    Number of faces shared with processor 82 = 1
    Number of faces shared with processor 83 = 2741
    Number of faces shared with processor 87 = 6
    Number of faces shared with processor 90 = 38
    Number of faces shared with processor 95 = 146
    Number of faces shared with processor 99 = 3487
    Number of faces shared with processor 103 = 1
    Number of faces shared with processor 107 = 8424
    Number of faces shared with processor 115 = 2297
    Number of faces shared with processor 123 = 5
    Number of processor patches = 13
    Number of processor faces = 28580
    Number of boundary faces = 62

Processor 92
    Number of cells = 8335
    Number of points = 19624
    Number of faces shared with processor 132 = 342
    Number of faces shared with processor 140 = 28
    Number of faces shared with processor 36 = 2
    Number of faces shared with processor 44 = 27
    Number of faces shared with processor 52 = 181
    Number of faces shared with processor 60 = 614
    Number of faces shared with processor 68 = 2135
    Number of faces shared with processor 76 = 5520
    Number of faces shared with processor 84 = 1198
    Number of faces shared with processor 88 = 174
    Number of faces shared with processor 93 = 64
    Number of faces shared with processor 96 = 4
    Number of faces shared with processor 100 = 1390
    Number of faces shared with processor 101 = 1
    Number of faces shared with processor 108 = 6656
    Number of faces shared with processor 116 = 854
    Number of faces shared with processor 124 = 495
    Number of processor patches = 17
    Number of processor faces = 19685
    Number of boundary faces = 63

Processor 93
    Number of cells = 4851
    Number of points = 10680
    Number of faces shared with processor 61 = 10
    Number of faces shared with processor 69 = 448
    Number of faces shared with processor 77 = 4444
    Number of faces shared with processor 85 = 226
    Number of faces shared with processor 89 = 2
    Number of faces shared with processor 92 = 64
    Number of faces shared with processor 94 = 3
    Number of faces shared with processor 97 = 2
    Number of faces shared with processor 101 = 598
    Number of faces shared with processor 102 = 1
    Number of faces shared with processor 109 = 4460
    Number of faces shared with processor 117 = 357
    Number of faces shared with processor 125 = 59
    Number of processor patches = 13
    Number of processor faces = 10674
    Number of boundary faces = 0

Processor 94
    Number of cells = 4035
    Number of points = 9021
    Number of faces shared with processor 62 = 164
    Number of faces shared with processor 70 = 215
    Number of faces shared with processor 78 = 3670
    Number of faces shared with processor 85 = 1
    Number of faces shared with processor 86 = 555
    Number of faces shared with processor 90 = 114
    Number of faces shared with processor 93 = 3
    Number of faces shared with processor 95 = 66
    Number of faces shared with processor 102 = 856
    Number of faces shared with processor 110 = 2988
    Number of faces shared with processor 118 = 424
    Number of faces shared with processor 126 = 49
    Number of processor patches = 12
    Number of processor faces = 9105
    Number of boundary faces = 0

Processor 95
    Number of cells = 11811
    Number of points = 25636
    Number of faces shared with processor 63 = 413
    Number of faces shared with processor 71 = 1561
    Number of faces shared with processor 79 = 8210
    Number of faces shared with processor 86 = 2
    Number of faces shared with processor 87 = 2562
    Number of faces shared with processor 91 = 146
    Number of faces shared with processor 94 = 66
    Number of faces shared with processor 99 = 4
    Number of faces shared with processor 103 = 2293
    Number of faces shared with processor 111 = 8368
    Number of faces shared with processor 119 = 1281
    Number of faces shared with processor 127 = 921
    Number of processor patches = 12
    Number of processor faces = 25827
    Number of boundary faces = 25

Processor 96
    Number of cells = 6959
    Number of points = 16432
    Number of faces shared with processor 128 = 385
    Number of faces shared with processor 136 = 53
    Number of faces shared with processor 56 = 64
    Number of faces shared with processor 64 = 314
    Number of faces shared with processor 72 = 1258
    Number of faces shared with processor 80 = 5364
    Number of faces shared with processor 88 = 1128
    Number of faces shared with processor 92 = 4
    Number of faces shared with processor 97 = 79
    Number of faces shared with processor 100 = 51
    Number of faces shared with processor 104 = 1303
    Number of faces shared with processor 105 = 1
    Number of faces shared with processor 112 = 5297
    Number of faces shared with processor 113 = 1
    Number of faces shared with processor 120 = 1285
    Number of processor patches = 15
    Number of processor faces = 16587
    Number of boundary faces = 68

Processor 97
    Number of cells = 8171
    Number of points = 17504
    Number of faces shared with processor 129 = 304
    Number of faces shared with processor 65 = 363
    Number of faces shared with processor 72 = 1
    Number of faces shared with processor 73 = 447
    Number of faces shared with processor 81 = 6903
    Number of faces shared with processor 88 = 2
    Number of faces shared with processor 89 = 853
    Number of faces shared with processor 93 = 2
    Number of faces shared with processor 96 = 79
    Number of faces shared with processor 98 = 33
    Number of faces shared with processor 101 = 141
    Number of faces shared with processor 105 = 480
    Number of faces shared with processor 106 = 2
    Number of faces shared with processor 113 = 7331
    Number of faces shared with processor 121 = 573
    Number of processor patches = 15
    Number of processor faces = 17514
    Number of boundary faces = 1

Processor 98
    Number of cells = 2825
    Number of points = 6584
    Number of faces shared with processor 130 = 362
    Number of faces shared with processor 66 = 11
    Number of faces shared with processor 74 = 796
    Number of faces shared with processor 81 = 1
    Number of faces shared with processor 82 = 1879
    Number of faces shared with processor 90 = 566
    Number of faces shared with processor 97 = 33
    Number of faces shared with processor 99 = 49
    Number of faces shared with processor 102 = 36
    Number of faces shared with processor 106 = 1186
    Number of faces shared with processor 107 = 2
    Number of faces shared with processor 114 = 1243
    Number of faces shared with processor 122 = 457
    Number of processor patches = 13
    Number of processor faces = 6621
    Number of boundary faces = 0

Processor 99
    Number of cells = 12373
    Number of points = 26740
    Number of faces shared with processor 131 = 21
    Number of faces shared with processor 75 = 956
    Number of faces shared with processor 82 = 1
    Number of faces shared with processor 83 = 8822
    Number of faces shared with processor 91 = 3487
    Number of faces shared with processor 95 = 4
    Number of faces shared with processor 98 = 49
    Number of faces shared with processor 103 = 194
    Number of faces shared with processor 107 = 2189
    Number of faces shared with processor 115 = 9820
    Number of faces shared with processor 123 = 1384
    Number of processor patches = 11
    Number of processor faces = 26927
    Number of boundary faces = 29

Processor 100
    Number of cells = 10205
    Number of points = 23275
    Number of faces shared with processor 132 = 1613
    Number of faces shared with processor 140 = 523
    Number of faces shared with processor 52 = 54
    Number of faces shared with processor 60 = 508
    Number of faces shared with processor 68 = 1634
    Number of faces shared with processor 76 = 775
    Number of faces shared with processor 84 = 7243
    Number of faces shared with processor 92 = 1390
    Number of faces shared with processor 96 = 51
    Number of faces shared with processor 101 = 12
    Number of faces shared with processor 104 = 4
    Number of faces shared with processor 108 = 1466
    Number of faces shared with processor 116 = 6581
    Number of faces shared with processor 124 = 1615
    Number of processor patches = 14
    Number of processor faces = 23469
    Number of boundary faces = 41

Processor 101
    Number of cells = 5900
    Number of points = 13068
    Number of faces shared with processor 133 = 216
    Number of faces shared with processor 141 = 30
    Number of faces shared with processor 69 = 94
    Number of faces shared with processor 77 = 694
    Number of faces shared with processor 85 = 5147
    Number of faces shared with processor 92 = 1
    Number of faces shared with processor 93 = 598
    Number of faces shared with processor 97 = 141
    Number of faces shared with processor 100 = 12
    Number of faces shared with processor 102 = 75
[...]
    in file db/dynamicLibrary/dlLibraryTable/dlLibraryTable.C at line 188
    Could not load "libpetscFoam.so"
libpetscFoam.so: cannot open shared object file: No such file or directory
Processor 697: field transfer
--> FOAM Warning : 
    From void* Foam::dlLibraryTable::openLibrary(const Foam::fileName&, bool)
    in file db/dynamicLibrary/dlLibraryTable/dlLibraryTable.C at line 188
    Could not load "libpetscFoam.so"
libpetscFoam.so: cannot open shared object file: No such file or directory
Processor 698: field transfer
--> FOAM Warning : 
    From void* Foam::dlLibraryTable::openLibrary(const Foam::fileName&, bool)
    in file db/dynamicLibrary/dlLibraryTable/dlLibraryTable.C at line 188
    Could not load "libpetscFoam.so"
libpetscFoam.so: cannot open shared object file: No such file or directory
Processor 699: field transfer
--> FOAM Warning : 
    From void* Foam::dlLibraryTable::openLibrary(const Foam::fileName&, bool)
    in file db/dynamicLibrary/dlLibraryTable/dlLibraryTable.C at line 188
    Could not load "libpetscFoam.so"
libpetscFoam.so: cannot open shared object file: No such file or directory
Processor 700: field transfer
--> FOAM Warning : 
    From void* Foam::dlLibraryTable::openLibrary(const Foam::fileName&, bool)
    in file db/dynamicLibrary/dlLibraryTable/dlLibraryTable.C at line 188
    Could not load "libpetscFoam.so"
libpetscFoam.so: cannot open shared object file: No such file or directory
Processor 701: field transfer
--> FOAM Warning : 
    From void* Foam::dlLibraryTable::openLibrary(const Foam::fileName&, bool)
    in file db/dynamicLibrary/dlLibraryTable/dlLibraryTable.C at line 188
    Could not load "libpetscFoam.so"
libpetscFoam.so: cannot open shared object file: No such file or directory
Processor 702: field transfer
--> FOAM Warning : 
    From void* Foam::dlLibraryTable::openLibrary(const Foam::fileName&, bool)
    in file db/dynamicLibrary/dlLibraryTable/dlLibraryTable.C at line 188
    Could not load "libpetscFoam.so"
libpetscFoam.so: cannot open shared object file: No such file or directory
Processor 703: field transfer
--> FOAM Warning : 
    From void* Foam::dlLibraryTable::openLibrary(const Foam::fileName&, bool)
    in file db/dynamicLibrary/dlLibraryTable/dlLibraryTable.C at line 188
    Could not load "libpetscFoam.so"
libpetscFoam.so: cannot open shared object file: No such file or directory
Processor 704: field transfer
--> FOAM Warning : 
    From void* Foam::dlLibraryTable::openLibrary(const Foam::fileName&, bool)
    in file db/dynamicLibrary/dlLibraryTable/dlLibraryTable.C at line 188
    Could not load "libpetscFoam.so"
libpetscFoam.so: cannot open shared object file: No such file or directory
Processor 705: field transfer
--> FOAM Warning : 
    From void* Foam::dlLibraryTable::openLibrary(const Foam::fileName&, bool)
    in file db/dynamicLibrary/dlLibraryTable/dlLibraryTable.C at line 188
    Could not load "libpetscFoam.so"
libpetscFoam.so: cannot open shared object file: No such file or directory
Processor 706: field transfer
--> FOAM Warning : 
    From void* Foam::dlLibraryTable::openLibrary(const Foam::fileName&, bool)
    in file db/dynamicLibrary/dlLibraryTable/dlLibraryTable.C at line 188
    Could not load "libpetscFoam.so"
libpetscFoam.so: cannot open shared object file: No such file or directory
Processor 707: field transfer
--> FOAM Warning : 
    From void* Foam::dlLibraryTable::openLibrary(const Foam::fileName&, bool)
    in file db/dynamicLibrary/dlLibraryTable/dlLibraryTable.C at line 188
    Could not load "libpetscFoam.so"
libpetscFoam.so: cannot open shared object file: No such file or directory
Processor 708: field transfer
--> FOAM Warning : 
    From void* Foam::dlLibraryTable::openLibrary(const Foam::fileName&, bool)
    in file db/dynamicLibrary/dlLibraryTable/dlLibraryTable.C at line 188
    Could not load "libpetscFoam.so"
libpetscFoam.so: cannot open shared object file: No such file or directory
Processor 709: field transfer
--> FOAM Warning : 
    From void* Foam::dlLibraryTable::openLibrary(const Foam::fileName&, bool)
    in file db/dynamicLibrary/dlLibraryTable/dlLibraryTable.C at line 188
    Could not load "libpetscFoam.so"
libpetscFoam.so: cannot open shared object file: No such file or directory
Processor 710: field transfer
--> FOAM Warning : 
    From void* Foam::dlLibraryTable::openLibrary(const Foam::fileName&, bool)
    in file db/dynamicLibrary/dlLibraryTable/dlLibraryTable.C at line 188
    Could not load "libpetscFoam.so"
libpetscFoam.so: cannot open shared object file: No such file or directory
Processor 711: field transfer
--> FOAM Warning : 
    From void* Foam::dlLibraryTable::openLibrary(const Foam::fileName&, bool)
    in file db/dynamicLibrary/dlLibraryTable/dlLibraryTable.C at line 188
    Could not load "libpetscFoam.so"
libpetscFoam.so: cannot open shared object file: No such file or directory
Processor 712: field transfer
--> FOAM Warning : 
    From void* Foam::dlLibraryTable::openLibrary(const Foam::fileName&, bool)
    in file db/dynamicLibrary/dlLibraryTable/dlLibraryTable.C at line 188
    Could not load "libpetscFoam.so"
libpetscFoam.so: cannot open shared object file: No such file or directory
Processor 713: field transfer
--> FOAM Warning : 
    From void* Foam::dlLibraryTable::openLibrary(const Foam::fileName&, bool)
    in file db/dynamicLibrary/dlLibraryTable/dlLibraryTable.C at line 188
    Could not load "libpetscFoam.so"
libpetscFoam.so: cannot open shared object file: No such file or directory
Processor 714: field transfer
--> FOAM Warning : 
    From void* Foam::dlLibraryTable::openLibrary(const Foam::fileName&, bool)
    in file db/dynamicLibrary/dlLibraryTable/dlLibraryTable.C at line 188
    Could not load "libpetscFoam.so"
libpetscFoam.so: cannot open shared object file: No such file or directory
Processor 715: field transfer
--> FOAM Warning : 
    From void* Foam::dlLibraryTable::openLibrary(const Foam::fileName&, bool)
    in file db/dynamicLibrary/dlLibraryTable/dlLibraryTable.C at line 188
    Could not load "libpetscFoam.so"
libpetscFoam.so: cannot open shared object file: No such file or directory
Processor 716: field transfer
--> FOAM Warning : 
    From void* Foam::dlLibraryTable::openLibrary(const Foam::fileName&, bool)
    in file db/dynamicLibrary/dlLibraryTable/dlLibraryTable.C at line 188
    Could not load "libpetscFoam.so"
libpetscFoam.so: cannot open shared object file: No such file or directory
Processor 717: field transfer
--> FOAM Warning : 
    From void* Foam::dlLibraryTable::openLibrary(const Foam::fileName&, bool)
    in file db/dynamicLibrary/dlLibraryTable/dlLibraryTable.C at line 188
    Could not load "libpetscFoam.so"
libpetscFoam.so: cannot open shared object file: No such file or directory
Processor 718: field transfer
--> FOAM Warning : 
    From void* Foam::dlLibraryTable::openLibrary(const Foam::fileName&, bool)
    in file db/dynamicLibrary/dlLibraryTable/dlLibraryTable.C at line 188
    Could not load "libpetscFoam.so"
libpetscFoam.so: cannot open shared object file: No such file or directory
Processor 719: field transfer
--> FOAM Warning : 
    From void* Foam::dlLibraryTable::openLibrary(const Foam::fileName&, bool)
    in file db/dynamicLibrary/dlLibraryTable/dlLibraryTable.C at line 188
    Could not load "libpetscFoam.so"
libpetscFoam.so: cannot open shared object file: No such file or directory
Processor 720: field transfer
--> FOAM Warning : 
    From void* Foam::dlLibraryTable::openLibrary(const Foam::fileName&, bool)
    in file db/dynamicLibrary/dlLibraryTable/dlLibraryTable.C at line 188
    Could not load "libpetscFoam.so"
libpetscFoam.so: cannot open shared object file: No such file or directory
Processor 721: field transfer
--> FOAM Warning : 
    From void* Foam::dlLibraryTable::openLibrary(const Foam::fileName&, bool)
    in file db/dynamicLibrary/dlLibraryTable/dlLibraryTable.C at line 188
    Could not load "libpetscFoam.so"
libpetscFoam.so: cannot open shared object file: No such file or directory
Processor 722: field transfer
--> FOAM Warning : 
    From void* Foam::dlLibraryTable::openLibrary(const Foam::fileName&, bool)
    in file db/dynamicLibrary/dlLibraryTable/dlLibraryTable.C at line 188
    Could not load "libpetscFoam.so"
libpetscFoam.so: cannot open shared object file: No such file or directory
Processor 723: field transfer
--> FOAM Warning : 
    From void* Foam::dlLibraryTable::openLibrary(const Foam::fileName&, bool)
    in file db/dynamicLibrary/dlLibraryTable/dlLibraryTable.C at line 188
    Could not load "libpetscFoam.so"
libpetscFoam.so: cannot open shared object file: No such file or directory
Processor 724: field transfer
--> FOAM Warning : 
    From void* Foam::dlLibraryTable::openLibrary(const Foam::fileName&, bool)
    in file db/dynamicLibrary/dlLibraryTable/dlLibraryTable.C at line 188
    Could not load "libpetscFoam.so"
libpetscFoam.so: cannot open shared object file: No such file or directory
Processor 725: field transfer
--> FOAM Warning : 
    From void* Foam::dlLibraryTable::openLibrary(const Foam::fileName&, bool)
    in file db/dynamicLibrary/dlLibraryTable/dlLibraryTable.C at line 188
    Could not load "libpetscFoam.so"
libpetscFoam.so: cannot open shared object file: No such file or directory
Processor 726: field transfer
--> FOAM Warning : 
    From void* Foam::dlLibraryTable::openLibrary(const Foam::fileName&, bool)
    in file db/dynamicLibrary/dlLibraryTable/dlLibraryTable.C at line 188
    Could not load "libpetscFoam.so"
libpetscFoam.so: cannot open shared object file: No such file or directory
Processor 727: field transfer
--> FOAM Warning : 
    From void* Foam::dlLibraryTable::openLibrary(const Foam::fileName&, bool)
    in file db/dynamicLibrary/dlLibraryTable/dlLibraryTable.C at line 188
    Could not load "libpetscFoam.so"
libpetscFoam.so: cannot open shared object file: No such file or directory
Processor 728: field transfer
--> FOAM Warning : 
    From void* Foam::dlLibraryTable::openLibrary(const Foam::fileName&, bool)
    in file db/dynamicLibrary/dlLibraryTable/dlLibraryTable.C at line 188
    Could not load "libpetscFoam.so"
libpetscFoam.so: cannot open shared object file: No such file or directory
Processor 729: field transfer
--> FOAM Warning : 
    From void* Foam::dlLibraryTable::openLibrary(const Foam::fileName&, bool)
    in file db/dynamicLibrary/dlLibraryTable/dlLibraryTable.C at line 188
    Could not load "libpetscFoam.so"
libpetscFoam.so: cannot open shared object file: No such file or directory
Processor 730: field transfer
--> FOAM Warning : 
    From void* Foam::dlLibraryTable::openLibrary(const Foam::fileName&, bool)
    in file db/dynamicLibrary/dlLibraryTable/dlLibraryTable.C at line 188
    Could not load "libpetscFoam.so"
libpetscFoam.so: cannot open shared object file: No such file or directory
Processor 731: field transfer
--> FOAM Warning : 
    From void* Foam::dlLibraryTable::openLibrary(const Foam::fileName&, bool)
    in file db/dynamicLibrary/dlLibraryTable/dlLibraryTable.C at line 188
    Could not load "libpetscFoam.so"
libpetscFoam.so: cannot open shared object file: No such file or directory
Processor 732: field transfer
--> FOAM Warning : 
    From void* Foam::dlLibraryTable::openLibrary(const Foam::fileName&, bool)
    in file db/dynamicLibrary/dlLibraryTable/dlLibraryTable.C at line 188
    Could not load "libpetscFoam.so"
libpetscFoam.so: cannot open shared object file: No such file or directory
Processor 733: field transfer
--> FOAM Warning : 
    From void* Foam::dlLibraryTable::openLibrary(const Foam::fileName&, bool)
    in file db/dynamicLibrary/dlLibraryTable/dlLibraryTable.C at line 188
    Could not load "libpetscFoam.so"
libpetscFoam.so: cannot open shared object file: No such file or directory
Processor 734: field transfer
--> FOAM Warning : 
    From void* Foam::dlLibraryTable::openLibrary(const Foam::fileName&, bool)
    in file db/dynamicLibrary/dlLibraryTable/dlLibraryTable.C at line 188
    Could not load "libpetscFoam.so"
libpetscFoam.so: cannot open shared object file: No such file or directory
Processor 735: field transfer
--> FOAM Warning : 
    From void* Foam::dlLibraryTable::openLibrary(const Foam::fileName&, bool)
    in file db/dynamicLibrary/dlLibraryTable/dlLibraryTable.C at line 188
    Could not load "libpetscFoam.so"
libpetscFoam.so: cannot open shared object file: No such file or directory
Processor 736: field transfer
--> FOAM Warning : 
    From void* Foam::dlLibraryTable::openLibrary(const Foam::fileName&, bool)
    in file db/dynamicLibrary/dlLibraryTable/dlLibraryTable.C at line 188
    Could not load "libpetscFoam.so"
libpetscFoam.so: cannot open shared object file: No such file or directory
Processor 737: field transfer
--> FOAM Warning : 
    From void* Foam::dlLibraryTable::openLibrary(const Foam::fileName&, bool)
    in file db/dynamicLibrary/dlLibraryTable/dlLibraryTable.C at line 188
    Could not load "libpetscFoam.so"
libpetscFoam.so: cannot open shared object file: No such file or directory
Processor 738: field transfer
--> FOAM Warning : 
    From void* Foam::dlLibraryTable::openLibrary(const Foam::fileName&, bool)
    in file db/dynamicLibrary/dlLibraryTable/dlLibraryTable.C at line 188
    Could not load "libpetscFoam.so"
libpetscFoam.so: cannot open shared object file: No such file or directory
Processor 739: field transfer
--> FOAM Warning : 
    From void* Foam::dlLibraryTable::openLibrary(const Foam::fileName&, bool)
    in file db/dynamicLibrary/dlLibraryTable/dlLibraryTable.C at line 188
    Could not load "libpetscFoam.so"
libpetscFoam.so: cannot open shared object file: No such file or directory
Processor 740: field transfer
--> FOAM Warning : 
    From void* Foam::dlLibraryTable::openLibrary(const Foam::fileName&, bool)
    in file db/dynamicLibrary/dlLibraryTable/dlLibraryTable.C at line 188
    Could not load "libpetscFoam.so"
libpetscFoam.so: cannot open shared object file: No such file or directory
Processor 741: field transfer
--> FOAM Warning : 
    From void* Foam::dlLibraryTable::openLibrary(const Foam::fileName&, bool)
    in file db/dynamicLibrary/dlLibraryTable/dlLibraryTable.C at line 188
    Could not load "libpetscFoam.so"
libpetscFoam.so: cannot open shared object file: No such file or directory
Processor 742: field transfer
--> FOAM Warning : 
    From void* Foam::dlLibraryTable::openLibrary(const Foam::fileName&, bool)
    in file db/dynamicLibrary/dlLibraryTable/dlLibraryTable.C at line 188
    Could not load "libpetscFoam.so"
libpetscFoam.so: cannot open shared object file: No such file or directory
Processor 743: field transfer
--> FOAM Warning : 
    From void* Foam::dlLibraryTable::openLibrary(const Foam::fileName&, bool)
    in file db/dynamicLibrary/dlLibraryTable/dlLibraryTable.C at line 188
    Could not load "libpetscFoam.so"
libpetscFoam.so: cannot open shared object file: No such file or directory
Processor 744: field transfer
--> FOAM Warning : 
    From void* Foam::dlLibraryTable::openLibrary(const Foam::fileName&, bool)
    in file db/dynamicLibrary/dlLibraryTable/dlLibraryTable.C at line 188
    Could not load "libpetscFoam.so"
libpetscFoam.so: cannot open shared object file: No such file or directory
Processor 745: field transfer
--> FOAM Warning : 
    From void* Foam::dlLibraryTable::openLibrary(const Foam::fileName&, bool)
    in file db/dynamicLibrary/dlLibraryTable/dlLibraryTable.C at line 188
    Could not load "libpetscFoam.so"
libpetscFoam.so: cannot open shared object file: No such file or directory
Processor 746: field transfer
--> FOAM Warning : 
    From void* Foam::dlLibraryTable::openLibrary(const Foam::fileName&, bool)
    in file db/dynamicLibrary/dlLibraryTable/dlLibraryTable.C at line 188
    Could not load "libpetscFoam.so"
libpetscFoam.so: cannot open shared object file: No such file or directory
Processor 747: field transfer
--> FOAM Warning : 
    From void* Foam::dlLibraryTable::openLibrary(const Foam::fileName&, bool)
    in file db/dynamicLibrary/dlLibraryTable/dlLibraryTable.C at line 188
    Could not load "libpetscFoam.so"
libpetscFoam.so: cannot open shared object file: No such file or directory
Processor 748: field transfer
--> FOAM Warning : 
    From void* Foam::dlLibraryTable::openLibrary(const Foam::fileName&, bool)
    in file db/dynamicLibrary/dlLibraryTable/dlLibraryTable.C at line 188
    Could not load "libpetscFoam.so"
libpetscFoam.so: cannot open shared object file: No such file or directory
Processor 749: field transfer
--> FOAM Warning : 
    From void* Foam::dlLibraryTable::openLibrary(const Foam::fileName&, bool)
    in file db/dynamicLibrary/dlLibraryTable/dlLibraryTable.C at line 188
    Could not load "libpetscFoam.so"
libpetscFoam.so: cannot open shared object file: No such file or directory
Processor 750: field transfer
--> FOAM Warning : 
    From void* Foam::dlLibraryTable::openLibrary(const Foam::fileName&, bool)
    in file db/dynamicLibrary/dlLibraryTable/dlLibraryTable.C at line 188
    Could not load "libpetscFoam.so"
libpetscFoam.so: cannot open shared object file: No such file or directory
Processor 751: field transfer
--> FOAM Warning : 
    From void* Foam::dlLibraryTable::openLibrary(const Foam::fileName&, bool)
    in file db/dynamicLibrary/dlLibraryTable/dlLibraryTable.C at line 188
    Could not load "libpetscFoam.so"
libpetscFoam.so: cannot open shared object file: No such file or directory
Processor 752: field transfer
--> FOAM Warning : 
    From void* Foam::dlLibraryTable::openLibrary(const Foam::fileName&, bool)
    in file db/dynamicLibrary/dlLibraryTable/dlLibraryTable.C at line 188
    Could not load "libpetscFoam.so"
libpetscFoam.so: cannot open shared object file: No such file or directory
Processor 753: field transfer
--> FOAM Warning : 
    From void* Foam::dlLibraryTable::openLibrary(const Foam::fileName&, bool)
    in file db/dynamicLibrary/dlLibraryTable/dlLibraryTable.C at line 188
    Could not load "libpetscFoam.so"
libpetscFoam.so: cannot open shared object file: No such file or directory
Processor 754: field transfer
--> FOAM Warning : 
    From void* Foam::dlLibraryTable::openLibrary(const Foam::fileName&, bool)
    in file db/dynamicLibrary/dlLibraryTable/dlLibraryTable.C at line 188
    Could not load "libpetscFoam.so"
libpetscFoam.so: cannot open shared object file: No such file or directory
Processor 755: field transfer
--> FOAM Warning : 
    From void* Foam::dlLibraryTable::openLibrary(const Foam::fileName&, bool)
    in file db/dynamicLibrary/dlLibraryTable/dlLibraryTable.C at line 188
    Could not load "libpetscFoam.so"
libpetscFoam.so: cannot open shared object file: No such file or directory
Processor 756: field transfer
--> FOAM Warning : 
    From void* Foam::dlLibraryTable::openLibrary(const Foam::fileName&, bool)
    in file db/dynamicLibrary/dlLibraryTable/dlLibraryTable.C at line 188
    Could not load "libpetscFoam.so"
libpetscFoam.so: cannot open shared object file: No such file or directory
Processor 757: field transfer
--> FOAM Warning : 
    From void* Foam::dlLibraryTable::openLibrary(const Foam::fileName&, bool)
    in file db/dynamicLibrary/dlLibraryTable/dlLibraryTable.C at line 188
    Could not load "libpetscFoam.so"
libpetscFoam.so: cannot open shared object file: No such file or directory
Processor 758: field transfer
--> FOAM Warning : 
    From void* Foam::dlLibraryTable::openLibrary(const Foam::fileName&, bool)
    in file db/dynamicLibrary/dlLibraryTable/dlLibraryTable.C at line 188
    Could not load "libpetscFoam.so"
libpetscFoam.so: cannot open shared object file: No such file or directory
Processor 759: field transfer
--> FOAM Warning : 
    From void* Foam::dlLibraryTable::openLibrary(const Foam::fileName&, bool)
    in file db/dynamicLibrary/dlLibraryTable/dlLibraryTable.C at line 188
    Could not load "libpetscFoam.so"
libpetscFoam.so: cannot open shared object file: No such file or directory

End

