/*---------------------------------------------------------------------------*\
| =========                 |                                                 |
| \\      /  F ield         | OpenFOAM: The Open Source CFD Toolbox           |
|  \\    /   O peration     | Version:  2306                                  |
|   \\  /    A nd           | Website:  www.openfoam.com                      |
|    \\/     M anipulation  |                                                 |
\*---------------------------------------------------------------------------*/
Build  : c423ebec-20231012 OPENFOAM=2306 version=v2306
Arch   : "LSB;label=32;scalar=64"
Exec   : simpleFoam -parallel -case /hkfs/work/workspace/scratch/eq4036-windsorbody_setup/workspace/0611d5eceddca09d817e323046b94df0/case
Date   : Feb 16 2024
Time   : 14:54:46
Host   : hkn0503.localdomain
PID    : 735275
I/O    : uncollated
Case   : /hkfs/work/workspace/scratch/eq4036-windsorbody_setup/workspace/0611d5eceddca09d817e323046b94df0/case
nProcs : 12
Hosts  :
(
    (hkn0503.localdomain 6)
    (hkn0505.localdomain 6)
)
Pstream initialized with:
    floatTransfer      : false
    nProcsSimpleSum    : 0
    nonBlockingExchange: 0 (tuning: 0)
    exchange algorithm : -1
    commsType          : nonBlocking
    polling iterations : 0
trapFpe: Floating point exception trapping enabled (FOAM_SIGFPE).
fileModificationChecking : Monitoring run-time modified files using timeStampMaster (fileModificationSkew 5, maxFileModificationPolls 20)
allowSystemOperations : Allowing user-supplied system call operations

// * * * * * * * * * * * * * * * * * * * * * * * * * * * * * * * * * * * * * //
Create time

--> FOAM Warning : 
    From void* Foam::dlLibraryTable::openLibrary(const Foam::fileName&, bool)
    in file db/dynamicLibrary/dlLibraryTable/dlLibraryTable.C at line 188
    Could not load "libpetscFoam.so"
libpetscFoam.so: cannot open shared object file: No such file or directory
Create mesh for time = 0


SIMPLE: convergence criteria
    field p	 tolerance 1e-08
    field U	 tolerance 1e-08
    field k	 tolerance 1e-08
    field omega	 tolerance 1e-08
    field nuTilda	 tolerance 1e-08

Reading field p

Reading field U

Reading/calculating face flux field phi

Selecting incompressible transport model Newtonian
Selecting turbulence model type RAS
Selecting RAS turbulence model SpalartAllmaras
Selecting patchDistMethod meshWave
ft2 term: inactive
RAS
{
    RASModel        SpalartAllmaras;
    turbulence      on;
    printCoeffs     on;
    sigmaNut        0.66666;
    kappa           0.41;
    Cb1             0.1355;
    Cb2             0.622;
    Cw2             0.3;
    Cw3             2;
    Cv1             7.1;
    Cs              0.3;
    ck              0.07000000000000001;
    ft2             false;
    Ct3             1.2;
    Ct4             0.5;
}

No MRF models present

Creating finite volume options from "system/fvOptions"

Selecting finite volume options type velocityDampingConstraint
    Source: velocityDamping
    - selecting all cells
    - selected 50457088 cell(s) with volume 222.6066441270595

Starting time loop

--> FOAM Warning : 
    From bool Foam::functionObjectList::read()
    in file db/functionObjects/functionObjectList/functionObjectList.C at line 1035
    Reading "system/controlDict" at line 2 to 41
    Entry 'lref' is not a dictionary
--> FOAM Warning : 
    From bool Foam::functionObjectList::read()
    in file db/functionObjects/functionObjectList/functionObjectList.C at line 1035
    Reading "system/controlDict" at line 2 to 41
    Entry 'Aref' is not a dictionary
--> FOAM Warning : 
    From bool Foam::functionObjectList::read()
    in file db/functionObjects/functionObjectList/functionObjectList.C at line 1035
    Reading "system/controlDict" at line 2 to 41
    Entry 'yawAngle' is not a dictionary
--> FOAM Warning : 
    From bool Foam::functionObjectList::read()
    in file db/functionObjects/functionObjectList/functionObjectList.C at line 1035
    Reading "system/controlDict" at line 2 to 41
    Entry 'lDomain' is not a dictionary
--> FOAM Warning : 
    From bool Foam::functionObjectList::read()
    in file db/functionObjects/functionObjectList/functionObjectList.C at line 1035
    Reading "system/controlDict" at line 2 to 41
    Entry 'bDomain' is not a dictionary
--> FOAM Warning : 
    From bool Foam::functionObjectList::read()
    in file db/functionObjects/functionObjectList/functionObjectList.C at line 1035
    Reading "system/controlDict" at line 2 to 41
    Entry 'hDomain' is not a dictionary
--> FOAM Warning : 
    From bool Foam::functionObjectList::read()
    in file db/functionObjects/functionObjectList/functionObjectList.C at line 1035
    Reading "system/controlDict" at line 2 to 41
    Entry 'xCenter' is not a dictionary
--> FOAM Warning : 
    From bool Foam::functionObjectList::read()
    in file db/functionObjects/functionObjectList/functionObjectList.C at line 1035
    Reading "system/controlDict" at line 2 to 41
    Entry 'yCenter' is not a dictionary
--> FOAM Warning : 
    From bool Foam::functionObjectList::read()
    in file db/functionObjects/functionObjectList/functionObjectList.C at line 1035
    Reading "system/controlDict" at line 2 to 41
    Entry 'zCenter' is not a dictionary
--> FOAM Warning : 
    From bool Foam::functionObjectList::read()
    in file db/functionObjects/functionObjectList/functionObjectList.C at line 1035
    Reading "system/controlDict" at line 2 to 41
    Entry 'inletPatch' is not a dictionary
--> FOAM Warning : 
    From bool Foam::functionObjectList::read()
    in file db/functionObjects/functionObjectList/functionObjectList.C at line 1035
    Reading "system/controlDict" at line 2 to 41
    Entry 'outletPatch' is not a dictionary
--> FOAM Warning : 
    From bool Foam::functionObjectList::read()
    in file db/functionObjects/functionObjectList/functionObjectList.C at line 1035
    Reading "system/controlDict" at line 2 to 41
    Entry 'wallPatches' is not a dictionary
--> FOAM Warning : 
    From bool Foam::functionObjectList::read()
    in file db/functionObjects/functionObjectList/functionObjectList.C at line 1035
    Reading "system/controlDict" at line 2 to 41
    Entry 'forcesWallPatches' is not a dictionary
--> FOAM Warning : 
    From bool Foam::functionObjectList::read()
    in file db/functionObjects/functionObjectList/functionObjectList.C at line 1035
    Reading "system/controlDict" at line 2 to 41
    Entry 'symmPatches' is not a dictionary
--> FOAM Warning : 
    From bool Foam::functionObjectList::read()
    in file db/functionObjects/functionObjectList/functionObjectList.C at line 1035
    Reading "system/controlDict" at line 2 to 41
    Entry 'Uinf' is not a dictionary
--> FOAM Warning : 
    From bool Foam::functionObjectList::read()
    in file db/functionObjects/functionObjectList/functionObjectList.C at line 1035
    Reading "system/controlDict" at line 2 to 41
    Entry 'UinfMag' is not a dictionary
--> FOAM Warning : 
    From bool Foam::functionObjectList::read()
    in file db/functionObjects/functionObjectList/functionObjectList.C at line 1035
    Reading "system/controlDict" at line 2 to 41
    Entry 'nu' is not a dictionary
--> FOAM Warning : 
    From bool Foam::functionObjectList::read()
    in file db/functionObjects/functionObjectList/functionObjectList.C at line 1035
    Reading "system/controlDict" at line 2 to 41
    Entry 'pref' is not a dictionary
--> FOAM Warning : 
    From bool Foam::functionObjectList::read()
    in file db/functionObjects/functionObjectList/functionObjectList.C at line 1035
    Reading "system/controlDict" at line 2 to 41
    Entry 'viscRatio' is not a dictionary
--> FOAM Warning : 
    From bool Foam::functionObjectList::read()
    in file db/functionObjects/functionObjectList/functionObjectList.C at line 1035
    Reading "system/controlDict" at line 2 to 41
    Entry 'Tu' is not a dictionary
--> FOAM Warning : 
    From bool Foam::functionObjectList::read()
    in file db/functionObjects/functionObjectList/functionObjectList.C at line 1035
    Reading "system/controlDict" at line 2 to 41
    Entry 'LESturbModel' is not a dictionary
--> FOAM Warning : 
    From bool Foam::functionObjectList::read()
    in file db/functionObjects/functionObjectList/functionObjectList.C at line 1035
    Reading "system/controlDict" at line 2 to 41
    Entry 'RASturbModel' is not a dictionary
--> FOAM Warning : 
    From bool Foam::functionObjectList::read()
    in file db/functionObjects/functionObjectList/functionObjectList.C at line 1035
    Reading "system/controlDict" at line 2 to 41
    Entry 'deltaTurb' is not a dictionary
--> FOAM Warning : 
    From bool Foam::functionObjectList::read()
    in file db/functionObjects/functionObjectList/functionObjectList.C at line 1035
    Reading "system/controlDict" at line 2 to 41
    Entry 'dt' is not a dictionary
--> FOAM Warning : 
    From bool Foam::functionObjectList::read()
    in file db/functionObjects/functionObjectList/functionObjectList.C at line 1035
    Reading "system/controlDict" at line 2 to 41
    Entry 'tAvg' is not a dictionary
--> FOAM Warning : 
    From bool Foam::functionObjectList::read()
    in file db/functionObjects/functionObjectList/functionObjectList.C at line 1035
    Reading "system/controlDict" at line 2 to 41
    Entry 'tEnd' is not a dictionary
--> FOAM Warning : 
    From bool Foam::functionObjectList::read()
    in file db/functionObjects/functionObjectList/functionObjectList.C at line 1035
    Reading "system/controlDict" at line 2 to 41
    Entry 'writeInterval_' is not a dictionary
--> FOAM Warning : 
    From bool Foam::functionObjectList::read()
    in file db/functionObjects/functionObjectList/functionObjectList.C at line 1035
    Reading "system/controlDict" at line 2 to 41
    Entry 'nCores' is not a dictionary
--> FOAM Warning : 
    From bool Foam::functionObjectList::read()
    in file db/functionObjects/functionObjectList/functionObjectList.C at line 1035
    Reading "system/controlDict" at line 2 to 41
    Entry 'interpScheme' is not a dictionary
--> FOAM Warning : 
    From bool Foam::functionObjectList::read()
    in file db/functionObjects/functionObjectList/functionObjectList.C at line 1035
    Reading "system/controlDict" at line 2 to 41
    Entry 'probeField' is not a dictionary
wallShearStress wallShearStress:
    processing wall patches: 
        Windsor_Body
        CFDWT_Floor
        Windsor_Pins
        Windsor_Base
        Windsor_Body_2
        CFDWT_Floor_2
        Windsor_Pins_2
        Windsor_Base_2
        Windsor_Body_3
        CFDWT_Floor_3
        Windsor_Pins_3
        Windsor_Base_3
        Windsor_Body_4
        CFDWT_Floor_4
        Windsor_Pins_4
        Windsor_Base_4
        Windsor_Body_5
        CFDWT_Floor_5
        Windsor_Pins_5
        Windsor_Base_5
        Windsor_Body_6
        CFDWT_Floor_6
        Windsor_Pins_6
        Windsor_Base_6
        Windsor_Body_7
        CFDWT_Floor_7
        Windsor_Pins_7
        Windsor_Base_7
        Windsor_Body_8
        CFDWT_Floor_8
        Windsor_Pins_8
        Windsor_Base_8

pressure calc_cp:
    Operating mode: staticCoeff
    Not including hydrostatic effects

forceCoeffs forceCoeffsAll:
    rho: rhoInf
    Freestream density (rhoInf) set to 1
    Not including porosity effects
    magUInf: 40
    lRef   : 0.6375
    Aref   : 0.1124
    rhoInf : 1
    Selecting all coefficients
    - Drag force: Cd
    - Drag force front: Cd(f)
    - Drag force rear: Cd(r)
    - Lift force: Cl
    - Lift force front: Cl(f)
    - Lift force rear: Cl(r)
    - Pitch moment: CmPitch
    - Roll moment: CmRoll
    - Yaw moment: CmYaw
    - Side force: Cs
    - Side force front: Cs(f)
    - Side force rear: Cs(r)


forceCoeffs dragCoeffBase:
    rho: rhoInf
    Freestream density (rhoInf) set to 1
    Not including porosity effects
    magUInf: 40
    lRef   : 0.6375
    Aref   : 0.1124
    rhoInf : 1
    Selecting coefficients:
    - Drag force: Cd


Time = 1

velocityDampingConstraint velocityDamping damped 0 (0%) of cells, with max limit 300
smoothSolver:  Solving for Ux, Initial residual = 0.9999999999996524, Final residual = 0.08583851312920183, No Iterations 3
smoothSolver:  Solving for Uy, Initial residual = 1, Final residual = 0.06568043033678546, No Iterations 6
smoothSolver:  Solving for Uz, Initial residual = 1, Final residual = 0.01751034402010878, No Iterations 2
[OGL LOG][lduLduBase.H:119] Initialising OGL
	OGL commit:  e75313f+
	Branch: dev 
	Build type: Debug
	Ginkgo version: 1.8.0 ( develop)
	Ginkgo commit: sparse-communicator
	MPI is GPU aware: 1
	Forces host buffer based communication: 0
	CPU ranks per GPU: 1
	Matrix format: Coo
	End OGL_INFO
[OGL LOG][Proc: 0]: global_index_init: 0.07099999999999999 [ms]
[OGL LOG][Proc: 0]p_local_cols: call_init: 1.216 [ms]
[OGL LOG][Proc: 0]p_local_rows: call_init: 0.328 [ms]
[OGL LOG][Proc: 0]p_local_ldu_map: call_init: 2.055 [ms]
[OGL LOG][Proc: 0]p_local_coeffs: call_init: 4.246 [ms]
[OGL LOG][Proc: 0]p_non_local_cols: call_init: 0.3 [ms]
[OGL LOG][Proc: 0]p_non_local_rows: call_init: 0.07000000000000001 [ms]
[OGL LOG][Proc: 0]p_non_local_ldu_map: call_init: 0.223 [ms]
[OGL LOG][Proc: 0]p_non_local_coeffs: call_init: 0.257 [ms]
[OGL LOG][Proc: 0]p: init_local_sparsity_pattern: 191171.299 [ms]
[OGL LOG][Proc: 0]p: init_non_local_sparsity_pattern: 129.722 [ms]
[OGL LOG][Proc: 0]p: update_local_matrix_data: 162.747 [ms]
[OGL LOG][Proc: 0]p: update_non_local_matrix_data: 1.227 [ms]
[OGL LOG][Proc: 0]device_partition: call_init: 0.795 [ms]
[OGL LOG][Proc: 0]p_matrix: call_init: 373.954 [ms]
[OGL LOG][Proc: 0]p_rhs: call_init: 15.615 [ms]
[OGL LOG][Proc: 0]p_solution: call_init: 11.033 [ms]
[OGL LOG][Preconditioner.H:346] Generate preconditioner Multigrid MaxLevels 9 MinCoarseRows 10 ZeroGuess 1 Cycle v
[OGL LOG][Proc: 0]p: init_precond: 1017.249 [ms]
[OGL LOG][StoppingCriterion.H:239] Creating stopping criterion with minIter 0 frequency 1
[OGL LOG][Proc: 0]p: generate_solver: 0.03 [ms]
[OGL LOG][Proc: 0]p: solve: 3301.328 [ms]
[OGL LOG][Proc: 0]p: copy_x_back: 16.978 [ms]
[OGL LOG][lduLduBase.H:330] 
Statistics:
	Time per iteration: 26840 [mu s]
	Time per residual norm calculation: 1470.000000 [mu s]
	Time per iteration and DOF: 0.531937 [ns]
	Retrieve results bandwidth 1.992000 [GByte/s]
[OGL LOG][Proc: 0]p: solve_multi_gpu: 4984.223 [ms]
MultigridcudaGKOCG:  Solving for p, Initial residual = 1.00000000000145, Final residual = 0.008769870913015959, No Iterations 123
time step continuity errors : sum local = 0.003187067050212294, global = -2.829363938925915e-05, cumulative = -2.829363938925915e-05
smoothSolver:  Solving for nuTilda, Initial residual = 0.9999999932000406, Final residual = 0.05293991011184358, No Iterations 3
ExecutionTime = 258.9 s  ClockTime = 261 s

--> FOAM Warning : 
    From virtual bool Foam::functionObjects::fieldSelection::checkSelection()
    in file functionObjects/fieldSelections/fieldSelection/fieldSelection.C at line 166
    Field k not found
--> FOAM Warning : 
    From virtual bool Foam::functionObjects::fieldSelection::checkSelection()
    in file functionObjects/fieldSelections/fieldSelection/fieldSelection.C at line 166
    Field gammaInt not found
--> FOAM Warning : 
    From virtual bool Foam::functionObjects::fieldSelection::checkSelection()
    in file functionObjects/fieldSelections/fieldSelection/fieldSelection.C at line 166
    Field omega not found
--> FOAM Warning : 
    From virtual bool Foam::functionObjects::fieldSelection::checkSelection()
    in file functionObjects/fieldSelections/fieldSelection/fieldSelection.C at line 166
    Field ReThetat not found
--> FOAM Warning : 
    From virtual bool Foam::functionObjects::fieldSelection::checkSelection()
    in file functionObjects/fieldSelections/fieldSelection/fieldSelection.C at line 166
    Field epsilon not found
--> FOAM Warning : 
    From virtual bool Foam::functionObjects::solverFieldSelection::updateSelection()
    in file functionObjects/fieldSelections/solverFieldSelection/solverFieldSelection.C at line 85
    Valid solver fields are: 3(U nuTilda p)Time = 2

velocityDampingConstraint velocityDamping damped 0 (0%) of cells, with max limit 300
smoothSolver:  Solving for Ux, Initial residual = 0.4348465461424959, Final residual = 0.02815990574608803, No Iterations 5
smoothSolver:  Solving for Uy, Initial residual = 0.5803563872992895, Final residual = 0.03775529102885111, No Iterations 5
smoothSolver:  Solving for Uz, Initial residual = 0.5438641830976602, Final residual = 0.03325305128207628, No Iterations 5
[OGL LOG][Proc: 0]: global_index_init: 0.066 [ms]
[OGL LOG][Proc: 0]p_local_coeffs: call_update: 0.001 [ms]
[OGL LOG][Proc: 0]p_non_local_coeffs: call_update: 0 [ms]
[OGL LOG][Proc: 0]p: update_local_matrix_data: 166.947 [ms]
[OGL LOG][Proc: 0]p: update_non_local_matrix_data: 1.347 [ms]
[OGL LOG][Proc: 0]p_matrix: call_update: 4.967 [ms]
[OGL LOG][Proc: 0]p_rhs: call_update: 11.599 [ms]
[OGL LOG][Preconditioner.H:346] Generate preconditioner Multigrid MaxLevels 9 MinCoarseRows 10 ZeroGuess 1 Cycle v
[OGL LOG][Proc: 0]p: init_precond: 944.2809999999999 [ms]
[OGL LOG][StoppingCriterion.H:239] Creating stopping criterion with minIter 73 frequency 1
[OGL LOG][Proc: 0]p: generate_solver: 0.008999999999999999 [ms]
[OGL LOG][Proc: 0]p: solve: 1934.523 [ms]
[OGL LOG][Proc: 0]p: copy_x_back: 16.464 [ms]
[OGL LOG][lduLduBase.H:330] 
Statistics:
	Time per iteration: 26142 [mu s]
	Time per residual norm calculation: 1319.000000 [mu s]
	Time per iteration and DOF: 0.518104 [ns]
	Retrieve results bandwidth 2.054000 [GByte/s]
[OGL LOG][Proc: 0]p: solve_multi_gpu: 2957.228 [ms]
MultigridcudaGKOCG:  Solving for p, Initial residual = 0.4316703565635746, Final residual = 0.001269135617724165, No Iterations 74
time step continuity errors : sum local = 0.02770732077294042, global = 0.003971227183319464, cumulative = 0.003942933543930205
smoothSolver:  Solving for nuTilda, Initial residual = 0.298909700194244, Final residual = 0.02013246639102326, No Iterations 2
ExecutionTime = 281.15 s  ClockTime = 283 s

Time = 3

velocityDampingConstraint velocityDamping damped 36805 (0.07000000000000001%) of cells, with max limit 300
smoothSolver:  Solving for Ux, Initial residual = 0.2907361889693161, Final residual = 0.01824623104079381, No Iterations 2
smoothSolver:  Solving for Uy, Initial residual = 0.2812360296952796, Final residual = 0.02596444459589058, No Iterations 4
smoothSolver:  Solving for Uz, Initial residual = 0.2507363620721605, Final residual = 0.02187916321684307, No Iterations 4
[OGL LOG][Proc: 0]: global_index_init: 0.021 [ms]
[OGL LOG][Proc: 0]p_local_coeffs: call_update: 0 [ms]
[OGL LOG][Proc: 0]p_non_local_coeffs: call_update: 0 [ms]
[OGL LOG][Proc: 0]p: update_local_matrix_data: 170.564 [ms]
[OGL LOG][Proc: 0]p: update_non_local_matrix_data: 1.108 [ms]
[OGL LOG][Proc: 0]p_matrix: call_update: 4.991 [ms]
[OGL LOG][Proc: 0]p_rhs: call_update: 10.867 [ms]
[OGL LOG][Preconditioner.H:346] Generate preconditioner Multigrid MaxLevels 9 MinCoarseRows 10 ZeroGuess 1 Cycle v
[OGL LOG][Proc: 0]p: init_precond: 940.3579999999999 [ms]
[OGL LOG][StoppingCriterion.H:239] Creating stopping criterion with minIter 44 frequency 1
[OGL LOG][Proc: 0]p: generate_solver: 0.008999999999999999 [ms]
[OGL LOG][Proc: 0]p: solve: 2335.316 [ms]
[OGL LOG][Proc: 0]p: copy_x_back: 16.181 [ms]
[OGL LOG][lduLduBase.H:330] 
Statistics:
	Time per iteration: 26239 [mu s]
	Time per residual norm calculation: 1321.000000 [mu s]
	Time per iteration and DOF: 0.520026 [ns]
	Retrieve results bandwidth 2.090000 [GByte/s]
[OGL LOG][Proc: 0]p: solve_multi_gpu: 3349.799 [ms]
MultigridcudaGKOCG:  Solving for p, Initial residual = 0.2928017301578194, Final residual = 0.002841081409447042, No Iterations 89
time step continuity errors : sum local = 0.02039350449136183, global = 0.0007265562111326653, cumulative = 0.00466948975506287
smoothSolver:  Solving for nuTilda, Initial residual = 0.3325995418431141, Final residual = 0.02763461717471268, No Iterations 1
ExecutionTime = 303.09 s  ClockTime = 305 s

Time = 4

velocityDampingConstraint velocityDamping damped 359 (0%) of cells, with max limit 300
smoothSolver:  Solving for Ux, Initial residual = 0.03617911877259505, Final residual = 0.002950410244049233, No Iterations 4
smoothSolver:  Solving for Uy, Initial residual = 0.05372238349837068, Final residual = 0.004646131389043064, No Iterations 4
smoothSolver:  Solving for Uz, Initial residual = 0.04907685251365976, Final residual = 0.004384341165636736, No Iterations 4
[OGL LOG][Proc: 0]: global_index_init: 0.325 [ms]
[OGL LOG][Proc: 0]p_local_coeffs: call_update: 0 [ms]
[OGL LOG][Proc: 0]p_non_local_coeffs: call_update: 0 [ms]
[OGL LOG][Proc: 0]p: update_local_matrix_data: 167.735 [ms]
[OGL LOG][Proc: 0]p: update_non_local_matrix_data: 1.125 [ms]
[OGL LOG][Proc: 0]p_matrix: call_update: 5.466 [ms]
[OGL LOG][Proc: 0]p_rhs: call_update: 10.684 [ms]
[OGL LOG][Preconditioner.H:346] Generate preconditioner Multigrid MaxLevels 9 MinCoarseRows 10 ZeroGuess 1 Cycle v
[OGL LOG][Proc: 0]p: init_precond: 951.3049999999999 [ms]
[OGL LOG][StoppingCriterion.H:239] Creating stopping criterion with minIter 53 frequency 1
[OGL LOG][Proc: 0]p: generate_solver: 0.008999999999999999 [ms]
[OGL LOG][Proc: 0]p: solve: 1475.642 [ms]
[OGL LOG][Proc: 0]p: copy_x_back: 16.68 [ms]
[OGL LOG][lduLduBase.H:330] 
Statistics:
	Time per iteration: 27326 [mu s]
	Time per residual norm calculation: 1476.000000 [mu s]
	Time per iteration and DOF: 0.541569 [ns]
	Retrieve results bandwidth 2.027000 [GByte/s]
[OGL LOG][Proc: 0]p: solve_multi_gpu: 2503.841 [ms]
MultigridcudaGKOCG:  Solving for p, Initial residual = 0.3938121605501229, Final residual = 0.0007747399627851592, No Iterations 54
time step continuity errors : sum local = 0.008979408626596659, global = -0.001369269777705749, cumulative = 0.003300219977357122
smoothSolver:  Solving for nuTilda, Initial residual = 0.1526968875218569, Final residual = 0.006704722186264697, No Iterations 3
ExecutionTime = 324.49 s  ClockTime = 326 s

Time = 5

velocityDampingConstraint velocityDamping damped 11099 (0.02%) of cells, with max limit 300
smoothSolver:  Solving for Ux, Initial residual = 0.1813671310128954, Final residual = 0.01551656592527231, No Iterations 3
smoothSolver:  Solving for Uy, Initial residual = 0.2619153442876109, Final residual = 0.02135978175401363, No Iterations 4
smoothSolver:  Solving for Uz, Initial residual = 0.220130647709405, Final residual = 0.01697568573301826, No Iterations 4
[OGL LOG][Proc: 0]: global_index_init: 0.779 [ms]
[OGL LOG][Proc: 0]p_local_coeffs: call_update: 0 [ms]
[OGL LOG][Proc: 0]p_non_local_coeffs: call_update: 0 [ms]
[OGL LOG][Proc: 0]p: update_local_matrix_data: 165.022 [ms]
[OGL LOG][Proc: 0]p: update_non_local_matrix_data: 1.119 [ms]
[OGL LOG][Proc: 0]p_matrix: call_update: 5.036 [ms]
[OGL LOG][Proc: 0]p_rhs: call_update: 10.863 [ms]
[OGL LOG][Preconditioner.H:346] Generate preconditioner Multigrid MaxLevels 9 MinCoarseRows 10 ZeroGuess 1 Cycle v
[OGL LOG][Proc: 0]p: init_precond: 938.8920000000001 [ms]
[OGL LOG][StoppingCriterion.H:239] Creating stopping criterion with minIter 32 frequency 1
[OGL LOG][Proc: 0]p: generate_solver: 0.008999999999999999 [ms]
[OGL LOG][Proc: 0]p: solve: 2224.597 [ms]
[OGL LOG][Proc: 0]p: copy_x_back: 16.668 [ms]
[OGL LOG][lduLduBase.H:330] 
Statistics:
	Time per iteration: 26483 [mu s]
	Time per residual norm calculation: 1470.000000 [mu s]
	Time per iteration and DOF: 0.524862 [ns]
	Retrieve results bandwidth 2.029000 [GByte/s]
[OGL LOG][Proc: 0]p: solve_multi_gpu: 3243.866 [ms]
MultigridcudaGKOCG:  Solving for p, Initial residual = 0.2921312456535937, Final residual = 0.002725850024594819, No Iterations 84
time step continuity errors : sum local = 0.02747593557744027, global = -0.0005612537394391029, cumulative = 0.002738966237918019
smoothSolver:  Solving for nuTilda, Initial residual = 0.1178723749539538, Final residual = 0.01048174120294428, No Iterations 2
ExecutionTime = 348.38 s  ClockTime = 350 s

Time = 6

velocityDampingConstraint velocityDamping damped 826 (0%) of cells, with max limit 300
smoothSolver:  Solving for Ux, Initial residual = 0.1323928563569461, Final residual = 0.01264000463148413, No Iterations 4
smoothSolver:  Solving for Uy, Initial residual = 0.2507766731574371, Final residual = 0.01527135306279583, No Iterations 5
smoothSolver:  Solving for Uz, Initial residual = 0.1971868842165814, Final residual = 0.01902801340869676, No Iterations 4
[OGL LOG][Proc: 0]: global_index_init: 0.967 [ms]
[OGL LOG][Proc: 0]p_local_coeffs: call_update: 0 [ms]
[OGL LOG][Proc: 0]p_non_local_coeffs: call_update: 0 [ms]
[OGL LOG][Proc: 0]p: update_local_matrix_data: 167.388 [ms]
[OGL LOG][Proc: 0]p: update_non_local_matrix_data: 1.046 [ms]
[OGL LOG][Proc: 0]p_matrix: call_update: 5.301 [ms]
[OGL LOG][Proc: 0]p_rhs: call_update: 10.737 [ms]
[OGL LOG][Preconditioner.H:346] Generate preconditioner Multigrid MaxLevels 9 MinCoarseRows 10 ZeroGuess 1 Cycle v
[OGL LOG][Proc: 0]p: init_precond: 957.169 [ms]
[OGL LOG][StoppingCriterion.H:239] Creating stopping criterion with minIter 50 frequency 1
[OGL LOG][Proc: 0]p: generate_solver: 0.01 [ms]
[OGL LOG][Proc: 0]p: solve: 1403.427 [ms]
[OGL LOG][Proc: 0]p: copy_x_back: 16.208 [ms]
[OGL LOG][lduLduBase.H:330] 
Statistics:
	Time per iteration: 27518 [mu s]
	Time per residual norm calculation: 1324.000000 [mu s]
	Time per iteration and DOF: 0.545374 [ns]
	Retrieve results bandwidth 2.086000 [GByte/s]
[OGL LOG][Proc: 0]p: solve_multi_gpu: 2439.078 [ms]
MultigridcudaGKOCG:  Solving for p, Initial residual = 0.4361844833424523, Final residual = 0.00403584609705105, No Iterations 51
time step continuity errors : sum local = 0.02683081419005531, global = -0.002879288747749981, cumulative = -0.0001403225098319618
smoothSolver:  Solving for nuTilda, Initial residual = 0.07915344721885953, Final residual = 0.004977626978136173, No Iterations 3
ExecutionTime = 372.03 s  ClockTime = 374 s

Time = 7

velocityDampingConstraint velocityDamping damped 3780 (0.01%) of cells, with max limit 300
smoothSolver:  Solving for Ux, Initial residual = 0.09143279911409707, Final residual = 0.00614205819136191, No Iterations 4
smoothSolver:  Solving for Uy, Initial residual = 0.108511899064018, Final residual = 0.008366653328057595, No Iterations 4
smoothSolver:  Solving for Uz, Initial residual = 0.1010477712325033, Final residual = 0.007868320895553263, No Iterations 4
[OGL LOG][Proc: 0]: global_index_init: 0.16 [ms]
[OGL LOG][Proc: 0]p_local_coeffs: call_update: 0 [ms]
[OGL LOG][Proc: 0]p_non_local_coeffs: call_update: 0 [ms]
[OGL LOG][Proc: 0]p: update_local_matrix_data: 166.642 [ms]
[OGL LOG][Proc: 0]p: update_non_local_matrix_data: 1.388 [ms]
[OGL LOG][Proc: 0]p_matrix: call_update: 5.097 [ms]
[OGL LOG][Proc: 0]p_rhs: call_update: 11.141 [ms]
[OGL LOG][Preconditioner.H:346] Generate preconditioner Multigrid MaxLevels 9 MinCoarseRows 10 ZeroGuess 1 Cycle v
[OGL LOG][Proc: 0]p: init_precond: 943.274 [ms]
[OGL LOG][StoppingCriterion.H:239] Creating stopping criterion with minIter 30 frequency 1
[OGL LOG][Proc: 0]p: generate_solver: 0.008999999999999999 [ms]
[OGL LOG][Proc: 0]p: solve: 1083.085 [ms]
[OGL LOG][Proc: 0]p: copy_x_back: 16.16 [ms]
[OGL LOG][lduLduBase.H:330] 
Statistics:
	Time per iteration: 30085 [mu s]
	Time per residual norm calculation: 1467.000000 [mu s]
	Time per iteration and DOF: 0.596249 [ns]
	Retrieve results bandwidth 2.092000 [GByte/s]
[OGL LOG][Proc: 0]p: solve_multi_gpu: 2109.738 [ms]
MultigridcudaGKOCG:  Solving for p, Initial residual = 0.256365570603893, Final residual = 0.00223026185622326, No Iterations 36
time step continuity errors : sum local = 0.01767474255530005, global = -0.001804377035758678, cumulative = -0.00194469954559064
smoothSolver:  Solving for nuTilda, Initial residual = 0.063820857599046, Final residual = 0.003991582443087682, No Iterations 3
ExecutionTime = 393.28 s  ClockTime = 395 s

Time = 8

velocityDampingConstraint velocityDamping damped 3870 (0.01%) of cells, with max limit 300
smoothSolver:  Solving for Ux, Initial residual = 0.121359600633925, Final residual = 0.009810057993882893, No Iterations 4
smoothSolver:  Solving for Uy, Initial residual = 0.1781308039999774, Final residual = 0.0160452038624013, No Iterations 4
smoothSolver:  Solving for Uz, Initial residual = 0.1670869501484609, Final residual = 0.01495307841530035, No Iterations 4
[OGL LOG][Proc: 0]: global_index_init: 0.527 [ms]
[OGL LOG][Proc: 0]p_local_coeffs: call_update: 0 [ms]
[OGL LOG][Proc: 0]p_non_local_coeffs: call_update: 0 [ms]
[OGL LOG][Proc: 0]p: update_local_matrix_data: 168.313 [ms]
[OGL LOG][Proc: 0]p: update_non_local_matrix_data: 1.078 [ms]
[OGL LOG][Proc: 0]p_matrix: call_update: 3.774 [ms]
[OGL LOG][Proc: 0]p_rhs: call_update: 12.129 [ms]
[OGL LOG][Preconditioner.H:346] Generate preconditioner Multigrid MaxLevels 9 MinCoarseRows 10 ZeroGuess 1 Cycle v
[OGL LOG][Proc: 0]p: init_precond: 942.635 [ms]
[OGL LOG][StoppingCriterion.H:239] Creating stopping criterion with minIter 21 frequency 1
[OGL LOG][Proc: 0]p: generate_solver: 0.014 [ms]
[OGL LOG][Proc: 0]p: solve: 2233.784 [ms]
[OGL LOG][Proc: 0]p: copy_x_back: 16.638 [ms]
[OGL LOG][lduLduBase.H:330] 
Statistics:
	Time per iteration: 26913 [mu s]
	Time per residual norm calculation: 1463.000000 [mu s]
	Time per iteration and DOF: 0.533384 [ns]
	Retrieve results bandwidth 2.032000 [GByte/s]
[OGL LOG][Proc: 0]p: solve_multi_gpu: 3257.9 [ms]
MultigridcudaGKOCG:  Solving for p, Initial residual = 0.2676354183059625, Final residual = 0.002667225366593713, No Iterations 83
time step continuity errors : sum local = 0.01931257191729552, global = 0.000410282522314853, cumulative = -0.001534417023275787
smoothSolver:  Solving for nuTilda, Initial residual = 0.04898274347861169, Final residual = 0.003820041842298284, No Iterations 3
ExecutionTime = 415.61 s  ClockTime = 418 s

Time = 9

velocityDampingConstraint velocityDamping damped 145 (0%) of cells, with max limit 300
smoothSolver:  Solving for Ux, Initial residual = 0.07206618031452604, Final residual = 0.005899973041109527, No Iterations 4
smoothSolver:  Solving for Uy, Initial residual = 0.1075102071063754, Final residual = 0.01017587128513134, No Iterations 4
smoothSolver:  Solving for Uz, Initial residual = 0.09992409692695053, Final residual = 0.009117312446895433, No Iterations 4
[OGL LOG][Proc: 0]: global_index_init: 0.039 [ms]
[OGL LOG][Proc: 0]p_local_coeffs: call_update: 0 [ms]
[OGL LOG][Proc: 0]p_non_local_coeffs: call_update: 0 [ms]
[OGL LOG][Proc: 0]p: update_local_matrix_data: 165.764 [ms]
[OGL LOG][Proc: 0]p: update_non_local_matrix_data: 1.109 [ms]
[OGL LOG][Proc: 0]p_matrix: call_update: 4.46 [ms]
[OGL LOG][Proc: 0]p_rhs: call_update: 12.216 [ms]
[OGL LOG][Preconditioner.H:346] Generate preconditioner Multigrid MaxLevels 9 MinCoarseRows 10 ZeroGuess 1 Cycle v
[OGL LOG][Proc: 0]p: init_precond: 948.9930000000001 [ms]
[OGL LOG][StoppingCriterion.H:239] Creating stopping criterion with minIter 49 frequency 1
[OGL LOG][Proc: 0]p: generate_solver: 0.01 [ms]
[OGL LOG][Proc: 0]p: solve: 2171.017 [ms]
[OGL LOG][Proc: 0]p: copy_x_back: 16.53 [ms]
[OGL LOG][lduLduBase.H:330] 
Statistics:
	Time per iteration: 26802 [mu s]
	Time per residual norm calculation: 1314.000000 [mu s]
	Time per iteration and DOF: 0.531184 [ns]
	Retrieve results bandwidth 2.046000 [GByte/s]
[OGL LOG][Proc: 0]p: solve_multi_gpu: 3205.282 [ms]
MultigridcudaGKOCG:  Solving for p, Initial residual = 0.4637646088490535, Final residual = 0.004348595360798893, No Iterations 81
time step continuity errors : sum local = 0.0194717750988496, global = 0.0004884811190508649, cumulative = -0.001045935904224922
smoothSolver:  Solving for nuTilda, Initial residual = 0.04224206703499576, Final residual = 0.003196377256230889, No Iterations 3
ExecutionTime = 437.87 s  ClockTime = 440 s

Time = 10

velocityDampingConstraint velocityDamping damped 357 (0%) of cells, with max limit 300
smoothSolver:  Solving for Ux, Initial residual = 0.02868358020133705, Final residual = 0.002053986604474979, No Iterations 4
smoothSolver:  Solving for Uy, Initial residual = 0.05965052819047351, Final residual = 0.004451154311250019, No Iterations 4
smoothSolver:  Solving for Uz, Initial residual = 0.05786171791727082, Final residual = 0.004458456937787935, No Iterations 4
[OGL LOG][Proc: 0]: global_index_init: 0.021 [ms]
[OGL LOG][Proc: 0]p_local_coeffs: call_update: 0 [ms]
[OGL LOG][Proc: 0]p_non_local_coeffs: call_update: 0 [ms]
[OGL LOG][Proc: 0]p: update_local_matrix_data: 167.614 [ms]
[OGL LOG][Proc: 0]p: update_non_local_matrix_data: 1.208 [ms]
[OGL LOG][Proc: 0]p_matrix: call_update: 3.923 [ms]
[OGL LOG][Proc: 0]p_rhs: call_update: 11.712 [ms]
[OGL LOG][Preconditioner.H:346] Generate preconditioner Multigrid MaxLevels 9 MinCoarseRows 10 ZeroGuess 1 Cycle v
[OGL LOG][Proc: 0]p: init_precond: 947.047 [ms]
[OGL LOG][StoppingCriterion.H:239] Creating stopping criterion with minIter 48 frequency 1
[OGL LOG][Proc: 0]p: generate_solver: 0.01 [ms]
[OGL LOG][Proc: 0]p: solve: 1364.118 [ms]
[OGL LOG][Proc: 0]p: copy_x_back: 16.163 [ms]
[OGL LOG][lduLduBase.H:330] 
Statistics:
	Time per iteration: 27839 [mu s]
	Time per residual norm calculation: 1459.000000 [mu s]
	Time per iteration and DOF: 0.551736 [ns]
	Retrieve results bandwidth 2.092000 [GByte/s]
[OGL LOG][Proc: 0]p: solve_multi_gpu: 2387.766 [ms]
MultigridcudaGKOCG:  Solving for p, Initial residual = 0.3614727604416398, Final residual = 0.001365236666227182, No Iterations 49
time step continuity errors : sum local = 0.006589464197273283, global = -0.0008207060826419865, cumulative = -0.001866641986866909
smoothSolver:  Solving for nuTilda, Initial residual = 0.03547213218885011, Final residual = 0.002992538934270684, No Iterations 3
ExecutionTime = 459.07 s  ClockTime = 461 s

Time = 11

velocityDampingConstraint velocityDamping damped 1194 (0%) of cells, with max limit 300
smoothSolver:  Solving for Ux, Initial residual = 0.03918562565513515, Final residual = 0.00321494731085642, No Iterations 4
smoothSolver:  Solving for Uy, Initial residual = 0.1038055238380017, Final residual = 0.009200184648940981, No Iterations 4
smoothSolver:  Solving for Uz, Initial residual = 0.09576416897922045, Final residual = 0.008510190303252806, No Iterations 4
[OGL LOG][Proc: 0]: global_index_init: 0.267 [ms]
[OGL LOG][Proc: 0]p_local_coeffs: call_update: 0 [ms]
[OGL LOG][Proc: 0]p_non_local_coeffs: call_update: 0 [ms]
[OGL LOG][Proc: 0]p: update_local_matrix_data: 166.094 [ms]
[OGL LOG][Proc: 0]p: update_non_local_matrix_data: 1.115 [ms]
[OGL LOG][Proc: 0]p_matrix: call_update: 4.658 [ms]
[OGL LOG][Proc: 0]p_rhs: call_update: 11.393 [ms]
[OGL LOG][Preconditioner.H:346] Generate preconditioner Multigrid MaxLevels 9 MinCoarseRows 10 ZeroGuess 1 Cycle v
[OGL LOG][Proc: 0]p: init_precond: 956.75 [ms]
[OGL LOG][StoppingCriterion.H:239] Creating stopping criterion with minIter 29 frequency 1
[OGL LOG][Proc: 0]p: generate_solver: 0.01 [ms]
[OGL LOG][Proc: 0]p: solve: 2189.746 [ms]
[OGL LOG][Proc: 0]p: copy_x_back: 16.655 [ms]
[OGL LOG][lduLduBase.H:330] 
Statistics:
	Time per iteration: 26704 [mu s]
	Time per residual norm calculation: 1164.000000 [mu s]
	Time per iteration and DOF: 0.529242 [ns]
	Retrieve results bandwidth 2.030000 [GByte/s]
[OGL LOG][Proc: 0]p: solve_multi_gpu: 3225.363 [ms]
MultigridcudaGKOCG:  Solving for p, Initial residual = 0.3876453535747127, Final residual = 0.003519473162865595, No Iterations 82
time step continuity errors : sum local = 0.01532458965650039, global = -0.0001250333968220665, cumulative = -0.001991675383688976
smoothSolver:  Solving for nuTilda, Initial residual = 0.03220567915192824, Final residual = 0.002603746005947188, No Iterations 3
ExecutionTime = 483.19 s  ClockTime = 485 s

Time = 12

velocityDampingConstraint velocityDamping damped 137 (0%) of cells, with max limit 300
smoothSolver:  Solving for Ux, Initial residual = 0.03852119583148884, Final residual = 0.003391563207046196, No Iterations 4
smoothSolver:  Solving for Uy, Initial residual = 0.0799936423420196, Final residual = 0.00707940324711271, No Iterations 4
smoothSolver:  Solving for Uz, Initial residual = 0.07830899991694326, Final residual = 0.006722235874319396, No Iterations 4
[OGL LOG][Proc: 0]: global_index_init: 0.623 [ms]
[OGL LOG][Proc: 0]p_local_coeffs: call_update: 0 [ms]
[OGL LOG][Proc: 0]p_non_local_coeffs: call_update: 0 [ms]
[OGL LOG][Proc: 0]p: update_local_matrix_data: 168.569 [ms]
[OGL LOG][Proc: 0]p: update_non_local_matrix_data: 1.238 [ms]
[OGL LOG][Proc: 0]p_matrix: call_update: 4.787 [ms]
[OGL LOG][Proc: 0]p_rhs: call_update: 11.067 [ms]
[OGL LOG][Preconditioner.H:346] Generate preconditioner Multigrid MaxLevels 9 MinCoarseRows 10 ZeroGuess 1 Cycle v
[OGL LOG][Proc: 0]p: init_precond: 984.211 [ms]
[OGL LOG][StoppingCriterion.H:239] Creating stopping criterion with minIter 49 frequency 1
[OGL LOG][Proc: 0]p: generate_solver: 0.008999999999999999 [ms]
[OGL LOG][Proc: 0]p: solve: 1351.334 [ms]
[OGL LOG][Proc: 0]p: copy_x_back: 16.28 [ms]
[OGL LOG][lduLduBase.H:330] 
Statistics:
	Time per iteration: 27026 [mu s]
	Time per residual norm calculation: 1462.000000 [mu s]
	Time per iteration and DOF: 0.535623 [ns]
	Retrieve results bandwidth 2.077000 [GByte/s]
[OGL LOG][Proc: 0]p: solve_multi_gpu: 2409.203 [ms]
MultigridcudaGKOCG:  Solving for p, Initial residual = 0.4237111814573642, Final residual = 0.003106429913650277, No Iterations 50
time step continuity errors : sum local = 0.01106272944410337, global = -0.001728170483406838, cumulative = -0.003719845867095813
smoothSolver:  Solving for nuTilda, Initial residual = 0.02869196062353338, Final residual = 0.002545375296793285, No Iterations 3
ExecutionTime = 504.53 s  ClockTime = 507 s

Time = 13

velocityDampingConstraint velocityDamping damped 56 (0%) of cells, with max limit 300
smoothSolver:  Solving for Ux, Initial residual = 0.02941222804342543, Final residual = 0.002414339686244833, No Iterations 4
smoothSolver:  Solving for Uy, Initial residual = 0.05892801222831755, Final residual = 0.004826816297171097, No Iterations 4
smoothSolver:  Solving for Uz, Initial residual = 0.0585297116151447, Final residual = 0.004617962425335347, No Iterations 4
[OGL LOG][Proc: 0]: global_index_init: 0.507 [ms]
[OGL LOG][Proc: 0]p_local_coeffs: call_update: 0 [ms]
[OGL LOG][Proc: 0]p_non_local_coeffs: call_update: 0 [ms]
[OGL LOG][Proc: 0]p: update_local_matrix_data: 166.685 [ms]
[OGL LOG][Proc: 0]p: update_non_local_matrix_data: 1.132 [ms]
[OGL LOG][Proc: 0]p_matrix: call_update: 5.005 [ms]
[OGL LOG][Proc: 0]p_rhs: call_update: 11.498 [ms]
[OGL LOG][Preconditioner.H:346] Generate preconditioner Multigrid MaxLevels 9 MinCoarseRows 10 ZeroGuess 1 Cycle v
[OGL LOG][Proc: 0]p: init_precond: 944.4880000000001 [ms]
[OGL LOG][StoppingCriterion.H:239] Creating stopping criterion with minIter 30 frequency 1
[OGL LOG][Proc: 0]p: generate_solver: 0.01 [ms]
[OGL LOG][Proc: 0]p: solve: 1041.49 [ms]
[OGL LOG][Proc: 0]p: copy_x_back: 16.252 [ms]
[OGL LOG][lduLduBase.H:330] 
Statistics:
	Time per iteration: 28930 [mu s]
	Time per residual norm calculation: 1464.000000 [mu s]
	Time per iteration and DOF: 0.573358 [ns]
	Retrieve results bandwidth 2.081000 [GByte/s]
[OGL LOG][Proc: 0]p: solve_multi_gpu: 2069.792 [ms]
MultigridcudaGKOCG:  Solving for p, Initial residual = 0.3594299102100065, Final residual = 0.003584540120954624, No Iterations 36
time step continuity errors : sum local = 0.01364630936510718, global = -0.0006646366748139138, cumulative = -0.004384482541909727
smoothSolver:  Solving for nuTilda, Initial residual = 0.02778164662974059, Final residual = 0.002358612283453959, No Iterations 3
ExecutionTime = 525.42 s  ClockTime = 528 s

Time = 14

velocityDampingConstraint velocityDamping damped 375 (0%) of cells, with max limit 300
smoothSolver:  Solving for Ux, Initial residual = 0.03550714537443676, Final residual = 0.002983116994817897, No Iterations 4
smoothSolver:  Solving for Uy, Initial residual = 0.07012358362667392, Final residual = 0.0063403176965465, No Iterations 4
smoothSolver:  Solving for Uz, Initial residual = 0.06642662181730451, Final residual = 0.00593618250482248, No Iterations 4
[OGL LOG][Proc: 0]: global_index_init: 0.122 [ms]
[OGL LOG][Proc: 0]p_local_coeffs: call_update: 0 [ms]
[OGL LOG][Proc: 0]p_non_local_coeffs: call_update: 0 [ms]
[OGL LOG][Proc: 0]p: update_local_matrix_data: 166.804 [ms]
[OGL LOG][Proc: 0]p: update_non_local_matrix_data: 1.259 [ms]
[OGL LOG][Proc: 0]p_matrix: call_update: 5.015 [ms]
[OGL LOG][Proc: 0]p_rhs: call_update: 10.913 [ms]
[OGL LOG][Preconditioner.H:346] Generate preconditioner Multigrid MaxLevels 9 MinCoarseRows 10 ZeroGuess 1 Cycle v
[OGL LOG][Proc: 0]p: init_precond: 949.35 [ms]
[OGL LOG][StoppingCriterion.H:239] Creating stopping criterion with minIter 21 frequency 1
[OGL LOG][Proc: 0]p: generate_solver: 0.01 [ms]
[OGL LOG][Proc: 0]p: solve: 2176.856 [ms]
[OGL LOG][Proc: 0]p: copy_x_back: 16.67 [ms]
[OGL LOG][lduLduBase.H:330] 
Statistics:
	Time per iteration: 27210 [mu s]
	Time per residual norm calculation: 1467.000000 [mu s]
	Time per iteration and DOF: 0.539270 [ns]
	Retrieve results bandwidth 2.028000 [GByte/s]
[OGL LOG][Proc: 0]p: solve_multi_gpu: 3210.636 [ms]
MultigridcudaGKOCG:  Solving for p, Initial residual = 0.3369996272455841, Final residual = 0.003180313600933101, No Iterations 80
time step continuity errors : sum local = 0.01055388637183709, global = 0.0001563070674971228, cumulative = -0.004228175474412605
smoothSolver:  Solving for nuTilda, Initial residual = 0.02582584700801096, Final residual = 0.002383703022986823, No Iterations 3
ExecutionTime = 549.51 s  ClockTime = 552 s

Time = 15

velocityDampingConstraint velocityDamping damped 123 (0%) of cells, with max limit 300
smoothSolver:  Solving for Ux, Initial residual = 0.02772907173139309, Final residual = 0.002254548691057931, No Iterations 4
smoothSolver:  Solving for Uy, Initial residual = 0.04742755244805151, Final residual = 0.004160488648551975, No Iterations 4
smoothSolver:  Solving for Uz, Initial residual = 0.04622849488475494, Final residual = 0.003914661263998523, No Iterations 4
[OGL LOG][Proc: 0]: global_index_init: 1.262 [ms]
[OGL LOG][Proc: 0]p_local_coeffs: call_update: 0 [ms]
[OGL LOG][Proc: 0]p_non_local_coeffs: call_update: 0 [ms]
[OGL LOG][Proc: 0]p: update_local_matrix_data: 173.946 [ms]
[OGL LOG][Proc: 0]p: update_non_local_matrix_data: 1.115 [ms]
[OGL LOG][Proc: 0]p_matrix: call_update: 4.286 [ms]
[OGL LOG][Proc: 0]p_rhs: call_update: 11.191 [ms]
[OGL LOG][Preconditioner.H:346] Generate preconditioner Multigrid MaxLevels 9 MinCoarseRows 10 ZeroGuess 1 Cycle v
[OGL LOG][Proc: 0]p: init_precond: 1011.716 [ms]
[OGL LOG][StoppingCriterion.H:239] Creating stopping criterion with minIter 48 frequency 1
[OGL LOG][Proc: 0]p: generate_solver: 0.01 [ms]
[OGL LOG][Proc: 0]p: solve: 1884.329 [ms]
[OGL LOG][Proc: 0]p: copy_x_back: 16.727 [ms]
[OGL LOG][lduLduBase.H:330] 
Statistics:
	Time per iteration: 26539 [mu s]
	Time per residual norm calculation: 1311.000000 [mu s]
	Time per iteration and DOF: 0.525972 [ns]
	Retrieve results bandwidth 2.021000 [GByte/s]
[OGL LOG][Proc: 0]p: solve_multi_gpu: 2971.831 [ms]
MultigridcudaGKOCG:  Solving for p, Initial residual = 0.3643466676049739, Final residual = 0.003408410733324782, No Iterations 71
time step continuity errors : sum local = 0.009321639104004536, global = 0.0008011079101163082, cumulative = -0.003427067564296296
smoothSolver:  Solving for nuTilda, Initial residual = 0.02578746013554142, Final residual = 0.002228915132263586, No Iterations 3
ExecutionTime = 573.33 s  ClockTime = 576 s

Time = 16

velocityDampingConstraint velocityDamping damped 8 (0%) of cells, with max limit 300
smoothSolver:  Solving for Ux, Initial residual = 0.01781599029256483, Final residual = 0.001354318960876776, No Iterations 4
smoothSolver:  Solving for Uy, Initial residual = 0.03817352210384591, Final residual = 0.002906474767030168, No Iterations 4
smoothSolver:  Solving for Uz, Initial residual = 0.04182511923029312, Final residual = 0.003341117183476416, No Iterations 4
[OGL LOG][Proc: 0]: global_index_init: 0.024 [ms]
[OGL LOG][Proc: 0]p_local_coeffs: call_update: 0 [ms]
[OGL LOG][Proc: 0]p_non_local_coeffs: call_update: 0 [ms]
[OGL LOG][Proc: 0]p: update_local_matrix_data: 166.777 [ms]
[OGL LOG][Proc: 0]p: update_non_local_matrix_data: 1.309 [ms]
[OGL LOG][Proc: 0]p_matrix: call_update: 4.115 [ms]
[OGL LOG][Proc: 0]p_rhs: call_update: 12.104 [ms]
[OGL LOG][Preconditioner.H:346] Generate preconditioner Multigrid MaxLevels 9 MinCoarseRows 10 ZeroGuess 1 Cycle v
[OGL LOG][Proc: 0]p: init_precond: 932.3 [ms]
[OGL LOG][StoppingCriterion.H:239] Creating stopping criterion with minIter 42 frequency 1
[OGL LOG][Proc: 0]p: generate_solver: 0.01 [ms]
[OGL LOG][Proc: 0]p: solve: 1250.15 [ms]
[OGL LOG][Proc: 0]p: copy_x_back: 16.18 [ms]
[OGL LOG][lduLduBase.H:330] 
Statistics:
	Time per iteration: 29073 [mu s]
	Time per residual norm calculation: 1323.000000 [mu s]
	Time per iteration and DOF: 0.576193 [ns]
	Retrieve results bandwidth 2.090000 [GByte/s]
[OGL LOG][Proc: 0]p: solve_multi_gpu: 2265.584 [ms]
MultigridcudaGKOCG:  Solving for p, Initial residual = 0.4771933975326942, Final residual = 0.002640490590731304, No Iterations 43
time step continuity errors : sum local = 0.005533056271463726, global = -0.0003983616347815872, cumulative = -0.003825429199077884
smoothSolver:  Solving for nuTilda, Initial residual = 0.02368131987635311, Final residual = 0.002248938249832776, No Iterations 3
ExecutionTime = 594.45 s  ClockTime = 597 s

Time = 17

velocityDampingConstraint velocityDamping damped 15 (0%) of cells, with max limit 300
smoothSolver:  Solving for Ux, Initial residual = 0.01578420727860582, Final residual = 0.001181089832208463, No Iterations 4
smoothSolver:  Solving for Uy, Initial residual = 0.04312823936197929, Final residual = 0.00361377790393635, No Iterations 4
smoothSolver:  Solving for Uz, Initial residual = 0.04530851386301535, Final residual = 0.003874593208167434, No Iterations 4
[OGL LOG][Proc: 0]: global_index_init: 0.08 [ms]
[OGL LOG][Proc: 0]p_local_coeffs: call_update: 0 [ms]
[OGL LOG][Proc: 0]p_non_local_coeffs: call_update: 0 [ms]
[OGL LOG][Proc: 0]p: update_local_matrix_data: 167.787 [ms]
[OGL LOG][Proc: 0]p: update_non_local_matrix_data: 1.074 [ms]
[OGL LOG][Proc: 0]p_matrix: call_update: 4.046 [ms]
[OGL LOG][Proc: 0]p_rhs: call_update: 12.137 [ms]
[OGL LOG][Preconditioner.H:346] Generate preconditioner Multigrid MaxLevels 9 MinCoarseRows 10 ZeroGuess 1 Cycle v
[OGL LOG][Proc: 0]p: init_precond: 935.34 [ms]
[OGL LOG][StoppingCriterion.H:239] Creating stopping criterion with minIter 25 frequency 1
[OGL LOG][Proc: 0]p: generate_solver: 0.01 [ms]
[OGL LOG][Proc: 0]p: solve: 2119.532 [ms]
[OGL LOG][Proc: 0]p: copy_x_back: 16.293 [ms]
[OGL LOG][lduLduBase.H:330] 
Statistics:
	Time per iteration: 26829 [mu s]
	Time per residual norm calculation: 1320.000000 [mu s]
	Time per iteration and DOF: 0.531719 [ns]
	Retrieve results bandwidth 2.075000 [GByte/s]
[OGL LOG][Proc: 0]p: solve_multi_gpu: 3138.492 [ms]
MultigridcudaGKOCG:  Solving for p, Initial residual = 0.3961308100540472, Final residual = 0.003776791978124589, No Iterations 79
time step continuity errors : sum local = 0.008462460911717278, global = -0.0001070231862149338, cumulative = -0.003932452385292817
smoothSolver:  Solving for nuTilda, Initial residual = 0.02477086362703255, Final residual = 0.00209324985584478, No Iterations 3
ExecutionTime = 616.47 s  ClockTime = 619 s

Time = 18

velocityDampingConstraint velocityDamping damped 62 (0%) of cells, with max limit 300
smoothSolver:  Solving for Ux, Initial residual = 0.01482384706904819, Final residual = 0.001240541421716969, No Iterations 4
smoothSolver:  Solving for Uy, Initial residual = 0.03596964993360885, Final residual = 0.002962341293892368, No Iterations 4
smoothSolver:  Solving for Uz, Initial residual = 0.03685730561054584, Final residual = 0.003043519373025318, No Iterations 4
[OGL LOG][Proc: 0]: global_index_init: 0.035 [ms]
[OGL LOG][Proc: 0]p_local_coeffs: call_update: 0 [ms]
[OGL LOG][Proc: 0]p_non_local_coeffs: call_update: 0 [ms]
[OGL LOG][Proc: 0]p: update_local_matrix_data: 167.251 [ms]
[OGL LOG][Proc: 0]p: update_non_local_matrix_data: 1.157 [ms]
[OGL LOG][Proc: 0]p_matrix: call_update: 5.208 [ms]
[OGL LOG][Proc: 0]p_rhs: call_update: 10.969 [ms]
[OGL LOG][Preconditioner.H:346] Generate preconditioner Multigrid MaxLevels 9 MinCoarseRows 10 ZeroGuess 1 Cycle v
[OGL LOG][Proc: 0]p: init_precond: 938.8339999999999 [ms]
[OGL LOG][StoppingCriterion.H:239] Creating stopping criterion with minIter 47 frequency 1
[OGL LOG][Proc: 0]p: generate_solver: 0.01 [ms]
[OGL LOG][Proc: 0]p: solve: 1347.869 [ms]
[OGL LOG][Proc: 0]p: copy_x_back: 15.952 [ms]
[OGL LOG][lduLduBase.H:330] 
Statistics:
	Time per iteration: 28080 [mu s]
	Time per residual norm calculation: 1321.000000 [mu s]
	Time per iteration and DOF: 0.556512 [ns]
	Retrieve results bandwidth 2.120000 [GByte/s]
[OGL LOG][Proc: 0]p: solve_multi_gpu: 2368.991 [ms]
MultigridcudaGKOCG:  Solving for p, Initial residual = 0.4136772538605229, Final residual = 0.002798614071474709, No Iterations 48
time step continuity errors : sum local = 0.005228763602709109, global = -0.001024500974247232, cumulative = -0.004956953359540049
smoothSolver:  Solving for nuTilda, Initial residual = 0.02208979132608267, Final residual = 0.002132229680392878, No Iterations 3
ExecutionTime = 639.62 s  ClockTime = 642 s

Time = 19

velocityDampingConstraint velocityDamping damped 0 (0%) of cells, with max limit 300
smoothSolver:  Solving for Ux, Initial residual = 0.01437498087954202, Final residual = 0.001285178683284921, No Iterations 4
smoothSolver:  Solving for Uy, Initial residual = 0.03504608547949074, Final residual = 0.003014264297412016, No Iterations 4
smoothSolver:  Solving for Uz, Initial residual = 0.03437464337530136, Final residual = 0.002907889273235891, No Iterations 4
[OGL LOG][Proc: 0]: global_index_init: 1.419 [ms]
[OGL LOG][Proc: 0]p_local_coeffs: call_update: 0 [ms]
[OGL LOG][Proc: 0]p_non_local_coeffs: call_update: 0 [ms]
[OGL LOG][Proc: 0]p: update_local_matrix_data: 171.784 [ms]
[OGL LOG][Proc: 0]p: update_non_local_matrix_data: 1.22 [ms]
[OGL LOG][Proc: 0]p_matrix: call_update: 5.168 [ms]
[OGL LOG][Proc: 0]p_rhs: call_update: 10.767 [ms]
[OGL LOG][Preconditioner.H:346] Generate preconditioner Multigrid MaxLevels 9 MinCoarseRows 10 ZeroGuess 1 Cycle v
[OGL LOG][Proc: 0]p: init_precond: 929.617 [ms]
[OGL LOG][StoppingCriterion.H:239] Creating stopping criterion with minIter 28 frequency 1
[OGL LOG][Proc: 0]p: generate_solver: 0.008999999999999999 [ms]
[OGL LOG][Proc: 0]p: solve: 1093.11 [ms]
[OGL LOG][Proc: 0]p: copy_x_back: 16.301 [ms]
[OGL LOG][lduLduBase.H:330] 
Statistics:
	Time per iteration: 29543 [mu s]
	Time per residual norm calculation: 1316.000000 [mu s]
	Time per iteration and DOF: 0.585507 [ns]
	Retrieve results bandwidth 2.074000 [GByte/s]
[OGL LOG][Proc: 0]p: solve_multi_gpu: 2094.322 [ms]
MultigridcudaGKOCG:  Solving for p, Initial residual = 0.3650267327973291, Final residual = 0.003212187589596025, No Iterations 37
time step continuity errors : sum local = 0.006216591925563006, global = -0.0003518085548948403, cumulative = -0.005308761914434889
smoothSolver:  Solving for nuTilda, Initial residual = 0.02555727654988291, Final residual = 0.001989764143189667, No Iterations 3
ExecutionTime = 660.48 s  ClockTime = 663 s

Time = 20

velocityDampingConstraint velocityDamping damped 5 (0%) of cells, with max limit 300
smoothSolver:  Solving for Ux, Initial residual = 0.01446184270084598, Final residual = 0.001267946014172914, No Iterations 4
smoothSolver:  Solving for Uy, Initial residual = 0.03331654005046365, Final residual = 0.003037587451649659, No Iterations 4
smoothSolver:  Solving for Uz, Initial residual = 0.03235233796518033, Final residual = 0.002871137702035944, No Iterations 4
[OGL LOG][Proc: 0]: global_index_init: 0.401 [ms]
[OGL LOG][Proc: 0]p_local_coeffs: call_update: 0 [ms]
[OGL LOG][Proc: 0]p_non_local_coeffs: call_update: 0 [ms]
[OGL LOG][Proc: 0]p: update_local_matrix_data: 168.118 [ms]
[OGL LOG][Proc: 0]p: update_non_local_matrix_data: 1.103 [ms]
[OGL LOG][Proc: 0]p_matrix: call_update: 4.834 [ms]
[OGL LOG][Proc: 0]p_rhs: call_update: 11.276 [ms]
[OGL LOG][Preconditioner.H:346] Generate preconditioner Multigrid MaxLevels 9 MinCoarseRows 10 ZeroGuess 1 Cycle v
[OGL LOG][Proc: 0]p: init_precond: 952.419 [ms]
[OGL LOG][StoppingCriterion.H:239] Creating stopping criterion with minIter 22 frequency 1
[OGL LOG][Proc: 0]p: generate_solver: 0.008999999999999999 [ms]
[OGL LOG][Proc: 0]p: solve: 2084.063 [ms]
[OGL LOG][Proc: 0]p: copy_x_back: 16.274 [ms]
[OGL LOG][lduLduBase.H:330] 
Statistics:
	Time per iteration: 27065 [mu s]
	Time per residual norm calculation: 1329.000000 [mu s]
	Time per iteration and DOF: 0.536396 [ns]
	Retrieve results bandwidth 2.078000 [GByte/s]
[OGL LOG][Proc: 0]p: solve_multi_gpu: 3117.711 [ms]
MultigridcudaGKOCG:  Solving for p, Initial residual = 0.3780720795760202, Final residual = 0.003742421911745152, No Iterations 77
time step continuity errors : sum local = 0.00604457001121191, global = 0.0001568406077880739, cumulative = -0.005151921306646816
smoothSolver:  Solving for nuTilda, Initial residual = 0.0210106926619225, Final residual = 0.002067845285023189, No Iterations 3
ExecutionTime = 682.4400000000001 s  ClockTime = 685 s

Time = 21

velocityDampingConstraint velocityDamping damped 66 (0%) of cells, with max limit 300
smoothSolver:  Solving for Ux, Initial residual = 0.01212693280168822, Final residual = 0.001026901559899405, No Iterations 4
smoothSolver:  Solving for Uy, Initial residual = 0.0253920148628654, Final residual = 0.002251022276016831, No Iterations 4
smoothSolver:  Solving for Uz, Initial residual = 0.02650484666330503, Final residual = 0.002224076488059326, No Iterations 4
[OGL LOG][Proc: 0]: global_index_init: 0.521 [ms]
[OGL LOG][Proc: 0]p_local_coeffs: call_update: 0 [ms]
[OGL LOG][Proc: 0]p_non_local_coeffs: call_update: 0 [ms]
[OGL LOG][Proc: 0]p: update_local_matrix_data: 164.866 [ms]
[OGL LOG][Proc: 0]p: update_non_local_matrix_data: 1.229 [ms]
[OGL LOG][Proc: 0]p_matrix: call_update: 4.463 [ms]
[OGL LOG][Proc: 0]p_rhs: call_update: 21.706 [ms]
[OGL LOG][Preconditioner.H:346] Generate preconditioner Multigrid MaxLevels 9 MinCoarseRows 10 ZeroGuess 1 Cycle v
[OGL LOG][Proc: 0]p: init_precond: 997.976 [ms]
[OGL LOG][StoppingCriterion.H:239] Creating stopping criterion with minIter 46 frequency 1
[OGL LOG][Proc: 0]p: generate_solver: 0.008999999999999999 [ms]
[OGL LOG][Proc: 0]p: solve: 1728.27 [ms]
[OGL LOG][Proc: 0]p: copy_x_back: 16.455 [ms]
[OGL LOG][lduLduBase.H:330] 
Statistics:
	Time per iteration: 26588 [mu s]
	Time per residual norm calculation: 1320.000000 [mu s]
	Time per iteration and DOF: 0.526943 [ns]
	Retrieve results bandwidth 2.055000 [GByte/s]
[OGL LOG][Proc: 0]p: solve_multi_gpu: 2819.912 [ms]
MultigridcudaGKOCG:  Solving for p, Initial residual = 0.3261025612927717, Final residual = 0.00324122986609274, No Iterations 65
time step continuity errors : sum local = 0.005115158763024866, global = 0.0001398286172078977, cumulative = -0.005012092689438918
smoothSolver:  Solving for nuTilda, Initial residual = 0.02883097285500906, Final residual = 0.001919470162478217, No Iterations 3
ExecutionTime = 706.02 s  ClockTime = 709 s

Time = 22

velocityDampingConstraint velocityDamping damped 4 (0%) of cells, with max limit 300
smoothSolver:  Solving for Ux, Initial residual = 0.009762365977469285, Final residual = 0.0008255797149066362, No Iterations 4
smoothSolver:  Solving for Uy, Initial residual = 0.02451979719515053, Final residual = 0.002002387714903937, No Iterations 4
smoothSolver:  Solving for Uz, Initial residual = 0.0267691488712964, Final residual = 0.002199641488573838, No Iterations 4
[OGL LOG][Proc: 0]: global_index_init: 0.272 [ms]
[OGL LOG][Proc: 0]p_local_coeffs: call_update: 0 [ms]
[OGL LOG][Proc: 0]p_non_local_coeffs: call_update: 0 [ms]
[OGL LOG][Proc: 0]p: update_local_matrix_data: 168.381 [ms]
[OGL LOG][Proc: 0]p: update_non_local_matrix_data: 1.138 [ms]
[OGL LOG][Proc: 0]p_matrix: call_update: 4.93 [ms]
[OGL LOG][Proc: 0]p_rhs: call_update: 10.879 [ms]
[OGL LOG][Preconditioner.H:346] Generate preconditioner Multigrid MaxLevels 9 MinCoarseRows 10 ZeroGuess 1 Cycle v
[OGL LOG][Proc: 0]p: init_precond: 944.169 [ms]
[OGL LOG][StoppingCriterion.H:239] Creating stopping criterion with minIter 39 frequency 1
[OGL LOG][Proc: 0]p: generate_solver: 0.008999999999999999 [ms]
[OGL LOG][Proc: 0]p: solve: 1132.322 [ms]
[OGL LOG][Proc: 0]p: copy_x_back: 16.701 [ms]
[OGL LOG][lduLduBase.H:330] 
Statistics:
	Time per iteration: 28308 [mu s]
	Time per residual norm calculation: 1475.000000 [mu s]
	Time per iteration and DOF: 0.561031 [ns]
	Retrieve results bandwidth 2.025000 [GByte/s]
[OGL LOG][Proc: 0]p: solve_multi_gpu: 2158.051 [ms]
MultigridcudaGKOCG:  Solving for p, Initial residual = 0.3014540949445976, Final residual = 0.002109091069150083, No Iterations 40
time step continuity errors : sum local = 0.003397087728525334, global = -0.0003913766901404076, cumulative = -0.005403469379579326
smoothSolver:  Solving for nuTilda, Initial residual = 0.02000939179592356, Final residual = 0.001135207402183895, No Iterations 4
ExecutionTime = 729.1799999999999 s  ClockTime = 732 s

Time = 23

velocityDampingConstraint velocityDamping damped 0 (0%) of cells, with max limit 300
smoothSolver:  Solving for Ux, Initial residual = 0.009128035303061291, Final residual = 0.0007540973170480164, No Iterations 4
smoothSolver:  Solving for Uy, Initial residual = 0.02505917504058648, Final residual = 0.002110062759140062, No Iterations 4
smoothSolver:  Solving for Uz, Initial residual = 0.02619389333347293, Final residual = 0.002204852432338514, No Iterations 4
[OGL LOG][Proc: 0]: global_index_init: 0.731 [ms]
[OGL LOG][Proc: 0]p_local_coeffs: call_update: 0 [ms]
[OGL LOG][Proc: 0]p_non_local_coeffs: call_update: 0 [ms]
[OGL LOG][Proc: 0]p: update_local_matrix_data: 166.244 [ms]
[OGL LOG][Proc: 0]p: update_non_local_matrix_data: 1.174 [ms]
[OGL LOG][Proc: 0]p_matrix: call_update: 4.967 [ms]
[OGL LOG][Proc: 0]p_rhs: call_update: 11.21 [ms]
[OGL LOG][Preconditioner.H:346] Generate preconditioner Multigrid MaxLevels 9 MinCoarseRows 10 ZeroGuess 1 Cycle v
[OGL LOG][Proc: 0]p: init_precond: 940.985 [ms]
[OGL LOG][StoppingCriterion.H:239] Creating stopping criterion with minIter 24 frequency 1
[OGL LOG][Proc: 0]p: generate_solver: 0.01 [ms]
[OGL LOG][Proc: 0]p: solve: 2048.714 [ms]
[OGL LOG][Proc: 0]p: copy_x_back: 16.876 [ms]
[OGL LOG][lduLduBase.H:330] 
Statistics:
	Time per iteration: 27316 [mu s]
	Time per residual norm calculation: 1022.000000 [mu s]
	Time per iteration and DOF: 0.541371 [ns]
	Retrieve results bandwidth 2.004000 [GByte/s]
[OGL LOG][Proc: 0]p: solve_multi_gpu: 3074.145 [ms]
MultigridcudaGKOCG:  Solving for p, Initial residual = 0.260194039503742, Final residual = 0.002596070921135462, No Iterations 75
time step continuity errors : sum local = 0.004307513042356293, global = -0.0001196665187723546, cumulative = -0.005523135898351681
smoothSolver:  Solving for nuTilda, Initial residual = 0.03161982666852341, Final residual = 0.001834542728468889, No Iterations 3
ExecutionTime = 751.16 s  ClockTime = 754 s

Time = 24

velocityDampingConstraint velocityDamping damped 3 (0%) of cells, with max limit 300
smoothSolver:  Solving for Ux, Initial residual = 0.00868199896811307, Final residual = 0.0007623485772435445, No Iterations 4
smoothSolver:  Solving for Uy, Initial residual = 0.02395169069061159, Final residual = 0.002058143437038465, No Iterations 4
smoothSolver:  Solving for Uz, Initial residual = 0.0237748877515474, Final residual = 0.002029286834871885, No Iterations 4
[OGL LOG][Proc: 0]: global_index_init: 0.773 [ms]
[OGL LOG][Proc: 0]p_local_coeffs: call_update: 0 [ms]
[OGL LOG][Proc: 0]p_non_local_coeffs: call_update: 0 [ms]
[OGL LOG][Proc: 0]p: update_local_matrix_data: 168.304 [ms]
[OGL LOG][Proc: 0]p: update_non_local_matrix_data: 1.124 [ms]
[OGL LOG][Proc: 0]p_matrix: call_update: 4.272 [ms]
[OGL LOG][Proc: 0]p_rhs: call_update: 11.652 [ms]
[OGL LOG][Preconditioner.H:346] Generate preconditioner Multigrid MaxLevels 9 MinCoarseRows 10 ZeroGuess 1 Cycle v
[OGL LOG][Proc: 0]p: init_precond: 987.292 [ms]
[OGL LOG][StoppingCriterion.H:239] Creating stopping criterion with minIter 45 frequency 1
[OGL LOG][Proc: 0]p: generate_solver: 0.008999999999999999 [ms]
[OGL LOG][Proc: 0]p: solve: 1261.215 [ms]
[OGL LOG][Proc: 0]p: copy_x_back: 16.596 [ms]
[OGL LOG][lduLduBase.H:330] 
Statistics:
	Time per iteration: 27417 [mu s]
	Time per residual norm calculation: 1476.000000 [mu s]
	Time per iteration and DOF: 0.543373 [ns]
	Retrieve results bandwidth 2.037000 [GByte/s]
[OGL LOG][Proc: 0]p: solve_multi_gpu: 2328.317 [ms]
MultigridcudaGKOCG:  Solving for p, Initial residual = 0.3421297563531439, Final residual = 0.002085290874652417, No Iterations 46
time step continuity errors : sum local = 0.002354124359706631, global = -0.0004835322385849809, cumulative = -0.006006668136936661
smoothSolver:  Solving for nuTilda, Initial residual = 0.0186827632181847, Final residual = 0.001096937002539822, No Iterations 4
ExecutionTime = 772.41 s  ClockTime = 775 s


    From virtual bool Foam::regIOobject::readIfModified()
    in file db/regIOobject/regIOobjectRead.C at line 271
        Re-reading object fvSolution from file "/hkfs/work/workspace/scratch/eq4036-windsorbody_setup/workspace/0611d5eceddca09d817e323046b94df0/case/system/fvSolution"
Time = 25

velocityDampingConstraint velocityDamping damped 5 (0%) of cells, with max limit 300
smoothSolver:  Solving for Ux, Initial residual = 0.008585757543888189, Final residual = 0.0007856992480775248, No Iterations 4
smoothSolver:  Solving for Uy, Initial residual = 0.02333878891026123, Final residual = 0.00208718290097765, No Iterations 4
smoothSolver:  Solving for Uz, Initial residual = 0.02307170184205789, Final residual = 0.002029118193301659, No Iterations 4
[OGL LOG][Proc: 0]: global_index_init: 0.036 [ms]
[OGL LOG][Proc: 0]p_local_coeffs: call_update: 0 [ms]
[OGL LOG][Proc: 0]p_non_local_coeffs: call_update: 0 [ms]
[OGL LOG][Proc: 0]p: update_local_matrix_data: 165.769 [ms]
[OGL LOG][Proc: 0]p: update_non_local_matrix_data: 1.116 [ms]
[OGL LOG][Proc: 0]p_matrix: call_update: 5.089 [ms]
[OGL LOG][Proc: 0]p_rhs: call_update: 11.232 [ms]
[OGL LOG][Preconditioner.H:346] Generate preconditioner Multigrid MaxLevels 9 MinCoarseRows 10 ZeroGuess 1 Cycle v
[OGL LOG][Proc: 0]p: init_precond: 993.202 [ms]
[OGL LOG][StoppingCriterion.H:239] Creating stopping criterion with minIter 27 frequency 1
[OGL LOG][Proc: 0]p: generate_solver: 0.008999999999999999 [ms]
[OGL LOG][Proc: 0]p: solve: 989.154 [ms]
[OGL LOG][Proc: 0]p: copy_x_back: 16.623 [ms]
[OGL LOG][lduLduBase.H:330] 
Statistics:
	Time per iteration: 29092 [mu s]
	Time per residual norm calculation: 1470.000000 [mu s]
	Time per iteration and DOF: 0.576569 [ns]
	Retrieve results bandwidth 2.034000 [GByte/s]
[OGL LOG][Proc: 0]p: solve_multi_gpu: 2061.633 [ms]
MultigridcudaGKOCG:  Solving for p, Initial residual = 0.3112078748979009, Final residual = 0.002985433902865043, No Iterations 34
time step continuity errors : sum local = 0.003281221156237566, global = 5.771316382122052e-05, cumulative = -0.005948954973115441
smoothSolver:  Solving for nuTilda, Initial residual = 0.03169254144196174, Final residual = 0.001756485238269953, No Iterations 3
ExecutionTime = 795.36 s  ClockTime = 798 s

Time = 26

velocityDampingConstraint velocityDamping damped 0 (0%) of cells, with max limit 300
smoothSolver:  Solving for Ux, Initial residual = 0.008454984735791989, Final residual = 0.0007686341080354551, No Iterations 4
smoothSolver:  Solving for Uy, Initial residual = 0.02126773478031719, Final residual = 0.001959523879505878, No Iterations 4
smoothSolver:  Solving for Uz, Initial residual = 0.02116955165208893, Final residual = 0.001896964543618752, No Iterations 4
[OGL LOG][Proc: 0]: global_index_init: 0.062 [ms]
[OGL LOG][Proc: 0]p_local_coeffs: call_update: 0 [ms]
[OGL LOG][Proc: 0]p_non_local_coeffs: call_update: 0 [ms]
[OGL LOG][Proc: 0]p: update_local_matrix_data: 167.903 [ms]
[OGL LOG][Proc: 0]p: update_non_local_matrix_data: 1.21 [ms]
[OGL LOG][Proc: 0]p_matrix: call_update: 5.987 [ms]
[OGL LOG][Proc: 0]p_rhs: call_update: 10.731 [ms]
[OGL LOG][Preconditioner.H:346] Generate preconditioner Multigrid MaxLevels 9 MinCoarseRows 10 ZeroGuess 1 Cycle v
[OGL LOG][Proc: 0]p: init_precond: 947.053 [ms]
[OGL LOG][StoppingCriterion.H:239] Creating stopping criterion with minIter 20 frequency 1
[OGL LOG][Proc: 0]p: generate_solver: 0.008999999999999999 [ms]
[OGL LOG][Proc: 0]p: solve: 1992.062 [ms]
[OGL LOG][Proc: 0]p: copy_x_back: 16.229 [ms]
[OGL LOG][lduLduBase.H:330] 
Statistics:
	Time per iteration: 27288 [mu s]
	Time per residual norm calculation: 1324.000000 [mu s]
	Time per iteration and DOF: 0.540816 [ns]
	Retrieve results bandwidth 2.084000 [GByte/s]
[OGL LOG][Proc: 0]p: solve_multi_gpu: 3020.683 [ms]
MultigridcudaGKOCG:  Solving for p, Initial residual = 0.318989935218374, Final residual = 0.002941131809335143, No Iterations 73
time step continuity errors : sum local = 0.002756425234227213, global = 0.0001227400685223681, cumulative = -0.005826214904593073
smoothSolver:  Solving for nuTilda, Initial residual = 0.01734312213526385, Final residual = 0.001058638748229523, No Iterations 4
ExecutionTime = 817.28 s  ClockTime = 820 s

Time = 27

velocityDampingConstraint velocityDamping damped 0 (0%) of cells, with max limit 300
smoothSolver:  Solving for Ux, Initial residual = 0.007523201582219924, Final residual = 0.0006629209150220873, No Iterations 4
smoothSolver:  Solving for Uy, Initial residual = 0.01906171131913552, Final residual = 0.001748854098045087, No Iterations 4
smoothSolver:  Solving for Uz, Initial residual = 0.01936141795770789, Final residual = 0.001708629315831748, No Iterations 4
[OGL LOG][Proc: 0]: global_index_init: 0.413 [ms]
[OGL LOG][Proc: 0]p_local_coeffs: call_update: 0 [ms]
[OGL LOG][Proc: 0]p_non_local_coeffs: call_update: 0 [ms]
[OGL LOG][Proc: 0]p: update_local_matrix_data: 164.863 [ms]
[OGL LOG][Proc: 0]p: update_non_local_matrix_data: 1.1 [ms]
[OGL LOG][Proc: 0]p_matrix: call_update: 5.069 [ms]
[OGL LOG][Proc: 0]p_rhs: call_update: 10.962 [ms]
[OGL LOG][Preconditioner.H:346] Generate preconditioner Multigrid MaxLevels 9 MinCoarseRows 10 ZeroGuess 1 Cycle v
[OGL LOG][Proc: 0]p: init_precond: 958.737 [ms]
[OGL LOG][StoppingCriterion.H:239] Creating stopping criterion with minIter 43 frequency 1
[OGL LOG][Proc: 0]p: generate_solver: 0.011 [ms]
[OGL LOG][Proc: 0]p: solve: 1253.552 [ms]
[OGL LOG][Proc: 0]p: copy_x_back: 16.249 [ms]
[OGL LOG][lduLduBase.H:330] 
Statistics:
	Time per iteration: 28489 [mu s]
	Time per residual norm calculation: 1326.000000 [mu s]
	Time per iteration and DOF: 0.564618 [ns]
	Retrieve results bandwidth 2.081000 [GByte/s]
[OGL LOG][Proc: 0]p: solve_multi_gpu: 2298.64 [ms]
MultigridcudaGKOCG:  Solving for p, Initial residual = 0.2333757489420983, Final residual = 0.002313393631755638, No Iterations 44
time step continuity errors : sum local = 0.002642809332792129, global = 0.0004311655732867385, cumulative = -0.005395049331306335
smoothSolver:  Solving for nuTilda, Initial residual = 0.03060566966848642, Final residual = 0.001686427826561662, No Iterations 3
ExecutionTime = 838.38 s  ClockTime = 841 s

Time = 28

velocityDampingConstraint velocityDamping damped 8 (0%) of cells, with max limit 300
smoothSolver:  Solving for Ux, Initial residual = 0.006819013619508895, Final residual = 0.0005981507388405485, No Iterations 4
smoothSolver:  Solving for Uy, Initial residual = 0.01905281904022425, Final residual = 0.001709790274680725, No Iterations 4
smoothSolver:  Solving for Uz, Initial residual = 0.01921725960322402, Final residual = 0.001689995130077326, No Iterations 4
[OGL LOG][Proc: 0]: global_index_init: 0.276 [ms]
[OGL LOG][Proc: 0]p_local_coeffs: call_update: 0 [ms]
[OGL LOG][Proc: 0]p_non_local_coeffs: call_update: 0 [ms]
[OGL LOG][Proc: 0]p: update_local_matrix_data: 167.803 [ms]
[OGL LOG][Proc: 0]p: update_non_local_matrix_data: 1.211 [ms]
[OGL LOG][Proc: 0]p_matrix: call_update: 4.853 [ms]
[OGL LOG][Proc: 0]p_rhs: call_update: 10.8 [ms]
[OGL LOG][Preconditioner.H:346] Generate preconditioner Multigrid MaxLevels 9 MinCoarseRows 10 ZeroGuess 1 Cycle v
[OGL LOG][Proc: 0]p: init_precond: 933.088 [ms]
[OGL LOG][StoppingCriterion.H:239] Creating stopping criterion with minIter 26 frequency 1
[OGL LOG][Proc: 0]p: generate_solver: 0.011 [ms]
[OGL LOG][Proc: 0]p: solve: 1062.155 [ms]
[OGL LOG][Proc: 0]p: copy_x_back: 16.712 [ms]
[OGL LOG][lduLduBase.H:330] 
Statistics:
	Time per iteration: 30347 [mu s]
	Time per residual norm calculation: 1321.000000 [mu s]
	Time per iteration and DOF: 0.601442 [ns]
	Retrieve results bandwidth 2.023000 [GByte/s]
[OGL LOG][Proc: 0]p: solve_multi_gpu: 2077.024 [ms]
MultigridcudaGKOCG:  Solving for p, Initial residual = 0.2213272204669579, Final residual = 0.00215985634366091, No Iterations 35
time step continuity errors : sum local = 0.002339642409315482, global = 0.0002163999893614729, cumulative = -0.005178649341944862
smoothSolver:  Solving for nuTilda, Initial residual = 0.01603146133026408, Final residual = 0.001016018739040027, No Iterations 4
ExecutionTime = 861.29 s  ClockTime = 864 s

Time = 29

velocityDampingConstraint velocityDamping damped 0 (0%) of cells, with max limit 300
smoothSolver:  Solving for Ux, Initial residual = 0.006619699846566201, Final residual = 0.000582729026284124, No Iterations 4
smoothSolver:  Solving for Uy, Initial residual = 0.01918413704328718, Final residual = 0.001730373693907393, No Iterations 4
smoothSolver:  Solving for Uz, Initial residual = 0.0192087056802678, Final residual = 0.001688796819926271, No Iterations 4
[OGL LOG][Proc: 0]: global_index_init: 0.306 [ms]
[OGL LOG][Proc: 0]p_local_coeffs: call_update: 0 [ms]
[OGL LOG][Proc: 0]p_non_local_coeffs: call_update: 0 [ms]
[OGL LOG][Proc: 0]p: update_local_matrix_data: 165.73 [ms]
[OGL LOG][Proc: 0]p: update_non_local_matrix_data: 1.124 [ms]
[OGL LOG][Proc: 0]p_matrix: call_update: 5.034 [ms]
[OGL LOG][Proc: 0]p_rhs: call_update: 11.167 [ms]
[OGL LOG][Preconditioner.H:346] Generate preconditioner Multigrid MaxLevels 9 MinCoarseRows 10 ZeroGuess 1 Cycle v
[OGL LOG][Proc: 0]p: init_precond: 944.985 [ms]
[OGL LOG][StoppingCriterion.H:239] Creating stopping criterion with minIter 21 frequency 1
[OGL LOG][Proc: 0]p: generate_solver: 0.008999999999999999 [ms]
[OGL LOG][Proc: 0]p: solve: 1145.155 [ms]
[OGL LOG][Proc: 0]p: copy_x_back: 16.674 [ms]
[OGL LOG][lduLduBase.H:330] 
Statistics:
	Time per iteration: 28628 [mu s]
	Time per residual norm calculation: 1463.000000 [mu s]
	Time per iteration and DOF: 0.567373 [ns]
	Retrieve results bandwidth 2.028000 [GByte/s]
[OGL LOG][Proc: 0]p: solve_multi_gpu: 2174.729 [ms]
MultigridcudaGKOCG:  Solving for p, Initial residual = 0.1916315372216917, Final residual = 0.001879138611896867, No Iterations 40
time step continuity errors : sum local = 0.002128757161289492, global = -0.0004354142146833974, cumulative = -0.005614063556628259
smoothSolver:  Solving for nuTilda, Initial residual = 0.02855456396443752, Final residual = 0.00161844799914361, No Iterations 3
ExecutionTime = 884.12 s  ClockTime = 887 s

Time = 30

velocityDampingConstraint velocityDamping damped 0 (0%) of cells, with max limit 300
smoothSolver:  Solving for Ux, Initial residual = 0.006577896725129994, Final residual = 0.0005811688561880092, No Iterations 4
smoothSolver:  Solving for Uy, Initial residual = 0.01878705937583614, Final residual = 0.001712951605905362, No Iterations 4
smoothSolver:  Solving for Uz, Initial residual = 0.01872578103713444, Final residual = 0.001632809099253405, No Iterations 4
[OGL LOG][Proc: 0]: global_index_init: 3.813 [ms]
[OGL LOG][Proc: 0]p_local_coeffs: call_update: 0 [ms]
[OGL LOG][Proc: 0]p_non_local_coeffs: call_update: 0 [ms]
[OGL LOG][Proc: 0]p: update_local_matrix_data: 167.926 [ms]
[OGL LOG][Proc: 0]p: update_non_local_matrix_data: 1.092 [ms]
[OGL LOG][Proc: 0]p_matrix: call_update: 3.721 [ms]
[OGL LOG][Proc: 0]p_rhs: call_update: 12.592 [ms]
[OGL LOG][Preconditioner.H:346] Generate preconditioner Multigrid MaxLevels 9 MinCoarseRows 10 ZeroGuess 1 Cycle v
[OGL LOG][Proc: 0]p: init_precond: 979.095 [ms]
[OGL LOG][StoppingCriterion.H:239] Creating stopping criterion with minIter 24 frequency 1
[OGL LOG][Proc: 0]p: generate_solver: 0.008999999999999999 [ms]
[OGL LOG][Proc: 0]p: solve: 1634.206 [ms]
[OGL LOG][Proc: 0]p: copy_x_back: 16.595 [ms]
[OGL LOG][lduLduBase.H:330] 
Statistics:
	Time per iteration: 27698 [mu s]
	Time per residual norm calculation: 1467.000000 [mu s]
	Time per iteration and DOF: 0.548942 [ns]
	Retrieve results bandwidth 2.038000 [GByte/s]
[OGL LOG][Proc: 0]p: solve_multi_gpu: 2694.105 [ms]
MultigridcudaGKOCG:  Solving for p, Initial residual = 0.1701729908780153, Final residual = 0.001691031716711317, No Iterations 59
time step continuity errors : sum local = 0.001949480137435977, global = 3.815644312884722e-05, cumulative = -0.005575907113499412
smoothSolver:  Solving for nuTilda, Initial residual = 0.01486586105055308, Final residual = 0.0009728600899519407, No Iterations 4
ExecutionTime = 905.71 s  ClockTime = 909 s

Time = 31

velocityDampingConstraint velocityDamping damped 0 (0%) of cells, with max limit 300
smoothSolver:  Solving for Ux, Initial residual = 0.006371250234751673, Final residual = 0.0005706445028108284, No Iterations 4
smoothSolver:  Solving for Uy, Initial residual = 0.01823433748154529, Final residual = 0.001675567938511435, No Iterations 4
smoothSolver:  Solving for Uz, Initial residual = 0.01804023078884628, Final residual = 0.001603128363161028, No Iterations 4
[OGL LOG][Proc: 0]: global_index_init: 0.334 [ms]
[OGL LOG][Proc: 0]p_local_coeffs: call_update: 0 [ms]
[OGL LOG][Proc: 0]p_non_local_coeffs: call_update: 0 [ms]
[OGL LOG][Proc: 0]p: update_local_matrix_data: 168.782 [ms]
[OGL LOG][Proc: 0]p: update_non_local_matrix_data: 1.194 [ms]
[OGL LOG][Proc: 0]p_matrix: call_update: 4.786 [ms]
[OGL LOG][Proc: 0]p_rhs: call_update: 11.258 [ms]
[OGL LOG][Preconditioner.H:346] Generate preconditioner Multigrid MaxLevels 9 MinCoarseRows 10 ZeroGuess 1 Cycle v
[OGL LOG][Proc: 0]p: init_precond: 958.514 [ms]
[OGL LOG][StoppingCriterion.H:239] Creating stopping criterion with minIter 35 frequency 1
[OGL LOG][Proc: 0]p: generate_solver: 0.008999999999999999 [ms]
[OGL LOG][Proc: 0]p: solve: 1062.987 [ms]
[OGL LOG][Proc: 0]p: copy_x_back: 15.962 [ms]
[OGL LOG][lduLduBase.H:330] 
Statistics:
	Time per iteration: 29527 [mu s]
	Time per residual norm calculation: 1467.000000 [mu s]
	Time per iteration and DOF: 0.585190 [ns]
	Retrieve results bandwidth 2.118000 [GByte/s]
[OGL LOG][Proc: 0]p: solve_multi_gpu: 2101.707 [ms]
MultigridcudaGKOCG:  Solving for p, Initial residual = 0.2598484013680009, Final residual = 0.002193393788753154, No Iterations 36
time step continuity errors : sum local = 0.001512370697249337, global = 0.0001401634237074618, cumulative = -0.00543574368979195
smoothSolver:  Solving for nuTilda, Initial residual = 0.02663527952483979, Final residual = 0.001555315738579859, No Iterations 3
ExecutionTime = 926.55 s  ClockTime = 930 s

Time = 32

velocityDampingConstraint velocityDamping damped 0 (0%) of cells, with max limit 300
smoothSolver:  Solving for Ux, Initial residual = 0.006329654815955833, Final residual = 0.0005597882881204035, No Iterations 4
smoothSolver:  Solving for Uy, Initial residual = 0.01723192262988293, Final residual = 0.001576774488184373, No Iterations 4
smoothSolver:  Solving for Uz, Initial residual = 0.01697185240333649, Final residual = 0.001535301013323629, No Iterations 4
[OGL LOG][Proc: 0]: global_index_init: 0.184 [ms]
[OGL LOG][Proc: 0]p_local_coeffs: call_update: 0 [ms]
[OGL LOG][Proc: 0]p_non_local_coeffs: call_update: 0 [ms]
[OGL LOG][Proc: 0]p: update_local_matrix_data: 168.028 [ms]
[OGL LOG][Proc: 0]p: update_non_local_matrix_data: 1.098 [ms]
[OGL LOG][Proc: 0]p_matrix: call_update: 4.846 [ms]
[OGL LOG][Proc: 0]p_rhs: call_update: 11.48 [ms]
[OGL LOG][Preconditioner.H:346] Generate preconditioner Multigrid MaxLevels 9 MinCoarseRows 10 ZeroGuess 1 Cycle v
[OGL LOG][Proc: 0]p: init_precond: 1150.71 [ms]
[OGL LOG][StoppingCriterion.H:239] Creating stopping criterion with minIter 21 frequency 1
[OGL LOG][Proc: 0]p: generate_solver: 0.008999999999999999 [ms]
[OGL LOG][Proc: 0]p: solve: 2206.699 [ms]
[OGL LOG][Proc: 0]p: copy_x_back: 16.608 [ms]
[OGL LOG][lduLduBase.H:330] 
Statistics:
	Time per iteration: 27243 [mu s]
	Time per residual norm calculation: 1319.000000 [mu s]
	Time per iteration and DOF: 0.539924 [ns]
	Retrieve results bandwidth 2.036000 [GByte/s]
[OGL LOG][Proc: 0]p: solve_multi_gpu: 3442.976 [ms]
MultigridcudaGKOCG:  Solving for p, Initial residual = 0.2371103146976832, Final residual = 0.002312803602206791, No Iterations 81
time step continuity errors : sum local = 0.001588269114711855, global = 1.543469286383845e-06, cumulative = -0.005434200220505566
smoothSolver:  Solving for nuTilda, Initial residual = 0.013888745469527, Final residual = 0.0009334624140806077, No Iterations 4
ExecutionTime = 950.59 s  ClockTime = 954 s

Time = 33

velocityDampingConstraint velocityDamping damped 0 (0%) of cells, with max limit 300
smoothSolver:  Solving for Ux, Initial residual = 0.005940499168989389, Final residual = 0.0005214046782805051, No Iterations 4
smoothSolver:  Solving for Uy, Initial residual = 0.01654714169320492, Final residual = 0.001508730087753388, No Iterations 4
smoothSolver:  Solving for Uz, Initial residual = 0.01625937446289413, Final residual = 0.001476220629248488, No Iterations 4
[OGL LOG][Proc: 0]: global_index_init: 0.026 [ms]
[OGL LOG][Proc: 0]p_local_coeffs: call_update: 0 [ms]
[OGL LOG][Proc: 0]p_non_local_coeffs: call_update: 0 [ms]
[OGL LOG][Proc: 0]p: update_local_matrix_data: 166.372 [ms]
[OGL LOG][Proc: 0]p: update_non_local_matrix_data: 1.224 [ms]
[OGL LOG][Proc: 0]p_matrix: call_update: 4.963 [ms]
[OGL LOG][Proc: 0]p_rhs: call_update: 11.46 [ms]
[OGL LOG][Preconditioner.H:346] Generate preconditioner Multigrid MaxLevels 9 MinCoarseRows 10 ZeroGuess 1 Cycle v
[OGL LOG][Proc: 0]p: init_precond: 954.629 [ms]
[OGL LOG][StoppingCriterion.H:239] Creating stopping criterion with minIter 48 frequency 1
[OGL LOG][Proc: 0]p: generate_solver: 0.01 [ms]
[OGL LOG][Proc: 0]p: solve: 1456.758 [ms]
[OGL LOG][Proc: 0]p: copy_x_back: 16.176 [ms]
[OGL LOG][lduLduBase.H:330] 
Statistics:
	Time per iteration: 26977 [mu s]
	Time per residual norm calculation: 1025.000000 [mu s]
	Time per iteration and DOF: 0.534652 [ns]
	Retrieve results bandwidth 2.090000 [GByte/s]
[OGL LOG][Proc: 0]p: solve_multi_gpu: 2495.237 [ms]
MultigridcudaGKOCG:  Solving for p, Initial residual = 0.1681059605557346, Final residual = 0.001678039081655338, No Iterations 54
time step continuity errors : sum local = 0.001485675001612418, global = 0.000149397202768732, cumulative = -0.005284803017736834
smoothSolver:  Solving for nuTilda, Initial residual = 0.02494492879985438, Final residual = 0.001496819482996712, No Iterations 3
ExecutionTime = 971.85 s  ClockTime = 975 s

Time = 34

velocityDampingConstraint velocityDamping damped 0 (0%) of cells, with max limit 300
smoothSolver:  Solving for Ux, Initial residual = 0.005514287384589771, Final residual = 0.0004913685158195608, No Iterations 4
smoothSolver:  Solving for Uy, Initial residual = 0.01648749082575485, Final residual = 0.001509490004397236, No Iterations 4
smoothSolver:  Solving for Uz, Initial residual = 0.01618894574372828, Final residual = 0.00147438536545142, No Iterations 4
[...]
ExecutionTime = 2212.41 s  ClockTime = 2219 s

Time = 91

velocityDampingConstraint velocityDamping damped 0 (0%) of cells, with max limit 300
smoothSolver:  Solving for Ux, Initial residual = 0.00277635274750337, Final residual = 0.0002722211388901234, No Iterations 4
smoothSolver:  Solving for Uy, Initial residual = 0.01165887174188916, Final residual = 0.001153223143377326, No Iterations 4
smoothSolver:  Solving for Uz, Initial residual = 0.01271266633652565, Final residual = 0.001258026631855522, No Iterations 4
[OGL LOG][Proc: 0]: global_index_init: 0.592 [ms]
[OGL LOG][Proc: 0]p_local_coeffs: call_update: 0 [ms]
[OGL LOG][Proc: 0]p_non_local_coeffs: call_update: 0 [ms]
[OGL LOG][Proc: 0]p: update_local_matrix_data: 166.431 [ms]
[OGL LOG][Proc: 0]p: update_non_local_matrix_data: 1.079 [ms]
[OGL LOG][Proc: 0]p_matrix: call_update: 5.492 [ms]
[OGL LOG][Proc: 0]p_rhs: call_update: 10.601 [ms]
[OGL LOG][Preconditioner.H:346] Generate preconditioner Multigrid MaxLevels 9 MinCoarseRows 10 ZeroGuess 1 Cycle v
[OGL LOG][Proc: 0]p: init_precond: 995.248 [ms]
[OGL LOG][StoppingCriterion.H:239] Creating stopping criterion with minIter 31 frequency 1
[OGL LOG][Proc: 0]p: generate_solver: 0.008999999999999999 [ms]
[OGL LOG][Proc: 0]p: solve: 1431.284 [ms]
[OGL LOG][Proc: 0]p: copy_x_back: 16.477 [ms]
[OGL LOG][lduLduBase.H:330] 
Statistics:
	Time per iteration: 27524 [mu s]
	Time per residual norm calculation: 1312.000000 [mu s]
	Time per iteration and DOF: 0.545493 [ns]
	Retrieve results bandwidth 2.052000 [GByte/s]
[OGL LOG][Proc: 0]p: solve_multi_gpu: 2505.372 [ms]
MultigridcudaGKOCG:  Solving for p, Initial residual = 0.0446433181327309, Final residual = 0.0004154631525412418, No Iterations 52
time step continuity errors : sum local = 0.0003030948763955129, global = 3.647838309161604e-05, cumulative = -0.005640335863759521
smoothSolver:  Solving for nuTilda, Initial residual = 0.009356846715002717, Final residual = 0.0008094063987827326, No Iterations 3
ExecutionTime = 2235.49 s  ClockTime = 2242 s

Time = 92

velocityDampingConstraint velocityDamping damped 0 (0%) of cells, with max limit 300
smoothSolver:  Solving for Ux, Initial residual = 0.0027345701765021, Final residual = 0.0002696988416017796, No Iterations 4
smoothSolver:  Solving for Uy, Initial residual = 0.01166231096956818, Final residual = 0.001157111873472198, No Iterations 4
smoothSolver:  Solving for Uz, Initial residual = 0.01272354999556893, Final residual = 0.001261265154072458, No Iterations 4
[OGL LOG][Proc: 0]: global_index_init: 0.451 [ms]
[OGL LOG][Proc: 0]p_local_coeffs: call_update: 0 [ms]
[OGL LOG][Proc: 0]p_non_local_coeffs: call_update: 0 [ms]
[OGL LOG][Proc: 0]p: update_local_matrix_data: 167.787 [ms]
[OGL LOG][Proc: 0]p: update_non_local_matrix_data: 1.194 [ms]
[OGL LOG][Proc: 0]p_matrix: call_update: 5.35 [ms]
[OGL LOG][Proc: 0]p_rhs: call_update: 11.024 [ms]
[OGL LOG][Preconditioner.H:346] Generate preconditioner Multigrid MaxLevels 9 MinCoarseRows 10 ZeroGuess 1 Cycle v
[OGL LOG][Proc: 0]p: init_precond: 959.004 [ms]
[OGL LOG][StoppingCriterion.H:239] Creating stopping criterion with minIter 31 frequency 1
[OGL LOG][Proc: 0]p: generate_solver: 0.008999999999999999 [ms]
[OGL LOG][Proc: 0]p: solve: 938.897 [ms]
[OGL LOG][Proc: 0]p: copy_x_back: 16.85 [ms]
[OGL LOG][lduLduBase.H:330] 
Statistics:
	Time per iteration: 29340 [mu s]
	Time per residual norm calculation: 1478.000000 [mu s]
	Time per iteration and DOF: 0.581484 [ns]
	Retrieve results bandwidth 2.007000 [GByte/s]
[OGL LOG][Proc: 0]p: solve_multi_gpu: 1980.511 [ms]
MultigridcudaGKOCG:  Solving for p, Initial residual = 0.04235951716485779, Final residual = 0.0002168137717447981, No Iterations 32
time step continuity errors : sum local = 0.0001654603688344966, global = 2.857961268863412e-06, cumulative = -0.005637477902490658
smoothSolver:  Solving for nuTilda, Initial residual = 0.006258045975521783, Final residual = 0.00046197291336316, No Iterations 4
ExecutionTime = 2258.38 s  ClockTime = 2265 s

Time = 93

velocityDampingConstraint velocityDamping damped 0 (0%) of cells, with max limit 300
smoothSolver:  Solving for Ux, Initial residual = 0.002739968555073043, Final residual = 0.0002682479248977497, No Iterations 4
smoothSolver:  Solving for Uy, Initial residual = 0.01169039638397597, Final residual = 0.001160744577653991, No Iterations 4
smoothSolver:  Solving for Uz, Initial residual = 0.01272504401146625, Final residual = 0.001263079181377067, No Iterations 4
[OGL LOG][Proc: 0]: global_index_init: 0.064 [ms]
[OGL LOG][Proc: 0]p_local_coeffs: call_update: 0 [ms]
[OGL LOG][Proc: 0]p_non_local_coeffs: call_update: 0 [ms]
[OGL LOG][Proc: 0]p: update_local_matrix_data: 166.702 [ms]
[OGL LOG][Proc: 0]p: update_non_local_matrix_data: 1.117 [ms]
[OGL LOG][Proc: 0]p_matrix: call_update: 4.5 [ms]
[OGL LOG][Proc: 0]p_rhs: call_update: 11.62 [ms]
[OGL LOG][Preconditioner.H:346] Generate preconditioner Multigrid MaxLevels 9 MinCoarseRows 10 ZeroGuess 1 Cycle v
[OGL LOG][Proc: 0]p: init_precond: 954.384 [ms]
[OGL LOG][StoppingCriterion.H:239] Creating stopping criterion with minIter 19 frequency 1
[OGL LOG][Proc: 0]p: generate_solver: 0.008999999999999999 [ms]
[OGL LOG][Proc: 0]p: solve: 1546.711 [ms]
[OGL LOG][Proc: 0]p: copy_x_back: 16.42 [ms]
[OGL LOG][lduLduBase.H:330] 
Statistics:
	Time per iteration: 32223 [mu s]
	Time per residual norm calculation: 1467.000000 [mu s]
	Time per iteration and DOF: 0.638622 [ns]
	Retrieve results bandwidth 2.059000 [GByte/s]
[OGL LOG][Proc: 0]p: solve_multi_gpu: 2586.446 [ms]
MultigridcudaGKOCG:  Solving for p, Initial residual = 0.0417781136194968, Final residual = 0.0004023329326321248, No Iterations 48
time step continuity errors : sum local = 0.0003069450829414101, global = -1.755022837232518e-05, cumulative = -0.005655028130862983
smoothSolver:  Solving for nuTilda, Initial residual = 0.009152044202048943, Final residual = 0.0008078694180908552, No Iterations 3
ExecutionTime = 2279.64 s  ClockTime = 2287 s

Time = 94

velocityDampingConstraint velocityDamping damped 0 (0%) of cells, with max limit 300
smoothSolver:  Solving for Ux, Initial residual = 0.002707798171136856, Final residual = 0.0002667681089759937, No Iterations 4
smoothSolver:  Solving for Uy, Initial residual = 0.01174495846662112, Final residual = 0.001165205468814716, No Iterations 4
smoothSolver:  Solving for Uz, Initial residual = 0.01274553918267915, Final residual = 0.001265906689250392, No Iterations 4
[OGL LOG][Proc: 0]: global_index_init: 0.379 [ms]
[OGL LOG][Proc: 0]p_local_coeffs: call_update: 0 [ms]
[OGL LOG][Proc: 0]p_non_local_coeffs: call_update: 0 [ms]
[OGL LOG][Proc: 0]p: update_local_matrix_data: 167.548 [ms]
[OGL LOG][Proc: 0]p: update_non_local_matrix_data: 1.104 [ms]
[OGL LOG][Proc: 0]p_matrix: call_update: 5.053 [ms]
[OGL LOG][Proc: 0]p_rhs: call_update: 10.696 [ms]
[OGL LOG][Preconditioner.H:346] Generate preconditioner Multigrid MaxLevels 9 MinCoarseRows 10 ZeroGuess 1 Cycle v
[OGL LOG][Proc: 0]p: init_precond: 957.496 [ms]
[OGL LOG][StoppingCriterion.H:239] Creating stopping criterion with minIter 28 frequency 1
[OGL LOG][Proc: 0]p: generate_solver: 0.008999999999999999 [ms]
[OGL LOG][Proc: 0]p: solve: 1313.66 [ms]
[OGL LOG][Proc: 0]p: copy_x_back: 16.152 [ms]
[OGL LOG][lduLduBase.H:330] 
Statistics:
	Time per iteration: 28557 [mu s]
	Time per residual norm calculation: 1464.000000 [mu s]
	Time per iteration and DOF: 0.565966 [ns]
	Retrieve results bandwidth 2.093000 [GByte/s]
[OGL LOG][Proc: 0]p: solve_multi_gpu: 2353.064 [ms]
MultigridcudaGKOCG:  Solving for p, Initial residual = 0.04306527371334564, Final residual = 0.0004019413269242246, No Iterations 46
time step continuity errors : sum local = 0.0002953737519045794, global = -4.130003208681289e-05, cumulative = -0.005696328162949796
smoothSolver:  Solving for nuTilda, Initial residual = 0.006198823210302246, Final residual = 0.0004612343338028317, No Iterations 4
ExecutionTime = 2300.71 s  ClockTime = 2308 s

Time = 95

velocityDampingConstraint velocityDamping damped 0 (0%) of cells, with max limit 300
smoothSolver:  Solving for Ux, Initial residual = 0.002717766933992805, Final residual = 0.0002666886071383904, No Iterations 4
smoothSolver:  Solving for Uy, Initial residual = 0.01175109082082561, Final residual = 0.001168357225318268, No Iterations 4
smoothSolver:  Solving for Uz, Initial residual = 0.01276410033267885, Final residual = 0.001268060955847652, No Iterations 4
[OGL LOG][Proc: 0]: global_index_init: 0.623 [ms]
[OGL LOG][Proc: 0]p_local_coeffs: call_update: 0 [ms]
[OGL LOG][Proc: 0]p_non_local_coeffs: call_update: 0 [ms]
[OGL LOG][Proc: 0]p: update_local_matrix_data: 165.938 [ms]
[OGL LOG][Proc: 0]p: update_non_local_matrix_data: 1.173 [ms]
[OGL LOG][Proc: 0]p_matrix: call_update: 5.346 [ms]
[OGL LOG][Proc: 0]p_rhs: call_update: 10.71 [ms]
[OGL LOG][Preconditioner.H:346] Generate preconditioner Multigrid MaxLevels 9 MinCoarseRows 10 ZeroGuess 1 Cycle v
[OGL LOG][Proc: 0]p: init_precond: 958.95 [ms]
[OGL LOG][StoppingCriterion.H:239] Creating stopping criterion with minIter 27 frequency 1
[OGL LOG][Proc: 0]p: generate_solver: 0.008999999999999999 [ms]
[OGL LOG][Proc: 0]p: solve: 856.8680000000001 [ms]
[OGL LOG][Proc: 0]p: copy_x_back: 16.21 [ms]
[OGL LOG][lduLduBase.H:330] 
Statistics:
	Time per iteration: 30602 [mu s]
	Time per residual norm calculation: 1459.000000 [mu s]
	Time per iteration and DOF: 0.606496 [ns]
	Retrieve results bandwidth 2.086000 [GByte/s]
[OGL LOG][Proc: 0]p: solve_multi_gpu: 1894.633 [ms]
MultigridcudaGKOCG:  Solving for p, Initial residual = 0.04409092462193832, Final residual = 0.0003509141264843859, No Iterations 28
time step continuity errors : sum local = 0.000249283849688541, global = -2.337291099964863e-05, cumulative = -0.005719701073949444
smoothSolver:  Solving for nuTilda, Initial residual = 0.008957311248684423, Final residual = 0.0008072760463493121, No Iterations 3
ExecutionTime = 2323.13 s  ClockTime = 2330 s

Time = 96

velocityDampingConstraint velocityDamping damped 0 (0%) of cells, with max limit 300
smoothSolver:  Solving for Ux, Initial residual = 0.002695934127295789, Final residual = 0.0002655082324168369, No Iterations 4
smoothSolver:  Solving for Uy, Initial residual = 0.01180720318918383, Final residual = 0.001174663867291086, No Iterations 4
smoothSolver:  Solving for Uz, Initial residual = 0.01278494954068981, Final residual = 0.001271286978921997, No Iterations 4
[OGL LOG][Proc: 0]: global_index_init: 0.238 [ms]
[OGL LOG][Proc: 0]p_local_coeffs: call_update: 0 [ms]
[OGL LOG][Proc: 0]p_non_local_coeffs: call_update: 0 [ms]
[OGL LOG][Proc: 0]p: update_local_matrix_data: 168.365 [ms]
[OGL LOG][Proc: 0]p: update_non_local_matrix_data: 1.076 [ms]
[OGL LOG][Proc: 0]p_matrix: call_update: 3.666 [ms]
[OGL LOG][Proc: 0]p_rhs: call_update: 11.751 [ms]
[OGL LOG][Preconditioner.H:346] Generate preconditioner Multigrid MaxLevels 9 MinCoarseRows 10 ZeroGuess 1 Cycle v
[OGL LOG][Proc: 0]p: init_precond: 989.2140000000001 [ms]
[OGL LOG][StoppingCriterion.H:239] Creating stopping criterion with minIter 16 frequency 1
[OGL LOG][Proc: 0]p: generate_solver: 0.008999999999999999 [ms]
[OGL LOG][Proc: 0]p: solve: 593.321 [ms]
[OGL LOG][Proc: 0]p: copy_x_back: 16.365 [ms]
[OGL LOG][lduLduBase.H:330] 
Statistics:
	Time per iteration: 34901 [mu s]
	Time per residual norm calculation: 1470.000000 [mu s]
	Time per iteration and DOF: 0.691697 [ns]
	Retrieve results bandwidth 2.066000 [GByte/s]
[OGL LOG][Proc: 0]p: solve_multi_gpu: 1663.901 [ms]
MultigridcudaGKOCG:  Solving for p, Initial residual = 0.0439789014779902, Final residual = 0.00040456990605958, No Iterations 17
time step continuity errors : sum local = 0.0002855905206476771, global = 4.730472882798515e-05, cumulative = -0.005672396345121459
smoothSolver:  Solving for nuTilda, Initial residual = 0.006140048538888768, Final residual = 0.0004609825279684907, No Iterations 4
ExecutionTime = 2343.71 s  ClockTime = 2351 s

Time = 97

velocityDampingConstraint velocityDamping damped 0 (0%) of cells, with max limit 300
smoothSolver:  Solving for Ux, Initial residual = 0.002710274540615145, Final residual = 0.0002649605362097178, No Iterations 4
smoothSolver:  Solving for Uy, Initial residual = 0.01184761009093509, Final residual = 0.001179396251384911, No Iterations 4
smoothSolver:  Solving for Uz, Initial residual = 0.01277403648313684, Final residual = 0.001271365881067497, No Iterations 4
[OGL LOG][Proc: 0]: global_index_init: 0.359 [ms]
[OGL LOG][Proc: 0]p_local_coeffs: call_update: 0 [ms]
[OGL LOG][Proc: 0]p_non_local_coeffs: call_update: 0 [ms]
[OGL LOG][Proc: 0]p: update_local_matrix_data: 166.023 [ms]
[OGL LOG][Proc: 0]p: update_non_local_matrix_data: 1.127 [ms]
[OGL LOG][Proc: 0]p_matrix: call_update: 5.293 [ms]
[OGL LOG][Proc: 0]p_rhs: call_update: 10.506 [ms]
[OGL LOG][Preconditioner.H:346] Generate preconditioner Multigrid MaxLevels 9 MinCoarseRows 10 ZeroGuess 1 Cycle v
[OGL LOG][Proc: 0]p: init_precond: 1030.177 [ms]
[OGL LOG][StoppingCriterion.H:239] Creating stopping criterion with minIter 10 frequency 1
[OGL LOG][Proc: 0]p: generate_solver: 0.008999999999999999 [ms]
[OGL LOG][Proc: 0]p: solve: 2011.197 [ms]
[OGL LOG][Proc: 0]p: copy_x_back: 15.967 [ms]
[OGL LOG][lduLduBase.H:330] 
Statistics:
	Time per iteration: 27178 [mu s]
	Time per residual norm calculation: 1461.000000 [mu s]
	Time per iteration and DOF: 0.538636 [ns]
	Retrieve results bandwidth 2.118000 [GByte/s]
[OGL LOG][Proc: 0]p: solve_multi_gpu: 3120.258 [ms]
MultigridcudaGKOCG:  Solving for p, Initial residual = 0.04350628317019858, Final residual = 0.0004209648983112837, No Iterations 74
time step continuity errors : sum local = 0.0002964616637564355, global = 1.664317966678809e-05, cumulative = -0.005655753165454671
smoothSolver:  Solving for nuTilda, Initial residual = 0.008770896617840156, Final residual = 0.0008071458483954866, No Iterations 3
ExecutionTime = 2365.39 s  ClockTime = 2373 s

Time = 98

velocityDampingConstraint velocityDamping damped 0 (0%) of cells, with max limit 300
smoothSolver:  Solving for Ux, Initial residual = 0.00266435910023082, Final residual = 0.0002623195557021999, No Iterations 4
smoothSolver:  Solving for Uy, Initial residual = 0.01191790251815343, Final residual = 0.001184509376813016, No Iterations 4
smoothSolver:  Solving for Uz, Initial residual = 0.012745756184178, Final residual = 0.001270985650011387, No Iterations 4
[OGL LOG][Proc: 0]: global_index_init: 0.138 [ms]
[OGL LOG][Proc: 0]p_local_coeffs: call_update: 0 [ms]
[OGL LOG][Proc: 0]p_non_local_coeffs: call_update: 0 [ms]
[OGL LOG][Proc: 0]p: update_local_matrix_data: 168.637 [ms]
[OGL LOG][Proc: 0]p: update_non_local_matrix_data: 1.217 [ms]
[OGL LOG][Proc: 0]p_matrix: call_update: 4.713 [ms]
[OGL LOG][Proc: 0]p_rhs: call_update: 10.867 [ms]
[OGL LOG][Preconditioner.H:346] Generate preconditioner Multigrid MaxLevels 9 MinCoarseRows 10 ZeroGuess 1 Cycle v
[OGL LOG][Proc: 0]p: init_precond: 945.992 [ms]
[OGL LOG][StoppingCriterion.H:239] Creating stopping criterion with minIter 44 frequency 1
[OGL LOG][Proc: 0]p: generate_solver: 0.008 [ms]
[OGL LOG][Proc: 0]p: solve: 1274.179 [ms]
[OGL LOG][Proc: 0]p: copy_x_back: 16.749 [ms]
[OGL LOG][lduLduBase.H:330] 
Statistics:
	Time per iteration: 28315 [mu s]
	Time per residual norm calculation: 1467.000000 [mu s]
	Time per iteration and DOF: 0.561170 [ns]
	Retrieve results bandwidth 2.019000 [GByte/s]
[OGL LOG][Proc: 0]p: solve_multi_gpu: 2301.148 [ms]
MultigridcudaGKOCG:  Solving for p, Initial residual = 0.04068319167382504, Final residual = 0.0002432409037290235, No Iterations 45
time step continuity errors : sum local = 0.0001824262015698818, global = -3.452962980892526e-06, cumulative = -0.005659206128435563
smoothSolver:  Solving for nuTilda, Initial residual = 0.006079713147639191, Final residual = 0.0004609429408246843, No Iterations 4
ExecutionTime = 2388.29 s  ClockTime = 2396 s

Time = 99

velocityDampingConstraint velocityDamping damped 0 (0%) of cells, with max limit 300
smoothSolver:  Solving for Ux, Initial residual = 0.002670147793953057, Final residual = 0.0002611371887158851, No Iterations 4
smoothSolver:  Solving for Uy, Initial residual = 0.01195673312973096, Final residual = 0.001188717100403465, No Iterations 4
smoothSolver:  Solving for Uz, Initial residual = 0.01271784456151495, Final residual = 0.001270127360749193, No Iterations 4
[OGL LOG][Proc: 0]: global_index_init: 0.906 [ms]
[OGL LOG][Proc: 0]p_local_coeffs: call_update: 0 [ms]
[OGL LOG][Proc: 0]p_non_local_coeffs: call_update: 0 [ms]
[OGL LOG][Proc: 0]p: update_local_matrix_data: 166.613 [ms]
[OGL LOG][Proc: 0]p: update_non_local_matrix_data: 1.106 [ms]
[OGL LOG][Proc: 0]p_matrix: call_update: 5.056 [ms]
[OGL LOG][Proc: 0]p_rhs: call_update: 11.359 [ms]
[OGL LOG][Preconditioner.H:346] Generate preconditioner Multigrid MaxLevels 9 MinCoarseRows 10 ZeroGuess 1 Cycle v
[OGL LOG][Proc: 0]p: init_precond: 955.401 [ms]
[OGL LOG][StoppingCriterion.H:239] Creating stopping criterion with minIter 27 frequency 1
[OGL LOG][Proc: 0]p: generate_solver: 0.008999999999999999 [ms]
[OGL LOG][Proc: 0]p: solve: 1294.094 [ms]
[OGL LOG][Proc: 0]p: copy_x_back: 16.629 [ms]
[OGL LOG][lduLduBase.H:330] 
Statistics:
	Time per iteration: 28757 [mu s]
	Time per residual norm calculation: 1324.000000 [mu s]
	Time per iteration and DOF: 0.569930 [ns]
	Retrieve results bandwidth 2.033000 [GByte/s]
[OGL LOG][Proc: 0]p: solve_multi_gpu: 2335.263 [ms]
MultigridcudaGKOCG:  Solving for p, Initial residual = 0.0399504437618039, Final residual = 0.0003819526909964285, No Iterations 45
time step continuity errors : sum local = 0.0002868513019148812, global = -3.316682854502533e-05, cumulative = -0.005692372956980589
smoothSolver:  Solving for nuTilda, Initial residual = 0.008590282395598814, Final residual = 0.0008070686713366261, No Iterations 3
ExecutionTime = 2411.28 s  ClockTime = 2419 s

Time = 100

velocityDampingConstraint velocityDamping damped 0 (0%) of cells, with max limit 300
smoothSolver:  Solving for Ux, Initial residual = 0.002627526213841392, Final residual = 0.0002588770387071842, No Iterations 4
smoothSolver:  Solving for Uy, Initial residual = 0.01192437305957145, Final residual = 0.001190866953173472, No Iterations 4
smoothSolver:  Solving for Uz, Initial residual = 0.0126937586368195, Final residual = 0.00075746921944693, No Iterations 5
[OGL LOG][Proc: 0]: global_index_init: 0.198 [ms]
[OGL LOG][Proc: 0]p_local_coeffs: call_update: 0 [ms]
[OGL LOG][Proc: 0]p_non_local_coeffs: call_update: 0 [ms]
[OGL LOG][Proc: 0]p: update_local_matrix_data: 167.984 [ms]
[OGL LOG][Proc: 0]p: update_non_local_matrix_data: 1.184 [ms]
[OGL LOG][Proc: 0]p_matrix: call_update: 5.408 [ms]
[OGL LOG][Proc: 0]p_rhs: call_update: 10.793 [ms]
[OGL LOG][Preconditioner.H:346] Generate preconditioner Multigrid MaxLevels 9 MinCoarseRows 10 ZeroGuess 1 Cycle v
[OGL LOG][Proc: 0]p: init_precond: 943.266 [ms]
[OGL LOG][StoppingCriterion.H:239] Creating stopping criterion with minIter 27 frequency 1
[OGL LOG][Proc: 0]p: generate_solver: 0.01 [ms]
[OGL LOG][Proc: 0]p: solve: 1449.397 [ms]
[OGL LOG][Proc: 0]p: copy_x_back: 16.14 [ms]
[OGL LOG][lduLduBase.H:330] 
Statistics:
	Time per iteration: 27873 [mu s]
	Time per residual norm calculation: 1021.000000 [mu s]
	Time per iteration and DOF: 0.552410 [ns]
	Retrieve results bandwidth 2.095000 [GByte/s]
[OGL LOG][Proc: 0]p: solve_multi_gpu: 2474.165 [ms]
MultigridcudaGKOCG:  Solving for p, Initial residual = 0.04117854456716713, Final residual = 0.0003719895899491732, No Iterations 52
time step continuity errors : sum local = 0.0002736881215252766, global = -1.374041250438317e-05, cumulative = -0.005706113369484972
smoothSolver:  Solving for nuTilda, Initial residual = 0.006017533147119775, Final residual = 0.0004610234315838031, No Iterations 4
ExecutionTime = 2432.81 s  ClockTime = 2440 s

End

Finalising parallel run
