/*---------------------------------------------------------------------------*\
| =========                 |                                                 |
| \\      /  F ield         | OpenFOAM: The Open Source CFD Toolbox           |
|  \\    /   O peration     | Version:  2306                                  |
|   \\  /    A nd           | Website:  www.openfoam.com                      |
|    \\/     M anipulation  |                                                 |
\*---------------------------------------------------------------------------*/
Build  : a6e826bd55-20230630 OPENFOAM=2306 version=v2306
Arch   : "LSB;label=32;scalar=64"
Exec   : icoFoam -parallel -case /tmp/lidDrivenCavity3D/workspace/433e856643c1076d79995e6a966a42ba/case
Date   : Dec 09 2023
Time   : 10:17:07
Host   : nla-gpu2.ianm.kit.edu
PID    : 271757
I/O    : uncollated
Case   : /tmp/lidDrivenCavity3D/workspace/433e856643c1076d79995e6a966a42ba/case
nProcs : 32
Hosts  :
(
    (nla-gpu2.ianm.kit.edu 32)
)
Pstream initialized with:
    floatTransfer      : false
    nProcsSimpleSum    : 0
    nonBlockingExchange: 0 (tuning: 0)
    exchange algorithm : -1
    commsType          : nonBlocking
    polling iterations : 0
trapFpe: Floating point exception trapping enabled (FOAM_SIGFPE).
fileModificationChecking : Monitoring run-time modified files using timeStampMaster (fileModificationSkew 5, maxFileModificationPolls 20)
allowSystemOperations : Allowing user-supplied system call operations

// * * * * * * * * * * * * * * * * * * * * * * * * * * * * * * * * * * * * * //
Create time

--> FOAM Warning : 
    From void* Foam::dlLibraryTable::openLibrary(const Foam::fileName&, bool)
    in file db/dynamicLibrary/dlLibraryTable/dlLibraryTable.C at line 188
    Could not load "libpetscFoam.so"
libpetscFoam.so: cannot open shared object file: No such file or directory
Create mesh for time = 0


PISO: Operating solver in PISO mode

Reading transportProperties

Reading field p

Reading field U

Reading/calculating face flux field phi


Starting time loop

Time = 0.00025

Courant Number mean: 8.24341e-18 max: 2.08167e-14
[INFO] MatrixAssemblyU: 69.545 [ms]
DILUPBiCGStab:  Solving for Ux, Initial residual = 1, Final residual = 0.00994539, No Iterations 5
DILUPBiCGStab:  Solving for Uy:  solution singularity
DILUPBiCGStab:  Solving for Uz:  solution singularity
[INFO] MomentumPredictor: 250.931 [ms]
[INFO] MatrixAssemblyPI: 68.307 [ms]
[INFO] AdjustPhi: 4.802 [ms]
[INFO] ConstrainPressure: 0.01 [ms]
[INFO] MatrixAssemblyPII: 19.551 [ms]
DICPCG:  Solving for p, Initial residual = 1, Final residual = 9.76775e-05, No Iterations 610
[INFO] SolveP: 6090.78 [ms]
time step continuity errors : sum local = 7.49819e-09, global = -6.70118e-22, cumulative = -6.70118e-22
[INFO] ContinuityError: 5.881 [ms]
[INFO] CorrectBoundary: 0.233 [ms]
[INFO] PISOStep: 6214.67 [ms]
[INFO] MatrixAssemblyPI: 64.184 [ms]
[INFO] AdjustPhi: 4.179 [ms]
[INFO] ConstrainPressure: 0.003 [ms]
[INFO] MatrixAssemblyPII: 19.448 [ms]
DICPCG:  Solving for p, Initial residual = 0.786385, Final residual = 9.09532e-05, No Iterations 608
[INFO] SolveP: 5997.62 [ms]
time step continuity errors : sum local = 8.72754e-09, global = -1.01611e-21, cumulative = -1.68623e-21
[INFO] ContinuityError: 6.217 [ms]
[INFO] CorrectBoundary: 0.159 [ms]
[INFO] PISOStep: 6117.28 [ms]
[INFO] TimeStep: 12660.3 [ms]
ExecutionTime = 13.14 s  ClockTime = 14 s

Time = 0.0005

Courant Number mean: 0.0159459 max: 0.412549
[INFO] MatrixAssemblyU: 59.529 [ms]
DILUPBiCGStab:  Solving for Ux, Initial residual = 0.129572, Final residual = 0.00567031, No Iterations 5
DILUPBiCGStab:  Solving for Uy, Initial residual = 0.426965, Final residual = 0.0150069, No Iterations 5
DILUPBiCGStab:  Solving for Uz, Initial residual = 0.987081, Final residual = 0.0372945, No Iterations 5
[INFO] MomentumPredictor: 446.428 [ms]
[INFO] MatrixAssemblyPI: 65.913 [ms]
[INFO] AdjustPhi: 4.486 [ms]
[INFO] ConstrainPressure: 0.003 [ms]
[INFO] MatrixAssemblyPII: 19.243 [ms]
DICPCG:  Solving for p, Initial residual = 0.827608, Final residual = 9.43233e-05, No Iterations 605
[INFO] SolveP: 5960.4 [ms]
time step continuity errors : sum local = 1.40924e-08, global = -6.85009e-22, cumulative = -2.37123e-21
[INFO] ContinuityError: 6.968 [ms]
[INFO] CorrectBoundary: 0.195 [ms]
[INFO] PISOStep: 6081.8 [ms]
[INFO] MatrixAssemblyPI: 63.448 [ms]
[INFO] AdjustPhi: 4.493 [ms]
[INFO] ConstrainPressure: 0.002 [ms]
[INFO] MatrixAssemblyPII: 19.506 [ms]
DICPCG:  Solving for p, Initial residual = 0.770568, Final residual = 9.99581e-05, No Iterations 603
[INFO] SolveP: 5984.06 [ms]
time step continuity errors : sum local = 1.5209e-08, global = -6.84705e-22, cumulative = -3.05594e-21
[INFO] ContinuityError: 7.168 [ms]
[INFO] CorrectBoundary: 0.174 [ms]
[INFO] PISOStep: 6103.81 [ms]
[INFO] TimeStep: 12699 [ms]
ExecutionTime = 25.74 s  ClockTime = 26 s

Time = 0.00075

Courant Number mean: 0.0243224 max: 0.472076
[INFO] MatrixAssemblyU: 59.237 [ms]
DILUPBiCGStab:  Solving for Ux, Initial residual = 0.0547818, Final residual = 0.00194231, No Iterations 5
DILUPBiCGStab:  Solving for Uy, Initial residual = 0.182462, Final residual = 0.00797709, No Iterations 5
DILUPBiCGStab:  Solving for Uz, Initial residual = 0.809302, Final residual = 0.0257675, No Iterations 5
[INFO] MomentumPredictor: 446.658 [ms]
[INFO] MatrixAssemblyPI: 65.997 [ms]
[INFO] AdjustPhi: 4.519 [ms]
[INFO] ConstrainPressure: 0.003 [ms]
[INFO] MatrixAssemblyPII: 18.981 [ms]
DICPCG:  Solving for p, Initial residual = 0.849889, Final residual = 9.40848e-05, No Iterations 286
[INFO] SolveP: 2801.2 [ms]
time step continuity errors : sum local = 1.39442e-08, global = -2.31197e-21, cumulative = -5.36791e-21
[INFO] ContinuityError: 5.653 [ms]
[INFO] CorrectBoundary: 0.536 [ms]
[INFO] PISOStep: 2921.39 [ms]
[INFO] MatrixAssemblyPI: 62.604 [ms]
[INFO] AdjustPhi: 5.691 [ms]
[INFO] ConstrainPressure: 0.003 [ms]
[INFO] MatrixAssemblyPII: 19.09 [ms]
DICPCG:  Solving for p, Initial residual = 0.816124, Final residual = 9.57405e-05, No Iterations 285
[INFO] SolveP: 2804.75 [ms]
time step continuity errors : sum local = 1.30136e-08, global = -1.75148e-21, cumulative = -7.11939e-21
[INFO] ContinuityError: 5.76 [ms]
[INFO] CorrectBoundary: 0.665 [ms]
[INFO] PISOStep: 2923.11 [ms]
[INFO] TimeStep: 6357.61 [ms]
ExecutionTime = 32.05 s  ClockTime = 33 s

Time = 0.001

Courant Number mean: 0.029186 max: 0.467743
[INFO] MatrixAssemblyU: 60.809 [ms]
DILUPBiCGStab:  Solving for Ux, Initial residual = 0.0346919, Final residual = 0.0012931, No Iterations 5
DILUPBiCGStab:  Solving for Uy, Initial residual = 0.129304, Final residual = 0.00499608, No Iterations 5
DILUPBiCGStab:  Solving for Uz, Initial residual = 0.614897, Final residual = 0.016361, No Iterations 5
[INFO] MomentumPredictor: 473.374 [ms]
[INFO] MatrixAssemblyPI: 66.504 [ms]
[INFO] AdjustPhi: 4.079 [ms]
[INFO] ConstrainPressure: 0.002 [ms]
[INFO] MatrixAssemblyPII: 19.372 [ms]
DICPCG:  Solving for p, Initial residual = 0.772859, Final residual = 9.65989e-05, No Iterations 285
[INFO] SolveP: 2800.31 [ms]
time step continuity errors : sum local = 1.3347e-08, global = 4.10592e-22, cumulative = -6.7088e-21
[INFO] ContinuityError: 6.085 [ms]
[INFO] CorrectBoundary: 0.499 [ms]
[INFO] PISOStep: 2921.18 [ms]
[INFO] MatrixAssemblyPI: 64.993 [ms]
[INFO] AdjustPhi: 3.638 [ms]
[INFO] ConstrainPressure: 0.003 [ms]
[INFO] MatrixAssemblyPII: 19.386 [ms]
DICPCG:  Solving for p, Initial residual = 0.710032, Final residual = 9.59915e-05, No Iterations 283
[INFO] SolveP: 2791.6 [ms]
time step continuity errors : sum local = 1.242e-08, global = -3.7216e-21, cumulative = -1.04304e-20
[INFO] ContinuityError: 7.532 [ms]
[INFO] CorrectBoundary: 0.702 [ms]
[INFO] PISOStep: 2912.2 [ms]
[INFO] TimeStep: 6375.1 [ms]
ExecutionTime = 38.37 s  ClockTime = 39 s

Time = 0.00125

Courant Number mean: 0.0333264 max: 0.472975
[INFO] MatrixAssemblyU: 59.969 [ms]
DILUPBiCGStab:  Solving for Ux, Initial residual = 0.0271975, Final residual = 0.000950904, No Iterations 5
DILUPBiCGStab:  Solving for Uy, Initial residual = 0.0814623, Final residual = 0.0036939, No Iterations 5
DILUPBiCGStab:  Solving for Uz, Initial residual = 0.474407, Final residual = 0.0135176, No Iterations 5
[INFO] MomentumPredictor: 445.216 [ms]
[INFO] MatrixAssemblyPI: 66.074 [ms]
[INFO] AdjustPhi: 4.332 [ms]
[INFO] ConstrainPressure: 0.003 [ms]
[INFO] MatrixAssemblyPII: 19.426 [ms]
DICPCG:  Solving for p, Initial residual = 0.77734, Final residual = 9.43474e-05, No Iterations 600
[INFO] SolveP: 5907.43 [ms]
time step continuity errors : sum local = 9.60056e-09, global = -1.47703e-21, cumulative = -1.19074e-20
[INFO] ContinuityError: 5.789 [ms]
[INFO] CorrectBoundary: 0.255 [ms]
[INFO] PISOStep: 6028.6 [ms]
[INFO] MatrixAssemblyPI: 65.138 [ms]
[INFO] AdjustPhi: 3.123 [ms]
[INFO] ConstrainPressure: 0.003 [ms]
[INFO] MatrixAssemblyPII: 19.456 [ms]
DICPCG:  Solving for p, Initial residual = 0.726147, Final residual = 9.55501e-05, No Iterations 599
[INFO] SolveP: 5896.36 [ms]
time step continuity errors : sum local = 9.59207e-09, global = -2.09201e-21, cumulative = -1.39994e-20
[INFO] ContinuityError: 5.749 [ms]
[INFO] CorrectBoundary: 0.512 [ms]
[INFO] PISOStep: 6015.07 [ms]
[INFO] TimeStep: 12556.5 [ms]
ExecutionTime = 50.82 s  ClockTime = 52 s

Time = 0.0015

Courant Number mean: 0.0366259 max: 0.475545
[INFO] MatrixAssemblyU: 58.724 [ms]
DILUPBiCGStab:  Solving for Ux, Initial residual = 0.0204566, Final residual = 0.000683489, No Iterations 5
DILUPBiCGStab:  Solving for Uy, Initial residual = 0.0660214, Final residual = 0.00256955, No Iterations 5
DILUPBiCGStab:  Solving for Uz, Initial residual = 0.343065, Final residual = 0.00902205, No Iterations 5
[INFO] MomentumPredictor: 446.389 [ms]
[INFO] MatrixAssemblyPI: 64.51 [ms]
[INFO] AdjustPhi: 5.755 [ms]
[INFO] ConstrainPressure: 0.003 [ms]
[INFO] MatrixAssemblyPII: 19.472 [ms]
DICPCG:  Solving for p, Initial residual = 0.68603, Final residual = 9.84828e-05, No Iterations 594
[INFO] SolveP: 5818.18 [ms]
time step continuity errors : sum local = 9.255e-09, global = -2.30976e-21, cumulative = -1.63092e-20
[INFO] ContinuityError: 6.715 [ms]
[INFO] CorrectBoundary: 0.971 [ms]
[INFO] PISOStep: 5939.34 [ms]
[INFO] MatrixAssemblyPI: 62.745 [ms]
[INFO] AdjustPhi: 5.616 [ms]
[INFO] ConstrainPressure: 0.003 [ms]
[INFO] MatrixAssemblyPII: 16.877 [ms]
DICPCG:  Solving for p, Initial residual = 0.625495, Final residual = 9.64997e-05, No Iterations 593
[INFO] SolveP: 5829.81 [ms]
time step continuity errors : sum local = 9.10292e-09, global = -9.5834e-22, cumulative = -1.72675e-20
[INFO] ContinuityError: 6.572 [ms]
[INFO] CorrectBoundary: 0.23 [ms]
[INFO] PISOStep: 5949.69 [ms]
[INFO] TimeStep: 12401.5 [ms]
ExecutionTime = 63.12 s  ClockTime = 64 s

Time = 0.00175

Courant Number mean: 0.0395405 max: 0.477486
[INFO] MatrixAssemblyU: 60.215 [ms]
DILUPBiCGStab:  Solving for Ux, Initial residual = 0.0174791, Final residual = 0.000549946, No Iterations 5
DILUPBiCGStab:  Solving for Uy, Initial residual = 0.0491347, Final residual = 0.00187531, No Iterations 5
DILUPBiCGStab:  Solving for Uz, Initial residual = 0.264443, Final residual = 0.00819606, No Iterations 5
[INFO] MomentumPredictor: 447.758 [ms]
[INFO] MatrixAssemblyPI: 65.794 [ms]
[INFO] AdjustPhi: 4.596 [ms]
[INFO] ConstrainPressure: 0.003 [ms]
[INFO] MatrixAssemblyPII: 19.219 [ms]
DICPCG:  Solving for p, Initial residual = 0.681184, Final residual = 9.76802e-05, No Iterations 566
[INFO] SolveP: 5550.51 [ms]
time step continuity errors : sum local = 7.64865e-09, global = -2.83396e-21, cumulative = -2.01015e-20
[INFO] ContinuityError: 5.654 [ms]
[INFO] CorrectBoundary: 0.458 [ms]
[INFO] PISOStep: 5670.65 [ms]
[INFO] MatrixAssemblyPI: 64.267 [ms]
[INFO] AdjustPhi: 3.92 [ms]
[INFO] ConstrainPressure: 0.004 [ms]
[INFO] MatrixAssemblyPII: 19.346 [ms]
DICPCG:  Solving for p, Initial residual = 0.621992, Final residual = 9.88145e-05, No Iterations 285
[INFO] SolveP: 2805.71 [ms]
time step continuity errors : sum local = 9.38826e-09, global = -1.22154e-21, cumulative = -2.1323e-20
[INFO] ContinuityError: 6.143 [ms]
[INFO] CorrectBoundary: 0.265 [ms]
[INFO] PISOStep: 2924 [ms]
[INFO] TimeStep: 9110.98 [ms]
ExecutionTime = 72.16 s  ClockTime = 73 s

Time = 0.002

Courant Number mean: 0.0420648 max: 0.479194
[INFO] MatrixAssemblyU: 60.424 [ms]
DILUPBiCGStab:  Solving for Ux, Initial residual = 0.0142893, Final residual = 0.000424322, No Iterations 5
DILUPBiCGStab:  Solving for Uy, Initial residual = 0.042026, Final residual = 0.00146839, No Iterations 5
DILUPBiCGStab:  Solving for Uz, Initial residual = 0.211362, Final residual = 0.00680651, No Iterations 5
[INFO] MomentumPredictor: 445.595 [ms]
[INFO] MatrixAssemblyPI: 66.154 [ms]
[INFO] AdjustPhi: 4.352 [ms]
[INFO] ConstrainPressure: 0.003 [ms]
[INFO] MatrixAssemblyPII: 19.404 [ms]
DICPCG:  Solving for p, Initial residual = 0.591524, Final residual = 9.68988e-05, No Iterations 593
[INFO] SolveP: 5836.31 [ms]
time step continuity errors : sum local = 7.23724e-09, global = -3.83235e-21, cumulative = -2.51554e-20
[INFO] ContinuityError: 6.682 [ms]
[INFO] CorrectBoundary: 0.168 [ms]
[INFO] PISOStep: 5957.46 [ms]
[INFO] MatrixAssemblyPI: 63.802 [ms]
[INFO] AdjustPhi: 4.247 [ms]
[INFO] ConstrainPressure: 0.003 [ms]
[INFO] MatrixAssemblyPII: 19.151 [ms]
DICPCG:  Solving for p, Initial residual = 0.534224, Final residual = 9.65945e-05, No Iterations 592
[INFO] SolveP: 5797.58 [ms]
time step continuity errors : sum local = 7.20085e-09, global = -3.05269e-21, cumulative = -2.82081e-20
[INFO] ContinuityError: 5.836 [ms]
[INFO] CorrectBoundary: 0.567 [ms]
[INFO] PISOStep: 5916.03 [ms]
[INFO] TimeStep: 12388.2 [ms]
ExecutionTime = 84.45 s  ClockTime = 85 s

Time = 0.00225

Courant Number mean: 0.0443509 max: 0.480341
[INFO] MatrixAssemblyU: 60.395 [ms]
DILUPBiCGStab:  Solving for Ux, Initial residual = 0.0126232, Final residual = 0.00035287, No Iterations 5
DILUPBiCGStab:  Solving for Uy, Initial residual = 0.0338221, Final residual = 0.00103873, No Iterations 5
DILUPBiCGStab:  Solving for Uz, Initial residual = 0.174358, Final residual = 0.00630161, No Iterations 5
[INFO] MomentumPredictor: 444.413 [ms]
[INFO] MatrixAssemblyPI: 66.336 [ms]
[INFO] AdjustPhi: 3.913 [ms]
[INFO] ConstrainPressure: 0.003 [ms]
[INFO] MatrixAssemblyPII: 19.104 [ms]
DICPCG:  Solving for p, Initial residual = 0.578329, Final residual = 9.62241e-05, No Iterations 574
[INFO] SolveP: 5619.35 [ms]
time step continuity errors : sum local = 6.21275e-09, global = -4.78434e-21, cumulative = -3.29924e-20
[INFO] ContinuityError: 6.111 [ms]
[INFO] CorrectBoundary: 0.966 [ms]
[INFO] PISOStep: 5740.05 [ms]
[INFO] MatrixAssemblyPI: 61.932 [ms]
[INFO] AdjustPhi: 5.321 [ms]
[INFO] ConstrainPressure: 0.003 [ms]
[INFO] MatrixAssemblyPII: 19.288 [ms]
DICPCG:  Solving for p, Initial residual = 0.517885, Final residual = 9.64395e-05, No Iterations 573
[INFO] SolveP: 5667.41 [ms]
time step continuity errors : sum local = 6.22438e-09, global = -1.6193e-23, cumulative = -3.30086e-20
[INFO] ContinuityError: 6.998 [ms]
[INFO] CorrectBoundary: 0.266 [ms]
[INFO] PISOStep: 5785.29 [ms]
[INFO] TimeStep: 12037.4 [ms]
ExecutionTime = 96.39 s  ClockTime = 97 s

Time = 0.0025

Courant Number mean: 0.0464051 max: 0.481449
[INFO] MatrixAssemblyU: 58.025 [ms]
DILUPBiCGStab:  Solving for Ux, Initial residual = 0.0108564, Final residual = 0.000285517, No Iterations 5
DILUPBiCGStab:  Solving for Uy, Initial residual = 0.0295975, Final residual = 0.000852805, No Iterations 5
DILUPBiCGStab:  Solving for Uz, Initial residual = 0.136081, Final residual = 0.00474653, No Iterations 5
[INFO] MomentumPredictor: 447.894 [ms]
[INFO] MatrixAssemblyPI: 66.239 [ms]
[INFO] AdjustPhi: 4.314 [ms]
[INFO] ConstrainPressure: 0.003 [ms]
[INFO] MatrixAssemblyPII: 19.397 [ms]
DICPCG:  Solving for p, Initial residual = 0.502591, Final residual = 9.11856e-05, No Iterations 573
[INFO] SolveP: 5620.4 [ms]
time step continuity errors : sum local = 5.72116e-09, global = -2.87804e-21, cumulative = -3.58867e-20
[INFO] ContinuityError: 6.057 [ms]
[INFO] CorrectBoundary: 0.398 [ms]
[INFO] PISOStep: 5740.72 [ms]
[INFO] MatrixAssemblyPI: 64.086 [ms]
[INFO] AdjustPhi: 4.376 [ms]
[INFO] ConstrainPressure: 0.002 [ms]
[INFO] MatrixAssemblyPII: 19.5 [ms]
DICPCG:  Solving for p, Initial residual = 0.450067, Final residual = 9.31926e-05, No Iterations 572
[INFO] SolveP: 5623.08 [ms]
time step continuity errors : sum local = 5.82386e-09, global = -4.29032e-21, cumulative = -4.0177e-20
[INFO] ContinuityError: 6.755 [ms]
[INFO] CorrectBoundary: 1.485 [ms]
[INFO] PISOStep: 5742.91 [ms]
[INFO] TimeStep: 11997 [ms]
ExecutionTime = 108.28 s  ClockTime = 109 s

Time = 0.00275

Courant Number mean: 0.0482938 max: 0.482223
[INFO] MatrixAssemblyU: 59.687 [ms]
DILUPBiCGStab:  Solving for Ux, Initial residual = 0.00972344, Final residual = 0.000240777, No Iterations 5
DILUPBiCGStab:  Solving for Uy, Initial residual = 0.025061, Final residual = 0.000621607, No Iterations 5
DILUPBiCGStab:  Solving for Uz, Initial residual = 0.116999, Final residual = 0.00480972, No Iterations 5
[INFO] MomentumPredictor: 448.246 [ms]
[INFO] MatrixAssemblyPI: 63.6 [ms]
[INFO] AdjustPhi: 6.73 [ms]
[INFO] ConstrainPressure: 0.002 [ms]
[INFO] MatrixAssemblyPII: 17.772 [ms]
DICPCG:  Solving for p, Initial residual = 0.478106, Final residual = 9.85784e-05, No Iterations 571
[INFO] SolveP: 5607.72 [ms]
time step continuity errors : sum local = 5.58028e-09, global = -2.28007e-21, cumulative = -4.2457e-20
[INFO] ContinuityError: 5.266 [ms]
[INFO] CorrectBoundary: 0.186 [ms]
[INFO] PISOStep: 5728.62 [ms]
[INFO] MatrixAssemblyPI: 64.209 [ms]
[INFO] AdjustPhi: 3.948 [ms]
[INFO] ConstrainPressure: 0.004 [ms]
[INFO] MatrixAssemblyPII: 19.216 [ms]
DICPCG:  Solving for p, Initial residual = 0.424182, Final residual = 9.74788e-05, No Iterations 570
[INFO] SolveP: 5613.29 [ms]
time step continuity errors : sum local = 5.52343e-09, global = -3.83995e-21, cumulative = -4.6297e-20
[INFO] ContinuityError: 6.408 [ms]
[INFO] CorrectBoundary: 0.451 [ms]
[INFO] PISOStep: 5732.58 [ms]
[INFO] TimeStep: 11976.4 [ms]
ExecutionTime = 120.17 s  ClockTime = 121 s

Time = 0.003

Courant Number mean: 0.0500277 max: 0.48301
[INFO] MatrixAssemblyU: 60.657 [ms]
DILUPBiCGStab:  Solving for Ux, Initial residual = 0.00863066, Final residual = 0.000201714, No Iterations 5
DILUPBiCGStab:  Solving for Uy, Initial residual = 0.0223775, Final residual = 0.000512998, No Iterations 5
DILUPBiCGStab:  Solving for Uz, Initial residual = 0.0948192, Final residual = 0.00380878, No Iterations 5
[INFO] MomentumPredictor: 444.155 [ms]
[INFO] MatrixAssemblyPI: 67.288 [ms]
[INFO] AdjustPhi: 3.013 [ms]
[INFO] ConstrainPressure: 0.003 [ms]
[INFO] MatrixAssemblyPII: 19.509 [ms]
DICPCG:  Solving for p, Initial residual = 0.421208, Final residual = 9.25469e-05, No Iterations 566
[INFO] SolveP: 5557.06 [ms]
time step continuity errors : sum local = 5.09113e-09, global = -2.65002e-21, cumulative = -4.8947e-20
[INFO] ContinuityError: 6.205 [ms]
[INFO] CorrectBoundary: 0.227 [ms]
[INFO] PISOStep: 5678.01 [ms]
[INFO] MatrixAssemblyPI: 64.469 [ms]
[INFO] AdjustPhi: 4.509 [ms]
[INFO] ConstrainPressure: 0.003 [ms]
[INFO] MatrixAssemblyPII: 19.156 [ms]
DICPCG:  Solving for p, Initial residual = 0.374791, Final residual = 9.25798e-05, No Iterations 566
[INFO] SolveP: 5568.11 [ms]
time step continuity errors : sum local = 5.07148e-09, global = -7.74652e-21, cumulative = -5.66935e-20
[INFO] ContinuityError: 5.962 [ms]
[INFO] CorrectBoundary: 0.886 [ms]
[INFO] PISOStep: 5687.18 [ms]
[INFO] TimeStep: 11877.3 [ms]
ExecutionTime = 131.95 s  ClockTime = 133 s

Time = 0.00325

Courant Number mean: 0.0516387 max: 0.483577
[INFO] MatrixAssemblyU: 60.851 [ms]
DILUPBiCGStab:  Solving for Ux, Initial residual = 0.00783309, Final residual = 0.000172323, No Iterations 5
DILUPBiCGStab:  Solving for Uy, Initial residual = 0.0195835, Final residual = 0.00040349, No Iterations 5
DILUPBiCGStab:  Solving for Uz, Initial residual = 0.0829252, Final residual = 0.00371866, No Iterations 5
[INFO] MomentumPredictor: 451.853 [ms]
[INFO] MatrixAssemblyPI: 66.894 [ms]
[INFO] AdjustPhi: 3.516 [ms]
[INFO] ConstrainPressure: 0.003 [ms]
[INFO] MatrixAssemblyPII: 19.336 [ms]
DICPCG:  Solving for p, Initial residual = 0.390433, Final residual = 9.2062e-05, No Iterations 567
[INFO] SolveP: 5553.51 [ms]
time step continuity errors : sum local = 4.72795e-09, global = -4.99821e-21, cumulative = -6.16918e-20
[INFO] ContinuityError: 6.493 [ms]
[INFO] CorrectBoundary: 0.634 [ms]
[INFO] PISOStep: 5675.12 [ms]
[INFO] MatrixAssemblyPI: 64.451 [ms]
[INFO] AdjustPhi: 3.753 [ms]
[INFO] ConstrainPressure: 0.002 [ms]
[INFO] MatrixAssemblyPII: 19.279 [ms]
DICPCG:  Solving for p, Initial residual = 0.344351, Final residual = 9.49771e-05, No Iterations 566
[INFO] SolveP: 5587.6 [ms]
time step continuity errors : sum local = 4.88356e-09, global = -4.91622e-21, cumulative = -6.6608e-20
[INFO] ContinuityError: 7.16 [ms]
[INFO] CorrectBoundary: 0.193 [ms]
[INFO] PISOStep: 5711.47 [ms]
[INFO] TimeStep: 11906.8 [ms]
ExecutionTime = 143.76 s  ClockTime = 145 s

Time = 0.0035

Courant Number mean: 0.0531349 max: 0.484169
[INFO] MatrixAssemblyU: 59.866 [ms]
DILUPBiCGStab:  Solving for Ux, Initial residual = 0.00710083, Final residual = 0.000147774, No Iterations 5
DILUPBiCGStab:  Solving for Uy, Initial residual = 0.017751, Final residual = 0.000335047, No Iterations 5
DILUPBiCGStab:  Solving for Uz, Initial residual = 0.0697113, Final residual = 0.00309323, No Iterations 5
[INFO] MomentumPredictor: 445.265 [ms]
[INFO] MatrixAssemblyPI: 66.166 [ms]
[INFO] AdjustPhi: 4.034 [ms]
[INFO] ConstrainPressure: 0.003 [ms]
[INFO] MatrixAssemblyPII: 19.472 [ms]
DICPCG:  Solving for p, Initial residual = 0.348621, Final residual = 9.90516e-05, No Iterations 564
[INFO] SolveP: 5536.24 [ms]
time step continuity errors : sum local = 4.92282e-09, global = -1.21641e-21, cumulative = -6.78244e-20
[INFO] ContinuityError: 7.766 [ms]
[INFO] CorrectBoundary: 0.505 [ms]
[INFO] PISOStep: 5662.95 [ms]
[INFO] MatrixAssemblyPI: 65.469 [ms]
[INFO] AdjustPhi: 4.683 [ms]
[INFO] ConstrainPressure: 0.003 [ms]
[INFO] MatrixAssemblyPII: 19.306 [ms]
DICPCG:  Solving for p, Initial residual = 0.309125, Final residual = 9.16656e-05, No Iterations 564
[INFO] SolveP: 5536.87 [ms]
time step continuity errors : sum local = 4.53846e-09, global = -4.72258e-21, cumulative = -7.2547e-20
[INFO] ContinuityError: 8.251 [ms]
[INFO] CorrectBoundary: 0.382 [ms]
[INFO] PISOStep: 5663.38 [ms]
[INFO] TimeStep: 11839.5 [ms]
ExecutionTime = 155.49 s  ClockTime = 157 s

Time = 0.00375

Courant Number mean: 0.0545379 max: 0.484613
[INFO] MatrixAssemblyU: 60.792 [ms]
DILUPBiCGStab:  Solving for Ux, Initial residual = 0.0065081, Final residual = 0.000127486, No Iterations 5
DILUPBiCGStab:  Solving for Uy, Initial residual = 0.0159032, Final residual = 0.000287999, No Iterations 5
DILUPBiCGStab:  Solving for Uz, Initial residual = 0.0615931, Final residual = 0.00291906, No Iterations 5
[INFO] MomentumPredictor: 444.471 [ms]
[INFO] MatrixAssemblyPI: 65.25 [ms]
[INFO] AdjustPhi: 5.014 [ms]
[INFO] ConstrainPressure: 0.003 [ms]
[INFO] MatrixAssemblyPII: 19.282 [ms]
DICPCG:  Solving for p, Initial residual = 0.315998, Final residual = 9.67937e-05, No Iterations 565
[INFO] SolveP: 5573.33 [ms]
time step continuity errors : sum local = 4.611e-09, global = -4.36109e-21, cumulative = -7.6908e-20
[INFO] ContinuityError: 6.488 [ms]
[INFO] CorrectBoundary: 0.247 [ms]
[INFO] PISOStep: 5694.37 [ms]
[INFO] MatrixAssemblyPI: 64.068 [ms]
[INFO] AdjustPhi: 4.16 [ms]
[INFO] ConstrainPressure: 0.002 [ms]
[INFO] MatrixAssemblyPII: 19.37 [ms]
DICPCG:  Solving for p, Initial residual = 0.278034, Final residual = 9.78406e-05, No Iterations 257
[INFO] SolveP: 2522.3 [ms]
time step continuity errors : sum local = 5.52506e-09, global = -2.19373e-21, cumulative = -7.91018e-20
[INFO] ContinuityError: 6.249 [ms]
[INFO] CorrectBoundary: 0.575 [ms]
[INFO] PISOStep: 2641.43 [ms]
[INFO] TimeStep: 8848.94 [ms]
ExecutionTime = 164.27 s  ClockTime = 166 s

Time = 0.004

Courant Number mean: 0.0558523 max: 0.485073
[INFO] MatrixAssemblyU: 58.74 [ms]
DILUPBiCGStab:  Solving for Ux, Initial residual = 0.00597751, Final residual = 0.000111255, No Iterations 5
DILUPBiCGStab:  Solving for Uy, Initial residual = 0.0146551, Final residual = 0.000244836, No Iterations 5
DILUPBiCGStab:  Solving for Uz, Initial residual = 0.0553599, Final residual = 0.00262963, No Iterations 5
[INFO] MomentumPredictor: 445.895 [ms]
[INFO] MatrixAssemblyPI: 67.085 [ms]
[INFO] AdjustPhi: 3.695 [ms]
[INFO] ConstrainPressure: 0.004 [ms]
[INFO] MatrixAssemblyPII: 19.193 [ms]
DICPCG:  Solving for p, Initial residual = 0.285561, Final residual = 9.81877e-05, No Iterations 567
[INFO] SolveP: 5553.62 [ms]
time step continuity errors : sum local = 4.51057e-09, global = -3.65877e-21, cumulative = -8.27606e-20
[INFO] ContinuityError: 6.25 [ms]
[INFO] CorrectBoundary: 0.437 [ms]
[INFO] PISOStep: 5675.24 [ms]
[INFO] MatrixAssemblyPI: 64.61 [ms]
[INFO] AdjustPhi: 4.038 [ms]
[INFO] ConstrainPressure: 0.002 [ms]
[INFO] MatrixAssemblyPII: 19.405 [ms]
DICPCG:  Solving for p, Initial residual = 0.252476, Final residual = 9.78072e-05, No Iterations 567
[INFO] SolveP: 5565.47 [ms]
time step continuity errors : sum local = 4.48044e-09, global = -2.84107e-21, cumulative = -8.56016e-20
[INFO] ContinuityError: 6.485 [ms]
[INFO] CorrectBoundary: 1.366 [ms]
[INFO] PISOStep: 5684.8 [ms]
[INFO] TimeStep: 11872.5 [ms]
ExecutionTime = 176.04 s  ClockTime = 178 s

Time = 0.00425

Courant Number mean: 0.057092 max: 0.485434
[INFO] MatrixAssemblyU: 62.083 [ms]
DILUPBiCGStab:  Solving for Ux, Initial residual = 0.00554688, Final residual = 9.71309e-05, No Iterations 5
DILUPBiCGStab:  Solving for Uy, Initial residual = 0.0133198, Final residual = 0.000223683, No Iterations 5
DILUPBiCGStab:  Solving for Uz, Initial residual = 0.0489167, Final residual = 0.00229721, No Iterations 5
[INFO] MomentumPredictor: 442.538 [ms]
[INFO] MatrixAssemblyPI: 66.994 [ms]
[INFO] AdjustPhi: 3.458 [ms]
[INFO] ConstrainPressure: 0.002 [ms]
[INFO] MatrixAssemblyPII: 19.335 [ms]
DICPCG:  Solving for p, Initial residual = 0.255255, Final residual = 9.88996e-05, No Iterations 560
[INFO] SolveP: 5501.39 [ms]
time step continuity errors : sum local = 4.43883e-09, global = -5.14317e-21, cumulative = -9.07448e-20
[INFO] ContinuityError: 6.174 [ms]
[INFO] CorrectBoundary: 0.621 [ms]
[INFO] PISOStep: 5621.94 [ms]
[INFO] MatrixAssemblyPI: 63.594 [ms]
[INFO] AdjustPhi: 4.9 [ms]
[INFO] ConstrainPressure: 0.003 [ms]
[INFO] MatrixAssemblyPII: 19.317 [ms]
DICPCG:  Solving for p, Initial residual = 0.224203, Final residual = 9.87985e-05, No Iterations 559
[INFO] SolveP: 5505.72 [ms]
time step continuity errors : sum local = 4.43819e-09, global = -4.18421e-21, cumulative = -9.4929e-20
[INFO] ContinuityError: 5.733 [ms]
[INFO] CorrectBoundary: 0.528 [ms]
[INFO] PISOStep: 5624.06 [ms]
[INFO] TimeStep: 11758 [ms]
ExecutionTime = 187.71 s  ClockTime = 190 s

Time = 0.0045

Courant Number mean: 0.0582616 max: 0.485806
[INFO] MatrixAssemblyU: 57.963 [ms]
DILUPBiCGStab:  Solving for Ux, Initial residual = 0.00515198, Final residual = 8.59634e-05, No Iterations 5
DILUPBiCGStab:  Solving for Uy, Initial residual = 0.0123233, Final residual = 0.000193559, No Iterations 5
DILUPBiCGStab:  Solving for Uz, Initial residual = 0.0427109, Final residual = 0.00197229, No Iterations 5
[INFO] MomentumPredictor: 446.538 [ms]
[INFO] MatrixAssemblyPI: 65.808 [ms]
[INFO] AdjustPhi: 4.569 [ms]
[INFO] ConstrainPressure: 0.002 [ms]
[INFO] MatrixAssemblyPII: 19.418 [ms]
DICPCG:  Solving for p, Initial residual = 0.231821, Final residual = 9.37306e-05, No Iterations 561
[INFO] SolveP: 5504.64 [ms]
time step continuity errors : sum local = 4.05324e-09, global = -1.74664e-21, cumulative = -9.66757e-20
[INFO] ContinuityError: 6.214 [ms]
[INFO] CorrectBoundary: 0.417 [ms]
[INFO] PISOStep: 5625.31 [ms]
[INFO] MatrixAssemblyPI: 62.084 [ms]
[INFO] AdjustPhi: 5.828 [ms]
[INFO] ConstrainPressure: 0.003 [ms]
[INFO] MatrixAssemblyPII: 19.167 [ms]
DICPCG:  Solving for p, Initial residual = 0.204453, Final residual = 9.66664e-05, No Iterations 560
[INFO] SolveP: 5521.24 [ms]
time step continuity errors : sum local = 4.17102e-09, global = -2.58824e-21, cumulative = -9.92639e-20
[INFO] ContinuityError: 6.941 [ms]
[INFO] CorrectBoundary: 0.424 [ms]
[INFO] PISOStep: 5640.59 [ms]
[INFO] TimeStep: 11777.7 [ms]
ExecutionTime = 199.39 s  ClockTime = 201 s

Time = 0.00475

Courant Number mean: 0.0593698 max: 0.486104
[INFO] MatrixAssemblyU: 59.244 [ms]
DILUPBiCGStab:  Solving for Ux, Initial residual = 0.00479301, Final residual = 7.56648e-05, No Iterations 5
DILUPBiCGStab:  Solving for Uy, Initial residual = 0.0113625, Final residual = 0.00018077, No Iterations 5
DILUPBiCGStab:  Solving for Uz, Initial residual = 0.0378306, Final residual = 0.00174915, No Iterations 5
[INFO] MomentumPredictor: 446.318 [ms]
[INFO] MatrixAssemblyPI: 66.45 [ms]
[INFO] AdjustPhi: 3.855 [ms]
[INFO] ConstrainPressure: 0.002 [ms]
[INFO] MatrixAssemblyPII: 19.354 [ms]
DICPCG:  Solving for p, Initial residual = 0.205377, Final residual = 9.70121e-05, No Iterations 560
[INFO] SolveP: 5499.25 [ms]
time step continuity errors : sum local = 4.14856e-09, global = -2.90591e-21, cumulative = -1.0217e-19
[INFO] ContinuityError: 5.601 [ms]
[INFO] CorrectBoundary: 0.687 [ms]
[INFO] PISOStep: 5620.08 [ms]
[INFO] MatrixAssemblyPI: 64.157 [ms]
[INFO] AdjustPhi: 3.958 [ms]
[INFO] ConstrainPressure: 0.003 [ms]
[INFO] MatrixAssemblyPII: 19.498 [ms]
DICPCG:  Solving for p, Initial residual = 0.180073, Final residual = 9.75359e-05, No Iterations 559
[INFO] SolveP: 5488.62 [ms]
time step continuity errors : sum local = 4.17283e-09, global = 2.49754e-23, cumulative = -1.02145e-19
[INFO] ContinuityError: 6.737 [ms]
[INFO] CorrectBoundary: 0.325 [ms]
[INFO] PISOStep: 5607.61 [ms]
[INFO] TimeStep: 11740.6 [ms]
ExecutionTime = 211.03 s  ClockTime = 213 s

Time = 0.005

Courant Number mean: 0.0604209 max: 0.486408
[INFO] MatrixAssemblyU: 60.248 [ms]
DILUPBiCGStab:  Solving for Ux, Initial residual = 0.00449241, Final residual = 6.79895e-05, No Iterations 5
DILUPBiCGStab:  Solving for Uy, Initial residual = 0.0106079, Final residual = 0.000159203, No Iterations 5
DILUPBiCGStab:  Solving for Uz, Initial residual = 0.033794, Final residual = 0.00151176, No Iterations 5
[INFO] MomentumPredictor: 445.185 [ms]
[INFO] MatrixAssemblyPI: 66.865 [ms]
[INFO] AdjustPhi: 3.643 [ms]
[INFO] ConstrainPressure: 0.003 [ms]
[INFO] MatrixAssemblyPII: 19.29 [ms]
DICPCG:  Solving for p, Initial residual = 0.18704, Final residual = 9.43431e-05, No Iterations 557
[INFO] SolveP: 5470.56 [ms]
time step continuity errors : sum local = 3.89878e-09, global = -2.1904e-21, cumulative = -1.04335e-19
[INFO] ContinuityError: 6.587 [ms]
[INFO] CorrectBoundary: 0.243 [ms]
[INFO] PISOStep: 5591.83 [ms]
[INFO] MatrixAssemblyPI: 63.383 [ms]
[INFO] AdjustPhi: 4.662 [ms]
[INFO] ConstrainPressure: 0.003 [ms]
[INFO] MatrixAssemblyPII: 19.367 [ms]
DICPCG:  Solving for p, Initial residual = 0.164636, Final residual = 9.81223e-05, No Iterations 556
[INFO] SolveP: 5466.07 [ms]
time step continuity errors : sum local = 4.04854e-09, global = -5.37903e-21, cumulative = -1.09714e-19
[INFO] ContinuityError: 6.506 [ms]
[INFO] CorrectBoundary: 0.563 [ms]
[INFO] PISOStep: 5585.43 [ms]
[INFO] TimeStep: 11690.2 [ms]
ExecutionTime = 222.62 s  ClockTime = 225 s

End

Finalising parallel run
