/*---------------------------------------------------------------------------*\
| =========                 |                                                 |
| \\      /  F ield         | OpenFOAM: The Open Source CFD Toolbox           |
|  \\    /   O peration     | Version:  2306                                  |
|   \\  /    A nd           | Website:  www.openfoam.com                      |
|    \\/     M anipulation  |                                                 |
\*---------------------------------------------------------------------------*/
Build  : a6e826bd55-20230630 OPENFOAM=2306 version=v2306
Arch   : "LSB;label=32;scalar=64"
Exec   : icoFoam -parallel -case /tmp/lidDrivenCavity3D/workspace/3873fcdbbde210c225d6acd217a2625a/case
Date   : Dec 05 2023
Time   : 16:15:39
Host   : nla-gpu2.ianm.kit.edu
PID    : 3922347
I/O    : uncollated
Case   : /tmp/lidDrivenCavity3D/workspace/3873fcdbbde210c225d6acd217a2625a/case
nProcs : 16
Hosts  :
(
    (nla-gpu2.ianm.kit.edu 16)
)
Pstream initialized with:
    floatTransfer      : false
    nProcsSimpleSum    : 0
    nonBlockingExchange: 0 (tuning: 0)
    exchange algorithm : -1
    commsType          : nonBlocking
    polling iterations : 0
trapFpe: Floating point exception trapping enabled (FOAM_SIGFPE).
fileModificationChecking : Monitoring run-time modified files using timeStampMaster (fileModificationSkew 5, maxFileModificationPolls 20)
allowSystemOperations : Allowing user-supplied system call operations

// * * * * * * * * * * * * * * * * * * * * * * * * * * * * * * * * * * * * * //
Create time

--> FOAM Warning : 
    From void* Foam::dlLibraryTable::openLibrary(const Foam::fileName&, bool)
    in file db/dynamicLibrary/dlLibraryTable/dlLibraryTable.C at line 188
    Could not load "libpetscFoam.so"
libpetscFoam.so: cannot open shared object file: No such file or directory
Create mesh for time = 0


PISO: Operating solver in PISO mode

Reading transportProperties

Reading field p

Reading field U

Reading/calculating face flux field phi


Starting time loop

Time = 0.0005

Courant Number mean: 8.62851e-18 max: 8.67362e-15
momentum setup 8.324 [ms]
DILUPBiCGStab:  Solving for Ux, Initial residual = 1, Final residual = 0.00283431, No Iterations 5
DILUPBiCGStab:  Solving for Uy:  solution singularity
DILUPBiCGStab:  Solving for Uz:  solution singularity
piso setup 6.612 [ms]
 correctNonOrthogonal 
 setRef 
 startSolve 
[OGL LOG][lduLduBase.H:119] Initialising OGL
	OGL commit:  5ef1233
	Branch: feat/on_device_permute 
	Build type: Release
	Ginkgo version: 1.7.0 ( develop)
	Ginkgo commit: sparse-communicator
	MPI is GPU aware: 1
	Forces host buffer based communication: 0
	CPU ranks per GPU: 1
	Matrix format: Coo
	End OGL_INFO
[OGL LOG][Proc: 0]: global_index_init: 11.138 [ms]
[OGL LOG][Proc: 0]p_local_cols: call_init: 0.033 [ms]
[OGL LOG][Proc: 0]p_local_rows: call_init: 0.003 [ms]
[OGL LOG][Proc: 0]p_local_ldu_map: call_init: 0.003 [ms]
[OGL LOG][Proc: 0]p_local_coeffs: call_init: 0.015 [ms]
[OGL LOG][Proc: 0]p_non_local_cols: call_init: 0.003 [ms]
[OGL LOG][Proc: 0]p_non_local_rows: call_init: 0.002 [ms]
[OGL LOG][Proc: 0]p_non_local_ldu_map: call_init: 0.003 [ms]
[OGL LOG][Proc: 0]p_non_local_coeffs: call_init: 0.002 [ms]
[OGL LOG][Proc: 0]p: init_local_sparsity_pattern: 10.157 [ms]
[OGL LOG][Proc: 0]p: init_non_local_sparsity_pattern: 0.765 [ms]
[OGL LOG][Proc: 0]p: update_local_matrix_data: 1.439 [ms]
[OGL LOG][Proc: 0]p: update_non_local_matrix_data: 0.054 [ms]
[OGL LOG][Proc: 0]device_partition: call_init: 0.124 [ms]
[OGL LOG][Proc: 0]p_matrix: call_init: 47.704 [ms]
[OGL LOG][Proc: 0]p_rhs: call_init: 1.382 [ms]
[OGL LOG][Proc: 0]p_solution: call_init: 0.174 [ms]
[OGL LOG][Preconditioner.H:121] Generate preconditioner BJ MaxBlockSize 1
[OGL LOG][Proc: 0]p: init_precond: 3.521 [ms]
[OGL LOG][StoppingCriterion.H:373] Creating stopping criterion with minIter 0 frequency 1
[OGL LOG][Proc: 0]p: generate_solver: 0.018 [ms]
[OGL LOG][Proc: 0]p: solve: 2102.85 [ms]
[OGL LOG][Proc: 0]p: copy_x_back: 0.263 [ms]
[OGL LOG][lduLduBase.H:330] 
Statistics:
	Time per iteration: 2692 [mu s]
	Time per residual norm calculation: 988.000000 [mu s]
	Time per iteration and DOF: 2.692000 [ns]
	Retrieve results bandwidth 1.901000 [GByte/s]
[OGL LOG][Proc: 0]p: solve_multi_gpu: 2160.23 [ms]
BJhipGKOCG:  Solving for p, Initial residual = 1, Final residual = 9.8364e-05, No Iterations 781
piso step 2430.37 [ms]
 contErrors 
time step continuity errors : sum local = 2.11349e-08, global = -1.97596e-22, cumulative = -1.97596e-22
piso setup 9.824 [ms]
 correctNonOrthogonal 
 setRef 
 startSolve 
[OGL LOG][Proc: 0]: global_index_init: 0.091 [ms]
[OGL LOG][Proc: 0]p_local_coeffs: call_update: 0.004 [ms]
[OGL LOG][Proc: 0]p_non_local_coeffs: call_update: 0 [ms]
[OGL LOG][Proc: 0]p: update_local_matrix_data: 1.16 [ms]
[OGL LOG][Proc: 0]p: update_non_local_matrix_data: 0.033 [ms]
[OGL LOG][Proc: 0]p_matrix: call_update: 2.013 [ms]
[OGL LOG][Proc: 0]p_rhs: call_update: 1.724 [ms]
[OGL LOG][Preconditioner.H:121] Generate preconditioner BJ MaxBlockSize 1
[OGL LOG][Proc: 0]p: init_precond: 0.172 [ms]
[OGL LOG][StoppingCriterion.H:373] Creating stopping criterion with minIter 468 frequency 12
[OGL LOG][Proc: 0]p: generate_solver: 0.002 [ms]
[OGL LOG][Proc: 0]p: solve: 359.762 [ms]
[OGL LOG][Proc: 0]p: copy_x_back: 0.236 [ms]
[OGL LOG][lduLduBase.H:330] 
Statistics:
	Time per iteration: 467 [mu s]
	Time per residual norm calculation: 121.000000 [mu s]
	Time per iteration and DOF: 0.467000 [ns]
	Retrieve results bandwidth 2.118000 [GByte/s]
[OGL LOG][Proc: 0]p: solve_multi_gpu: 364.146 [ms]
BJhipGKOCG:  Solving for p, Initial residual = 0.731149, Final residual = 9.80831e-05, No Iterations 769
piso step 370.117 [ms]
 contErrors 
time step continuity errors : sum local = 2.78264e-08, global = 6.05215e-23, cumulative = -1.37074e-22
ExecutionTime = 3.12 s  ClockTime = 3 s

Time = 0.001

Courant Number mean: 0.0215183 max: 0.377124
momentum setup 4.5 [ms]
DILUPBiCGStab:  Solving for Ux, Initial residual = 0.150306, Final residual = 0.00127595, No Iterations 5
DILUPBiCGStab:  Solving for Uy, Initial residual = 0.368268, Final residual = 0.00250957, No Iterations 5
DILUPBiCGStab:  Solving for Uz, Initial residual = 0.986403, Final residual = 0.00613241, No Iterations 5
piso setup 6.142 [ms]
 correctNonOrthogonal 
 setRef 
 startSolve 
[OGL LOG][Proc: 0]: global_index_init: 0.056 [ms]
[OGL LOG][Proc: 0]p_local_coeffs: call_update: 0 [ms]
[OGL LOG][Proc: 0]p_non_local_coeffs: call_update: 0 [ms]
[OGL LOG][Proc: 0]p: update_local_matrix_data: 0.8 [ms]
[OGL LOG][Proc: 0]p: update_non_local_matrix_data: 0.021 [ms]
[OGL LOG][Proc: 0]p_matrix: call_update: 2.026 [ms]
[OGL LOG][Proc: 0]p_rhs: call_update: 0.099 [ms]
[OGL LOG][Preconditioner.H:121] Generate preconditioner BJ MaxBlockSize 1
[OGL LOG][Proc: 0]p: init_precond: 0.144 [ms]
[OGL LOG][StoppingCriterion.H:373] Creating stopping criterion with minIter 461 frequency 10
[OGL LOG][Proc: 0]p: generate_solver: 0.002 [ms]
[OGL LOG][Proc: 0]p: solve: 345.537 [ms]
[OGL LOG][Proc: 0]p: copy_x_back: 0.191 [ms]
[OGL LOG][lduLduBase.H:330] 
Statistics:
	Time per iteration: 448 [mu s]
	Time per residual norm calculation: 118.000000 [mu s]
	Time per iteration and DOF: 0.448000 [ns]
	Retrieve results bandwidth 2.617000 [GByte/s]
[OGL LOG][Proc: 0]p: solve_multi_gpu: 348.306 [ms]
BJhipGKOCG:  Solving for p, Initial residual = 0.691536, Final residual = 7.00442e-05, No Iterations 771
piso step 352.495 [ms]
 contErrors 
time step continuity errors : sum local = 2.22915e-08, global = -1.2302e-21, cumulative = -1.36727e-21
piso setup 6.254 [ms]
 correctNonOrthogonal 
 setRef 
 startSolve 
[OGL LOG][Proc: 0]: global_index_init: 0.038 [ms]
[OGL LOG][Proc: 0]p_local_coeffs: call_update: 0 [ms]
[OGL LOG][Proc: 0]p_non_local_coeffs: call_update: 0 [ms]
[OGL LOG][Proc: 0]p: update_local_matrix_data: 0.629 [ms]
[OGL LOG][Proc: 0]p: update_non_local_matrix_data: 0.02 [ms]
[OGL LOG][Proc: 0]p_matrix: call_update: 1.86 [ms]
[OGL LOG][Proc: 0]p_rhs: call_update: 0.166 [ms]
[OGL LOG][Preconditioner.H:121] Generate preconditioner BJ MaxBlockSize 1
[OGL LOG][Proc: 0]p: init_precond: 0.142 [ms]
[OGL LOG][StoppingCriterion.H:373] Creating stopping criterion with minIter 462 frequency 10
[OGL LOG][Proc: 0]p: generate_solver: 0.003 [ms]
[OGL LOG][Proc: 0]p: solve: 404.988 [ms]
[OGL LOG][Proc: 0]p: copy_x_back: 0.288 [ms]
[OGL LOG][lduLduBase.H:330] 
Statistics:
	Time per iteration: 525 [mu s]
	Time per residual norm calculation: 121.000000 [mu s]
	Time per iteration and DOF: 0.525000 [ns]
	Retrieve results bandwidth 1.736000 [GByte/s]
[OGL LOG][Proc: 0]p: solve_multi_gpu: 407.687 [ms]
BJhipGKOCG:  Solving for p, Initial residual = 0.620725, Final residual = 6.1996e-05, No Iterations 771
piso step 412.36 [ms]
 contErrors 
time step continuity errors : sum local = 2.01234e-08, global = 1.42114e-22, cumulative = -1.22516e-21
ExecutionTime = 3.97 s  ClockTime = 4 s

Time = 0.0015

Courant Number mean: 0.0324765 max: 0.441237
momentum setup 5.301 [ms]
DILUPBiCGStab:  Solving for Ux, Initial residual = 0.053124, Final residual = 0.000379605, No Iterations 5
DILUPBiCGStab:  Solving for Uy, Initial residual = 0.124771, Final residual = 0.000649553, No Iterations 5
DILUPBiCGStab:  Solving for Uz, Initial residual = 0.580141, Final residual = 0.00342255, No Iterations 5
piso setup 6.389 [ms]
 correctNonOrthogonal 
 setRef 
 startSolve 
[OGL LOG][Proc: 0]: global_index_init: 0.041 [ms]
[OGL LOG][Proc: 0]p_local_coeffs: call_update: 0 [ms]
[OGL LOG][Proc: 0]p_non_local_coeffs: call_update: 0 [ms]
[OGL LOG][Proc: 0]p: update_local_matrix_data: 1.054 [ms]
[OGL LOG][Proc: 0]p: update_non_local_matrix_data: 0.03 [ms]
[OGL LOG][Proc: 0]p_matrix: call_update: 4.504 [ms]
[OGL LOG][Proc: 0]p_rhs: call_update: 0.094 [ms]
[OGL LOG][Preconditioner.H:121] Generate preconditioner BJ MaxBlockSize 1
[OGL LOG][Proc: 0]p: init_precond: 0.145 [ms]
[OGL LOG][StoppingCriterion.H:373] Creating stopping criterion with minIter 462 frequency 8
[OGL LOG][Proc: 0]p: generate_solver: 0.002 [ms]
[OGL LOG][Proc: 0]p: solve: 341.629 [ms]
[OGL LOG][Proc: 0]p: copy_x_back: 0.18 [ms]
[OGL LOG][lduLduBase.H:330] 
Statistics:
	Time per iteration: 448 [mu s]
	Time per residual norm calculation: 120.000000 [mu s]
	Time per iteration and DOF: 0.448000 [ns]
	Retrieve results bandwidth 2.777000 [GByte/s]
[OGL LOG][Proc: 0]p: solve_multi_gpu: 346.833 [ms]
BJhipGKOCG:  Solving for p, Initial residual = 0.633172, Final residual = 9.02427e-05, No Iterations 761
piso step 351.198 [ms]
 contErrors 
time step continuity errors : sum local = 2.07068e-08, global = -5.92345e-21, cumulative = -7.14861e-21
piso setup 6.355 [ms]
 correctNonOrthogonal 
 setRef 
 startSolve 
[OGL LOG][Proc: 0]: global_index_init: 0.042 [ms]
[OGL LOG][Proc: 0]p_local_coeffs: call_update: 0 [ms]
[OGL LOG][Proc: 0]p_non_local_coeffs: call_update: 0 [ms]
[OGL LOG][Proc: 0]p: update_local_matrix_data: 0.631 [ms]
[OGL LOG][Proc: 0]p: update_non_local_matrix_data: 0.021 [ms]
[OGL LOG][Proc: 0]p_matrix: call_update: 1.798 [ms]
[OGL LOG][Proc: 0]p_rhs: call_update: 0.219 [ms]
[OGL LOG][Preconditioner.H:121] Generate preconditioner BJ MaxBlockSize 1
[OGL LOG][Proc: 0]p: init_precond: 0.138 [ms]
[OGL LOG][StoppingCriterion.H:373] Creating stopping criterion with minIter 456 frequency 10
[OGL LOG][Proc: 0]p: generate_solver: 0.003 [ms]
[OGL LOG][Proc: 0]p: solve: 347.569 [ms]
[OGL LOG][Proc: 0]p: copy_x_back: 0.182 [ms]
[OGL LOG][lduLduBase.H:330] 
Statistics:
	Time per iteration: 456 [mu s]
	Time per residual norm calculation: 123.000000 [mu s]
	Time per iteration and DOF: 0.456000 [ns]
	Retrieve results bandwidth 2.747000 [GByte/s]
[OGL LOG][Proc: 0]p: solve_multi_gpu: 350.14 [ms]
BJhipGKOCG:  Solving for p, Initial residual = 0.580495, Final residual = 7.36747e-05, No Iterations 761
piso step 355.484 [ms]
 contErrors 
time step continuity errors : sum local = 1.64567e-08, global = 2.224e-21, cumulative = -4.92461e-21
ExecutionTime = 4.75 s  ClockTime = 4 s

Time = 0.002

Courant Number mean: 0.0388747 max: 0.452918
momentum setup 4.558 [ms]
DILUPBiCGStab:  Solving for Ux, Initial residual = 0.0319116, Final residual = 0.0001976, No Iterations 5
DILUPBiCGStab:  Solving for Uy, Initial residual = 0.0814137, Final residual = 0.000429158, No Iterations 5
DILUPBiCGStab:  Solving for Uz, Initial residual = 0.278798, Final residual = 0.00129889, No Iterations 5
piso setup 6.147 [ms]
 correctNonOrthogonal 
 setRef 
 startSolve 
[OGL LOG][Proc: 0]: global_index_init: 0.041 [ms]
[OGL LOG][Proc: 0]p_local_coeffs: call_update: 0 [ms]
[OGL LOG][Proc: 0]p_non_local_coeffs: call_update: 0 [ms]
[OGL LOG][Proc: 0]p: update_local_matrix_data: 0.768 [ms]
[OGL LOG][Proc: 0]p: update_non_local_matrix_data: 0.019 [ms]
[OGL LOG][Proc: 0]p_matrix: call_update: 2.123 [ms]
[OGL LOG][Proc: 0]p_rhs: call_update: 0.048 [ms]
[OGL LOG][Preconditioner.H:121] Generate preconditioner BJ MaxBlockSize 1
[OGL LOG][Proc: 0]p: init_precond: 0.144 [ms]
[OGL LOG][StoppingCriterion.H:373] Creating stopping criterion with minIter 456 frequency 10
[OGL LOG][Proc: 0]p: generate_solver: 0.002 [ms]
[OGL LOG][Proc: 0]p: solve: 395.996 [ms]
[OGL LOG][Proc: 0]p: copy_x_back: 0.179 [ms]
[OGL LOG][lduLduBase.H:330] 
Statistics:
	Time per iteration: 520 [mu s]
	Time per residual norm calculation: 121.000000 [mu s]
	Time per iteration and DOF: 0.520000 [ns]
	Retrieve results bandwidth 2.793000 [GByte/s]
[OGL LOG][Proc: 0]p: solve_multi_gpu: 398.704 [ms]
BJhipGKOCG:  Solving for p, Initial residual = 0.413246, Final residual = 5.68917e-05, No Iterations 761
piso step 402.892 [ms]
 contErrors 
time step continuity errors : sum local = 1.11413e-08, global = -7.20243e-21, cumulative = -1.2127e-20
piso setup 7.383 [ms]
 correctNonOrthogonal 
 setRef 
 startSolve 
[OGL LOG][Proc: 0]: global_index_init: 0.047 [ms]
[OGL LOG][Proc: 0]p_local_coeffs: call_update: 0 [ms]
[OGL LOG][Proc: 0]p_non_local_coeffs: call_update: 0 [ms]
[OGL LOG][Proc: 0]p: update_local_matrix_data: 0.657 [ms]
[OGL LOG][Proc: 0]p: update_non_local_matrix_data: 0.019 [ms]
[OGL LOG][Proc: 0]p_matrix: call_update: 1.638 [ms]
[OGL LOG][Proc: 0]p_rhs: call_update: 0.36 [ms]
[OGL LOG][Preconditioner.H:121] Generate preconditioner BJ MaxBlockSize 1
[OGL LOG][Proc: 0]p: init_precond: 0.19 [ms]
[OGL LOG][StoppingCriterion.H:373] Creating stopping criterion with minIter 456 frequency 8
[OGL LOG][Proc: 0]p: generate_solver: 0.003 [ms]
[OGL LOG][Proc: 0]p: solve: 357.495 [ms]
[OGL LOG][Proc: 0]p: copy_x_back: 0.288 [ms]
[OGL LOG][lduLduBase.H:330] 
Statistics:
	Time per iteration: 474 [mu s]
	Time per residual norm calculation: 122.000000 [mu s]
	Time per iteration and DOF: 0.474000 [ns]
	Retrieve results bandwidth 1.736000 [GByte/s]
[OGL LOG][Proc: 0]p: solve_multi_gpu: 360.693 [ms]
BJhipGKOCG:  Solving for p, Initial residual = 0.351333, Final residual = 9.25849e-05, No Iterations 753
piso step 365.678 [ms]
 contErrors 
time step continuity errors : sum local = 1.83111e-08, global = -1.75274e-21, cumulative = -1.38798e-20
ExecutionTime = 5.58 s  ClockTime = 5 s

Time = 0.0025

Courant Number mean: 0.0439263 max: 0.459604
momentum setup 5.319 [ms]
DILUPBiCGStab:  Solving for Ux, Initial residual = 0.0235188, Final residual = 0.000127016, No Iterations 5
DILUPBiCGStab:  Solving for Uy, Initial residual = 0.0515595, Final residual = 0.00025919, No Iterations 5
DILUPBiCGStab:  Solving for Uz, Initial residual = 0.100021, Final residual = 0.000510447, No Iterations 5
piso setup 6.238 [ms]
 correctNonOrthogonal 
 setRef 
 startSolve 
[OGL LOG][Proc: 0]: global_index_init: 0.048 [ms]
[OGL LOG][Proc: 0]p_local_coeffs: call_update: 0 [ms]
[OGL LOG][Proc: 0]p_non_local_coeffs: call_update: 0 [ms]
[OGL LOG][Proc: 0]p: update_local_matrix_data: 1.04 [ms]
[OGL LOG][Proc: 0]p: update_non_local_matrix_data: 0.031 [ms]
[OGL LOG][Proc: 0]p_matrix: call_update: 2.265 [ms]
[OGL LOG][Proc: 0]p_rhs: call_update: 0.05 [ms]
[OGL LOG][Preconditioner.H:121] Generate preconditioner BJ MaxBlockSize 1
[OGL LOG][Proc: 0]p: init_precond: 0.146 [ms]
[OGL LOG][StoppingCriterion.H:373] Creating stopping criterion with minIter 451 frequency 10
[OGL LOG][Proc: 0]p: generate_solver: 0.002 [ms]
[OGL LOG][Proc: 0]p: solve: 324.091 [ms]
[OGL LOG][Proc: 0]p: copy_x_back: 0.181 [ms]
[OGL LOG][lduLduBase.H:330] 
Statistics:
	Time per iteration: 449 [mu s]
	Time per residual norm calculation: 122.000000 [mu s]
	Time per iteration and DOF: 0.449000 [ns]
	Retrieve results bandwidth 2.762000 [GByte/s]
[OGL LOG][Proc: 0]p: solve_multi_gpu: 327.063 [ms]
BJhipGKOCG:  Solving for p, Initial residual = 0.315402, Final residual = 8.27978e-05, No Iterations 721
piso step 331.461 [ms]
 contErrors 
time step continuity errors : sum local = 1.33827e-08, global = 2.18696e-21, cumulative = -1.16928e-20
piso setup 6.077 [ms]
 correctNonOrthogonal 
 setRef 
 startSolve 
[OGL LOG][Proc: 0]: global_index_init: 0.04 [ms]
[OGL LOG][Proc: 0]p_local_coeffs: call_update: 0 [ms]
[OGL LOG][Proc: 0]p_non_local_coeffs: call_update: 0 [ms]
[OGL LOG][Proc: 0]p: update_local_matrix_data: 0.654 [ms]
[OGL LOG][Proc: 0]p: update_non_local_matrix_data: 0.019 [ms]
[OGL LOG][Proc: 0]p_matrix: call_update: 1.82 [ms]
[OGL LOG][Proc: 0]p_rhs: call_update: 0.206 [ms]
[OGL LOG][Preconditioner.H:121] Generate preconditioner BJ MaxBlockSize 1
[OGL LOG][Proc: 0]p: init_precond: 0.136 [ms]
[OGL LOG][StoppingCriterion.H:373] Creating stopping criterion with minIter 432 frequency 9
[OGL LOG][Proc: 0]p: generate_solver: 0.002 [ms]
[OGL LOG][Proc: 0]p: solve: 324.734 [ms]
[OGL LOG][Proc: 0]p: copy_x_back: 0.184 [ms]
[OGL LOG][lduLduBase.H:330] 
Statistics:
	Time per iteration: 456 [mu s]
	Time per residual norm calculation: 120.000000 [mu s]
	Time per iteration and DOF: 0.456000 [ns]
	Retrieve results bandwidth 2.717000 [GByte/s]
[OGL LOG][Proc: 0]p: solve_multi_gpu: 327.304 [ms]
BJhipGKOCG:  Solving for p, Initial residual = 0.269831, Final residual = 9.50741e-05, No Iterations 712
piso step 331.821 [ms]
 contErrors 
time step continuity errors : sum local = 1.52525e-08, global = -4.89441e-21, cumulative = -1.65872e-20
ExecutionTime = 6.32 s  ClockTime = 6 s

Time = 0.003

Courant Number mean: 0.0479663 max: 0.463843
momentum setup 4.676 [ms]
DILUPBiCGStab:  Solving for Ux, Initial residual = 0.0178993, Final residual = 9.39218e-05, No Iterations 5
DILUPBiCGStab:  Solving for Uy, Initial residual = 0.040156, Final residual = 0.000138743, No Iterations 5
DILUPBiCGStab:  Solving for Uz, Initial residual = 0.0867504, Final residual = 0.000417685, No Iterations 5
piso setup 6.999 [ms]
 correctNonOrthogonal 
 setRef 
 startSolve 
[OGL LOG][Proc: 0]: global_index_init: 0.07 [ms]
[OGL LOG][Proc: 0]p_local_coeffs: call_update: 0 [ms]
[OGL LOG][Proc: 0]p_non_local_coeffs: call_update: 0 [ms]
[OGL LOG][Proc: 0]p: update_local_matrix_data: 0.96 [ms]
[OGL LOG][Proc: 0]p: update_non_local_matrix_data: 0.021 [ms]
[OGL LOG][Proc: 0]p_matrix: call_update: 1.995 [ms]
[OGL LOG][Proc: 0]p_rhs: call_update: 0.04 [ms]
[OGL LOG][Preconditioner.H:121] Generate preconditioner BJ MaxBlockSize 1
[OGL LOG][Proc: 0]p: init_precond: 0.146 [ms]
[OGL LOG][StoppingCriterion.H:373] Creating stopping criterion with minIter 427 frequency 9
[OGL LOG][Proc: 0]p: generate_solver: 0.003 [ms]
[OGL LOG][Proc: 0]p: solve: 320.463 [ms]
[OGL LOG][Proc: 0]p: copy_x_back: 0.182 [ms]
[OGL LOG][lduLduBase.H:330] 
Statistics:
	Time per iteration: 450 [mu s]
	Time per residual norm calculation: 125.000000 [mu s]
	Time per iteration and DOF: 0.450000 [ns]
	Retrieve results bandwidth 2.747000 [GByte/s]
[OGL LOG][Proc: 0]p: solve_multi_gpu: 323.148 [ms]
BJhipGKOCG:  Solving for p, Initial residual = 0.197207, Final residual = 9.65896e-05, No Iterations 712
piso step 327.457 [ms]
 contErrors 
time step continuity errors : sum local = 1.5068e-08, global = -9.69727e-21, cumulative = -2.62845e-20
piso setup 6.151 [ms]
 correctNonOrthogonal 
 setRef 
 startSolve 
[OGL LOG][Proc: 0]: global_index_init: 0.045 [ms]
[OGL LOG][Proc: 0]p_local_coeffs: call_update: 0 [ms]
[OGL LOG][Proc: 0]p_non_local_coeffs: call_update: 0 [ms]
[OGL LOG][Proc: 0]p: update_local_matrix_data: 0.63 [ms]
[OGL LOG][Proc: 0]p: update_non_local_matrix_data: 0.02 [ms]
[OGL LOG][Proc: 0]p_matrix: call_update: 1.815 [ms]
[OGL LOG][Proc: 0]p_rhs: call_update: 0.215 [ms]
[OGL LOG][Preconditioner.H:121] Generate preconditioner BJ MaxBlockSize 1
[OGL LOG][Proc: 0]p: init_precond: 0.139 [ms]
[OGL LOG][StoppingCriterion.H:373] Creating stopping criterion with minIter 427 frequency 9
[OGL LOG][Proc: 0]p: generate_solver: 0.003 [ms]
[OGL LOG][Proc: 0]p: solve: 326.619 [ms]
[OGL LOG][Proc: 0]p: copy_x_back: 0.183 [ms]
[OGL LOG][lduLduBase.H:330] 
Statistics:
	Time per iteration: 458 [mu s]
	Time per residual norm calculation: 120.000000 [mu s]
	Time per iteration and DOF: 0.458000 [ns]
	Retrieve results bandwidth 2.732000 [GByte/s]
[OGL LOG][Proc: 0]p: solve_multi_gpu: 329.18 [ms]
BJhipGKOCG:  Solving for p, Initial residual = 0.163961, Final residual = 8.84552e-05, No Iterations 712
piso step 333.325 [ms]
 contErrors 
time step continuity errors : sum local = 1.38119e-08, global = -1.97911e-21, cumulative = -2.82636e-20
ExecutionTime = 7.06 s  ClockTime = 7 s

Time = 0.0035

Courant Number mean: 0.0513755 max: 0.466723
momentum setup 4.269 [ms]
DILUPBiCGStab:  Solving for Ux, Initial residual = 0.0146425, Final residual = 6.72262e-05, No Iterations 5
DILUPBiCGStab:  Solving for Uy, Initial residual = 0.0317844, Final residual = 0.000119673, No Iterations 5
DILUPBiCGStab:  Solving for Uz, Initial residual = 0.0572517, Final residual = 0.000252853, No Iterations 5
piso setup 6.272 [ms]
 correctNonOrthogonal 
 setRef 
 startSolve 
[OGL LOG][Proc: 0]: global_index_init: 0.039 [ms]
[OGL LOG][Proc: 0]p_local_coeffs: call_update: 0 [ms]
[OGL LOG][Proc: 0]p_non_local_coeffs: call_update: 0 [ms]
[OGL LOG][Proc: 0]p: update_local_matrix_data: 0.579 [ms]
[OGL LOG][Proc: 0]p: update_non_local_matrix_data: 0.02 [ms]
[OGL LOG][Proc: 0]p_matrix: call_update: 1.688 [ms]
[OGL LOG][Proc: 0]p_rhs: call_update: 0.379 [ms]
[OGL LOG][Preconditioner.H:121] Generate preconditioner BJ MaxBlockSize 1
[OGL LOG][Proc: 0]p: init_precond: 0.157 [ms]
[OGL LOG][StoppingCriterion.H:373] Creating stopping criterion with minIter 427 frequency 9
[OGL LOG][Proc: 0]p: generate_solver: 0.003 [ms]
[OGL LOG][Proc: 0]p: solve: 198.611 [ms]
[OGL LOG][Proc: 0]p: copy_x_back: 0.18 [ms]
[OGL LOG][lduLduBase.H:330] 
Statistics:
	Time per iteration: 440 [mu s]
	Time per residual norm calculation: 118.000000 [mu s]
	Time per iteration and DOF: 0.440000 [ns]
	Retrieve results bandwidth 2.777000 [GByte/s]
[OGL LOG][Proc: 0]p: solve_multi_gpu: 201.573 [ms]
BJhipGKOCG:  Solving for p, Initial residual = 0.13953, Final residual = 9.75116e-05, No Iterations 451
piso step 205.337 [ms]
 contErrors 
time step continuity errors : sum local = 1.57435e-08, global = 4.52013e-21, cumulative = -2.37435e-20
piso setup 6.348 [ms]
 correctNonOrthogonal 
 setRef 
 startSolve 
[OGL LOG][Proc: 0]: global_index_init: 0.055 [ms]
[OGL LOG][Proc: 0]p_local_coeffs: call_update: 0 [ms]
[OGL LOG][Proc: 0]p_non_local_coeffs: call_update: 0 [ms]
[OGL LOG][Proc: 0]p: update_local_matrix_data: 0.64 [ms]
[OGL LOG][Proc: 0]p: update_non_local_matrix_data: 0.02 [ms]
[OGL LOG][Proc: 0]p_matrix: call_update: 1.845 [ms]
[OGL LOG][Proc: 0]p_rhs: call_update: 0.192 [ms]
[OGL LOG][Preconditioner.H:121] Generate preconditioner BJ MaxBlockSize 1
[OGL LOG][Proc: 0]p: init_precond: 0.138 [ms]
[OGL LOG][StoppingCriterion.H:373] Creating stopping criterion with minIter 270 frequency 7
[OGL LOG][Proc: 0]p: generate_solver: 0.002 [ms]
[OGL LOG][Proc: 0]p: solve: 154.23 [ms]
[OGL LOG][Proc: 0]p: copy_x_back: 0.232 [ms]
[OGL LOG][lduLduBase.H:330] 
Statistics:
	Time per iteration: 467 [mu s]
	Time per residual norm calculation: 123.000000 [mu s]
	Time per iteration and DOF: 0.467000 [ns]
	Retrieve results bandwidth 2.155000 [GByte/s]
[OGL LOG][Proc: 0]p: solve_multi_gpu: 156.852 [ms]
BJhipGKOCG:  Solving for p, Initial residual = 0.116648, Final residual = 9.18282e-05, No Iterations 330
piso step 161.75 [ms]
 contErrors 
time step continuity errors : sum local = 1.39805e-08, global = -5.94888e-21, cumulative = -2.96924e-20
ExecutionTime = 7.51 s  ClockTime = 7 s

Time = 0.004

Courant Number mean: 0.0543148 max: 0.468931
momentum setup 5.303 [ms]
DILUPBiCGStab:  Solving for Ux, Initial residual = 0.012283, Final residual = 5.12857e-05, No Iterations 5
DILUPBiCGStab:  Solving for Uy, Initial residual = 0.0265446, Final residual = 7.80295e-05, No Iterations 5
DILUPBiCGStab:  Solving for Uz, Initial residual = 0.0519299, Final residual = 0.000177039, No Iterations 5
piso setup 6.392 [ms]
 correctNonOrthogonal 
 setRef 
 startSolve 
[OGL LOG][Proc: 0]: global_index_init: 0.029 [ms]
[OGL LOG][Proc: 0]p_local_coeffs: call_update: 0 [ms]
[OGL LOG][Proc: 0]p_non_local_coeffs: call_update: 0 [ms]
[OGL LOG][Proc: 0]p: update_local_matrix_data: 1.055 [ms]
[OGL LOG][Proc: 0]p: update_non_local_matrix_data: 0.031 [ms]
[OGL LOG][Proc: 0]p_matrix: call_update: 2.135 [ms]
[OGL LOG][Proc: 0]p_rhs: call_update: 0.047 [ms]
[OGL LOG][Preconditioner.H:121] Generate preconditioner BJ MaxBlockSize 1
[OGL LOG][Proc: 0]p: init_precond: 0.144 [ms]
[OGL LOG][StoppingCriterion.H:373] Creating stopping criterion with minIter 198 frequency 6
[OGL LOG][Proc: 0]p: generate_solver: 0.003 [ms]
[OGL LOG][Proc: 0]p: solve: 155.106 [ms]
[OGL LOG][Proc: 0]p: copy_x_back: 0.184 [ms]
[OGL LOG][lduLduBase.H:330] 
Statistics:
	Time per iteration: 477 [mu s]
	Time per residual norm calculation: 120.000000 [mu s]
	Time per iteration and DOF: 0.477000 [ns]
	Retrieve results bandwidth 2.717000 [GByte/s]
[OGL LOG][Proc: 0]p: solve_multi_gpu: 157.819 [ms]
BJhipGKOCG:  Solving for p, Initial residual = 0.0907879, Final residual = 8.55529e-05, No Iterations 325
piso step 162.125 [ms]
 contErrors 
time step continuity errors : sum local = 1.24534e-08, global = -2.68508e-21, cumulative = -3.23775e-20
piso setup 10.737 [ms]
 correctNonOrthogonal 
 setRef 
 startSolve 
[OGL LOG][Proc: 0]: global_index_init: 1.33 [ms]
[OGL LOG][Proc: 0]p_local_coeffs: call_update: 0 [ms]
[OGL LOG][Proc: 0]p_non_local_coeffs: call_update: 0 [ms]
[OGL LOG][Proc: 0]p: update_local_matrix_data: 0.546 [ms]
[OGL LOG][Proc: 0]p: update_non_local_matrix_data: 0.021 [ms]
[OGL LOG][Proc: 0]p_matrix: call_update: 2.166 [ms]
[OGL LOG][Proc: 0]p_rhs: call_update: 1.285 [ms]
[OGL LOG][Preconditioner.H:121] Generate preconditioner BJ MaxBlockSize 1
[OGL LOG][Proc: 0]p: init_precond: 0.147 [ms]
[OGL LOG][StoppingCriterion.H:373] Creating stopping criterion with minIter 195 frequency 6
[OGL LOG][Proc: 0]p: generate_solver: 0.002 [ms]
[OGL LOG][Proc: 0]p: solve: 168.801 [ms]
[OGL LOG][Proc: 0]p: copy_x_back: 0.181 [ms]
[OGL LOG][lduLduBase.H:330] 
Statistics:
	Time per iteration: 529 [mu s]
	Time per residual norm calculation: 119.000000 [mu s]
	Time per iteration and DOF: 0.529000 [ns]
	Retrieve results bandwidth 2.762000 [GByte/s]
[OGL LOG][Proc: 0]p: solve_multi_gpu: 173.422 [ms]
BJhipGKOCG:  Solving for p, Initial residual = 0.0750857, Final residual = 9.31687e-05, No Iterations 319
piso step 178.976 [ms]
 contErrors 
time step continuity errors : sum local = 1.35542e-08, global = 4.6896e-22, cumulative = -3.19085e-20
ExecutionTime = 7.93 s  ClockTime = 8 s

Time = 0.0045

Courant Number mean: 0.0568923 max: 0.470635
momentum setup 4.264 [ms]
DILUPBiCGStab:  Solving for Ux, Initial residual = 0.0105347, Final residual = 3.97964e-05, No Iterations 5
DILUPBiCGStab:  Solving for Uy, Initial residual = 0.0226906, Final residual = 6.80724e-05, No Iterations 5
DILUPBiCGStab:  Solving for Uz, Initial residual = 0.0433941, Final residual = 0.000129128, No Iterations 5
piso setup 6.336 [ms]
 correctNonOrthogonal 
 setRef 
 startSolve 
[OGL LOG][Proc: 0]: global_index_init: 0.04 [ms]
[OGL LOG][Proc: 0]p_local_coeffs: call_update: 0 [ms]
[OGL LOG][Proc: 0]p_non_local_coeffs: call_update: 0 [ms]
[OGL LOG][Proc: 0]p: update_local_matrix_data: 0.606 [ms]
[OGL LOG][Proc: 0]p: update_non_local_matrix_data: 0.02 [ms]
[OGL LOG][Proc: 0]p_matrix: call_update: 1.717 [ms]
[OGL LOG][Proc: 0]p_rhs: call_update: 0.611 [ms]
[OGL LOG][Preconditioner.H:121] Generate preconditioner BJ MaxBlockSize 1
[OGL LOG][Proc: 0]p: init_precond: 0.145 [ms]
[OGL LOG][StoppingCriterion.H:373] Creating stopping criterion with minIter 191 frequency 5
[OGL LOG][Proc: 0]p: generate_solver: 0.002 [ms]
[OGL LOG][Proc: 0]p: solve: 145.152 [ms]
[OGL LOG][Proc: 0]p: copy_x_back: 0.18 [ms]
[OGL LOG][lduLduBase.H:330] 
Statistics:
	Time per iteration: 452 [mu s]
	Time per residual norm calculation: 121.000000 [mu s]
	Time per iteration and DOF: 0.452000 [ns]
	Retrieve results bandwidth 2.777000 [GByte/s]
[OGL LOG][Proc: 0]p: solve_multi_gpu: 148.595 [ms]
BJhipGKOCG:  Solving for p, Initial residual = 0.0666801, Final residual = 9.94694e-05, No Iterations 321
piso step 152.444 [ms]
 contErrors 
time step continuity errors : sum local = 1.59131e-08, global = -6.57826e-21, cumulative = -3.84867e-20
piso setup 6.06 [ms]
 correctNonOrthogonal 
 setRef 
 startSolve 
[OGL LOG][Proc: 0]: global_index_init: 0.04 [ms]
[OGL LOG][Proc: 0]p_local_coeffs: call_update: 0 [ms]
[OGL LOG][Proc: 0]p_non_local_coeffs: call_update: 0 [ms]
[OGL LOG][Proc: 0]p: update_local_matrix_data: 0.663 [ms]
[OGL LOG][Proc: 0]p: update_non_local_matrix_data: 0.021 [ms]
[OGL LOG][Proc: 0]p_matrix: call_update: 1.836 [ms]
[OGL LOG][Proc: 0]p_rhs: call_update: 0.168 [ms]
[OGL LOG][Preconditioner.H:121] Generate preconditioner BJ MaxBlockSize 1
[OGL LOG][Proc: 0]p: init_precond: 0.138 [ms]
[OGL LOG][StoppingCriterion.H:373] Creating stopping criterion with minIter 192 frequency 6
[OGL LOG][Proc: 0]p: generate_solver: 0.002 [ms]
[OGL LOG][Proc: 0]p: solve: 157.157 [ms]
[OGL LOG][Proc: 0]p: copy_x_back: 0.18 [ms]
[OGL LOG][lduLduBase.H:330] 
Statistics:
	Time per iteration: 492 [mu s]
	Time per residual norm calculation: 121.000000 [mu s]
	Time per iteration and DOF: 0.492000 [ns]
	Retrieve results bandwidth 2.777000 [GByte/s]
[OGL LOG][Proc: 0]p: solve_multi_gpu: 159.696 [ms]
BJhipGKOCG:  Solving for p, Initial residual = 0.0556188, Final residual = 8.23096e-05, No Iterations 319
piso step 163.906 [ms]
 contErrors 
time step continuity errors : sum local = 1.2358e-08, global = -1.975e-21, cumulative = -4.04617e-20
ExecutionTime = 8.32 s  ClockTime = 8 s

Time = 0.005

Courant Number mean: 0.059188 max: 0.47203
momentum setup 4.24 [ms]
DILUPBiCGStab:  Solving for Ux, Initial residual = 0.00921626, Final residual = 3.32175e-05, No Iterations 5
DILUPBiCGStab:  Solving for Uy, Initial residual = 0.0197569, Final residual = 5.13603e-05, No Iterations 5
DILUPBiCGStab:  Solving for Uz, Initial residual = 0.0385993, Final residual = 0.000104553, No Iterations 5
piso setup 6.23 [ms]
 correctNonOrthogonal 
 setRef 
 startSolve 
[OGL LOG][Proc: 0]: global_index_init: 0.037 [ms]
[OGL LOG][Proc: 0]p_local_coeffs: call_update: 0 [ms]
[OGL LOG][Proc: 0]p_non_local_coeffs: call_update: 0 [ms]
[OGL LOG][Proc: 0]p: update_local_matrix_data: 0.59 [ms]
[OGL LOG][Proc: 0]p: update_non_local_matrix_data: 0.018 [ms]
[OGL LOG][Proc: 0]p_matrix: call_update: 1.753 [ms]
[OGL LOG][Proc: 0]p_rhs: call_update: 0.487 [ms]
[OGL LOG][Preconditioner.H:121] Generate preconditioner BJ MaxBlockSize 1
[OGL LOG][Proc: 0]p: init_precond: 0.14 [ms]
[OGL LOG][StoppingCriterion.H:373] Creating stopping criterion with minIter 191 frequency 5
[OGL LOG][Proc: 0]p: generate_solver: 0.002 [ms]
[OGL LOG][Proc: 0]p: solve: 143.585 [ms]
[OGL LOG][Proc: 0]p: copy_x_back: 0.181 [ms]
[OGL LOG][lduLduBase.H:330] 
Statistics:
	Time per iteration: 454 [mu s]
	Time per residual norm calculation: 118.000000 [mu s]
	Time per iteration and DOF: 0.454000 [ns]
	Retrieve results bandwidth 2.762000 [GByte/s]
[OGL LOG][Proc: 0]p: solve_multi_gpu: 146.912 [ms]
BJhipGKOCG:  Solving for p, Initial residual = 0.0445883, Final residual = 9.96476e-05, No Iterations 316
piso step 150.717 [ms]
 contErrors 
time step continuity errors : sum local = 1.4802e-08, global = -8.3235e-22, cumulative = -4.12941e-20
piso setup 6.099 [ms]
 correctNonOrthogonal 
 setRef 
 startSolve 
[OGL LOG][Proc: 0]: global_index_init: 0.044 [ms]
[OGL LOG][Proc: 0]p_local_coeffs: call_update: 0 [ms]
[OGL LOG][Proc: 0]p_non_local_coeffs: call_update: 0 [ms]
[OGL LOG][Proc: 0]p: update_local_matrix_data: 0.644 [ms]
[OGL LOG][Proc: 0]p: update_non_local_matrix_data: 0.019 [ms]
[OGL LOG][Proc: 0]p_matrix: call_update: 1.831 [ms]
[OGL LOG][Proc: 0]p_rhs: call_update: 0.196 [ms]
[OGL LOG][Preconditioner.H:121] Generate preconditioner BJ MaxBlockSize 1
[OGL LOG][Proc: 0]p: init_precond: 0.155 [ms]
[OGL LOG][StoppingCriterion.H:373] Creating stopping criterion with minIter 189 frequency 6
[OGL LOG][Proc: 0]p: generate_solver: 0.004 [ms]
[OGL LOG][Proc: 0]p: solve: 146.363 [ms]
[OGL LOG][Proc: 0]p: copy_x_back: 0.183 [ms]
[OGL LOG][lduLduBase.H:330] 
Statistics:
	Time per iteration: 467 [mu s]
	Time per residual norm calculation: 122.000000 [mu s]
	Time per iteration and DOF: 0.467000 [ns]
	Retrieve results bandwidth 2.732000 [GByte/s]
[OGL LOG][Proc: 0]p: solve_multi_gpu: 148.964 [ms]
BJhipGKOCG:  Solving for p, Initial residual = 0.0376431, Final residual = 9.72604e-05, No Iterations 313
piso step 153.468 [ms]
 contErrors 
time step continuity errors : sum local = 1.38428e-08, global = 6.98704e-21, cumulative = -3.43071e-20
ExecutionTime = 8.7 s  ClockTime = 8 s

Time = 0.0055

Courant Number mean: 0.061248 max: 0.473178
momentum setup 4.546 [ms]
DILUPBiCGStab:  Solving for Ux, Initial residual = 0.00814508, Final residual = 2.76012e-05, No Iterations 5
DILUPBiCGStab:  Solving for Uy, Initial residual = 0.0174605, Final residual = 4.57725e-05, No Iterations 5
DILUPBiCGStab:  Solving for Uz, Initial residual = 0.0347124, Final residual = 8.86789e-05, No Iterations 5
piso setup 7.252 [ms]
 correctNonOrthogonal 
 setRef 
 startSolve 
[OGL LOG][Proc: 0]: global_index_init: 0.041 [ms]
[OGL LOG][Proc: 0]p_local_coeffs: call_update: 0 [ms]
[OGL LOG][Proc: 0]p_non_local_coeffs: call_update: 0 [ms]
[OGL LOG][Proc: 0]p: update_local_matrix_data: 0.782 [ms]
[OGL LOG][Proc: 0]p: update_non_local_matrix_data: 0.022 [ms]
[OGL LOG][Proc: 0]p_matrix: call_update: 2.116 [ms]
[OGL LOG][Proc: 0]p_rhs: call_update: 0.046 [ms]
[OGL LOG][Preconditioner.H:121] Generate preconditioner BJ MaxBlockSize 1
[OGL LOG][Proc: 0]p: init_precond: 0.155 [ms]
[OGL LOG][StoppingCriterion.H:373] Creating stopping criterion with minIter 187 frequency 6
[OGL LOG][Proc: 0]p: generate_solver: 0.002 [ms]
[OGL LOG][Proc: 0]p: solve: 151.822 [ms]
[OGL LOG][Proc: 0]p: copy_x_back: 0.188 [ms]
[OGL LOG][lduLduBase.H:330] 
Statistics:
	Time per iteration: 450 [mu s]
	Time per residual norm calculation: 119.000000 [mu s]
	Time per iteration and DOF: 0.450000 [ns]
	Retrieve results bandwidth 2.659000 [GByte/s]
[OGL LOG][Proc: 0]p: solve_multi_gpu: 154.543 [ms]
BJhipGKOCG:  Solving for p, Initial residual = 0.0349965, Final residual = 9.89275e-05, No Iterations 337
piso step 158.587 [ms]
 contErrors 
time step continuity errors : sum local = 1.63491e-08, global = -1.33751e-20, cumulative = -4.76822e-20
piso setup 6.151 [ms]
 correctNonOrthogonal 
 setRef 
 startSolve 
[OGL LOG][Proc: 0]: global_index_init: 0.04 [ms]
[OGL LOG][Proc: 0]p_local_coeffs: call_update: 0 [ms]
[OGL LOG][Proc: 0]p_non_local_coeffs: call_update: 0 [ms]
[OGL LOG][Proc: 0]p: update_local_matrix_data: 0.669 [ms]
[OGL LOG][Proc: 0]p: update_non_local_matrix_data: 0.021 [ms]
[OGL LOG][Proc: 0]p_matrix: call_update: 1.862 [ms]
[OGL LOG][Proc: 0]p_rhs: call_update: 0.179 [ms]
[OGL LOG][Preconditioner.H:121] Generate preconditioner BJ MaxBlockSize 1
[OGL LOG][Proc: 0]p: init_precond: 0.143 [ms]
[OGL LOG][StoppingCriterion.H:373] Creating stopping criterion with minIter 202 frequency 6
[OGL LOG][Proc: 0]p: generate_solver: 0.002 [ms]
[OGL LOG][Proc: 0]p: solve: 172.09 [ms]
[OGL LOG][Proc: 0]p: copy_x_back: 0.181 [ms]
[OGL LOG][lduLduBase.H:330] 
Statistics:
	Time per iteration: 549 [mu s]
	Time per residual norm calculation: 120.000000 [mu s]
	Time per iteration and DOF: 0.549000 [ns]
	Retrieve results bandwidth 2.762000 [GByte/s]
[OGL LOG][Proc: 0]p: solve_multi_gpu: 174.664 [ms]
BJhipGKOCG:  Solving for p, Initial residual = 0.0297366, Final residual = 9.61862e-05, No Iterations 313
piso step 178.925 [ms]
 contErrors 
time step continuity errors : sum local = 1.4417e-08, global = 4.45282e-21, cumulative = -4.32293e-20
ExecutionTime = 9.11 s  ClockTime = 9 s

Time = 0.006

Courant Number mean: 0.06312 max: 0.474157
momentum setup 4.564 [ms]
DILUPBiCGStab:  Solving for Ux, Initial residual = 0.00728556, Final residual = 2.41104e-05, No Iterations 5
DILUPBiCGStab:  Solving for Uy, Initial residual = 0.0156073, Final residual = 3.9388e-05, No Iterations 5
DILUPBiCGStab:  Solving for Uz, Initial residual = 0.0313488, Final residual = 8.4951e-05, No Iterations 5
piso setup 6.261 [ms]
 correctNonOrthogonal 
 setRef 
 startSolve 
[OGL LOG][Proc: 0]: global_index_init: 0.072 [ms]
[OGL LOG][Proc: 0]p_local_coeffs: call_update: 0 [ms]
[OGL LOG][Proc: 0]p_non_local_coeffs: call_update: 0 [ms]
[OGL LOG][Proc: 0]p: update_local_matrix_data: 0.627 [ms]
[OGL LOG][Proc: 0]p: update_non_local_matrix_data: 0.02 [ms]
[OGL LOG][Proc: 0]p_matrix: call_update: 1.54 [ms]
[OGL LOG][Proc: 0]p_rhs: call_update: 0.48 [ms]
[OGL LOG][Preconditioner.H:121] Generate preconditioner BJ MaxBlockSize 1
[OGL LOG][Proc: 0]p: init_precond: 0.139 [ms]
[OGL LOG][StoppingCriterion.H:373] Creating stopping criterion with minIter 187 frequency 5
[OGL LOG][Proc: 0]p: generate_solver: 0.002 [ms]
[OGL LOG][Proc: 0]p: solve: 147.296 [ms]
[OGL LOG][Proc: 0]p: copy_x_back: 0.181 [ms]
[OGL LOG][lduLduBase.H:330] 
Statistics:
	Time per iteration: 458 [mu s]
	Time per residual norm calculation: 119.000000 [mu s]
	Time per iteration and DOF: 0.458000 [ns]
	Retrieve results bandwidth 2.762000 [GByte/s]
[OGL LOG][Proc: 0]p: solve_multi_gpu: 150.393 [ms]
BJhipGKOCG:  Solving for p, Initial residual = 0.0251353, Final residual = 9.63168e-05, No Iterations 321
piso step 154.431 [ms]
 contErrors 
time step continuity errors : sum local = 1.52728e-08, global = -8.3752e-23, cumulative = -4.33131e-20
piso setup 6.168 [ms]
 correctNonOrthogonal 
 setRef 
 startSolve 
[OGL LOG][Proc: 0]: global_index_init: 0.043 [ms]
[OGL LOG][Proc: 0]p_local_coeffs: call_update: 0 [ms]
[OGL LOG][Proc: 0]p_non_local_coeffs: call_update: 0 [ms]
[OGL LOG][Proc: 0]p: update_local_matrix_data: 0.627 [ms]
[OGL LOG][Proc: 0]p: update_non_local_matrix_data: 0.019 [ms]
[OGL LOG][Proc: 0]p_matrix: call_update: 1.838 [ms]
[OGL LOG][Proc: 0]p_rhs: call_update: 0.186 [ms]
[OGL LOG][Preconditioner.H:121] Generate preconditioner BJ MaxBlockSize 1
[OGL LOG][Proc: 0]p: init_precond: 0.14 [ms]
[OGL LOG][StoppingCriterion.H:373] Creating stopping criterion with minIter 192 frequency 6
[OGL LOG][Proc: 0]p: generate_solver: 0.002 [ms]
[OGL LOG][Proc: 0]p: solve: 141.949 [ms]
[OGL LOG][Proc: 0]p: copy_x_back: 0.182 [ms]
[OGL LOG][lduLduBase.H:330] 
Statistics:
	Time per iteration: 453 [mu s]
	Time per residual norm calculation: 124.000000 [mu s]
	Time per iteration and DOF: 0.453000 [ns]
	Retrieve results bandwidth 2.747000 [GByte/s]
[OGL LOG][Proc: 0]p: solve_multi_gpu: 144.5 [ms]
BJhipGKOCG:  Solving for p, Initial residual = 0.0219442, Final residual = 9.07414e-05, No Iterations 313
piso step 148.677 [ms]
 contErrors 
time step continuity errors : sum local = 1.30688e-08, global = 6.32173e-21, cumulative = -3.69914e-20
ExecutionTime = 9.5 s  ClockTime = 9 s

Time = 0.0065

Courant Number mean: 0.0648242 max: 0.474993
momentum setup 4.234 [ms]
DILUPBiCGStab:  Solving for Ux, Initial residual = 0.00656995, Final residual = 2.09508e-05, No Iterations 5
DILUPBiCGStab:  Solving for Uy, Initial residual = 0.0140609, Final residual = 3.5594e-05, No Iterations 5
DILUPBiCGStab:  Solving for Uz, Initial residual = 0.0290229, Final residual = 8.11347e-05, No Iterations 5
piso setup 6.279 [ms]
 correctNonOrthogonal 
 setRef 
 startSolve 
[OGL LOG][Proc: 0]: global_index_init: 0.039 [ms]
[OGL LOG][Proc: 0]p_local_coeffs: call_update: 0 [ms]
[OGL LOG][Proc: 0]p_non_local_coeffs: call_update: 0 [ms]
[OGL LOG][Proc: 0]p: update_local_matrix_data: 0.609 [ms]
[OGL LOG][Proc: 0]p: update_non_local_matrix_data: 0.019 [ms]
[OGL LOG][Proc: 0]p_matrix: call_update: 1.798 [ms]
[OGL LOG][Proc: 0]p_rhs: call_update: 0.19 [ms]
[OGL LOG][Preconditioner.H:121] Generate preconditioner BJ MaxBlockSize 1
[OGL LOG][Proc: 0]p: init_precond: 0.13 [ms]
[OGL LOG][StoppingCriterion.H:373] Creating stopping criterion with minIter 187 frequency 6
[OGL LOG][Proc: 0]p: generate_solver: 0.002 [ms]
[OGL LOG][Proc: 0]p: solve: 314.263 [ms]
[OGL LOG][Proc: 0]p: copy_x_back: 0.193 [ms]
[OGL LOG][lduLduBase.H:330] 
Statistics:
	Time per iteration: 454 [mu s]
	Time per residual norm calculation: 117.000000 [mu s]
	Time per iteration and DOF: 0.454000 [ns]
	Retrieve results bandwidth 2.590000 [GByte/s]
[OGL LOG][Proc: 0]p: solve_multi_gpu: 316.782 [ms]
BJhipGKOCG:  Solving for p, Initial residual = 0.0209209, Final residual = 8.39771e-05, No Iterations 691
piso step 320.714 [ms]
 contErrors 
time step continuity errors : sum local = 1.17573e-08, global = -1.58326e-21, cumulative = -3.85746e-20
piso setup 6.07 [ms]
 correctNonOrthogonal 
 setRef 
 startSolve 
[OGL LOG][Proc: 0]: global_index_init: 0.048 [ms]
[OGL LOG][Proc: 0]p_local_coeffs: call_update: 0 [ms]
[OGL LOG][Proc: 0]p_non_local_coeffs: call_update: 0 [ms]
[OGL LOG][Proc: 0]p: update_local_matrix_data: 0.657 [ms]
[OGL LOG][Proc: 0]p: update_non_local_matrix_data: 0.02 [ms]
[OGL LOG][Proc: 0]p_matrix: call_update: 1.857 [ms]
[OGL LOG][Proc: 0]p_rhs: call_update: 0.215 [ms]
[OGL LOG][Preconditioner.H:121] Generate preconditioner BJ MaxBlockSize 1
[OGL LOG][Proc: 0]p: init_precond: 0.142 [ms]
[OGL LOG][StoppingCriterion.H:373] Creating stopping criterion with minIter 414 frequency 9
[OGL LOG][Proc: 0]p: generate_solver: 0.003 [ms]
[OGL LOG][Proc: 0]p: solve: 314.156 [ms]
[OGL LOG][Proc: 0]p: copy_x_back: 0.287 [ms]
[OGL LOG][lduLduBase.H:330] 
Statistics:
	Time per iteration: 458 [mu s]
	Time per residual norm calculation: 124.000000 [mu s]
	Time per iteration and DOF: 0.458000 [ns]
	Retrieve results bandwidth 1.742000 [GByte/s]
[OGL LOG][Proc: 0]p: solve_multi_gpu: 316.892 [ms]
BJhipGKOCG:  Solving for p, Initial residual = 0.0184483, Final residual = 8.85638e-05, No Iterations 685
piso step 321.572 [ms]
 contErrors 
time step continuity errors : sum local = 1.24048e-08, global = 1.05071e-20, cumulative = -2.80675e-20
ExecutionTime = 10.21 s  ClockTime = 10 s

Time = 0.007

Courant Number mean: 0.0663921 max: 0.475725
momentum setup 5.356 [ms]
DILUPBiCGStab:  Solving for Ux, Initial residual = 0.00596514, Final residual = 1.8719e-05, No Iterations 5
DILUPBiCGStab:  Solving for Uy, Initial residual = 0.0127664, Final residual = 3.18277e-05, No Iterations 5
DILUPBiCGStab:  Solving for Uz, Initial residual = 0.0258967, Final residual = 5.94376e-05, No Iterations 5
piso setup 6.312 [ms]
 correctNonOrthogonal 
 setRef 
 startSolve 
[OGL LOG][Proc: 0]: global_index_init: 0.038 [ms]
[OGL LOG][Proc: 0]p_local_coeffs: call_update: 0 [ms]
[OGL LOG][Proc: 0]p_non_local_coeffs: call_update: 0 [ms]
[OGL LOG][Proc: 0]p: update_local_matrix_data: 1.051 [ms]
[OGL LOG][Proc: 0]p: update_non_local_matrix_data: 0.031 [ms]
[OGL LOG][Proc: 0]p_matrix: call_update: 2.127 [ms]
[OGL LOG][Proc: 0]p_rhs: call_update: 0.049 [ms]
[OGL LOG][Preconditioner.H:121] Generate preconditioner BJ MaxBlockSize 1
[OGL LOG][Proc: 0]p: init_precond: 0.143 [ms]
[OGL LOG][StoppingCriterion.H:373] Creating stopping criterion with minIter 411 frequency 9
[OGL LOG][Proc: 0]p: generate_solver: 0.003 [ms]
[OGL LOG][Proc: 0]p: solve: 341.831 [ms]
[OGL LOG][Proc: 0]p: copy_x_back: 0.179 [ms]
[OGL LOG][lduLduBase.H:330] 
Statistics:
	Time per iteration: 499 [mu s]
	Time per residual norm calculation: 121.000000 [mu s]
	Time per iteration and DOF: 0.499000 [ns]
	Retrieve results bandwidth 2.793000 [GByte/s]
[OGL LOG][Proc: 0]p: solve_multi_gpu: 344.656 [ms]
BJhipGKOCG:  Solving for p, Initial residual = 0.0163283, Final residual = 8.63414e-05, No Iterations 685
piso step 349.066 [ms]
 contErrors 
time step continuity errors : sum local = 1.20794e-08, global = 8.7053e-22, cumulative = -2.7197e-20
piso setup 7.772 [ms]
 correctNonOrthogonal 
 setRef 
 startSolve 
[OGL LOG][Proc: 0]: global_index_init: 0.094 [ms]
[OGL LOG][Proc: 0]p_local_coeffs: call_update: 0 [ms]
[OGL LOG][Proc: 0]p_non_local_coeffs: call_update: 0 [ms]
[OGL LOG][Proc: 0]p: update_local_matrix_data: 0.651 [ms]
[OGL LOG][Proc: 0]p: update_non_local_matrix_data: 0.021 [ms]
[OGL LOG][Proc: 0]p_matrix: call_update: 1.606 [ms]
[OGL LOG][Proc: 0]p_rhs: call_update: 0.622 [ms]
[OGL LOG][Preconditioner.H:121] Generate preconditioner BJ MaxBlockSize 1
[OGL LOG][Proc: 0]p: init_precond: 0.141 [ms]
[OGL LOG][StoppingCriterion.H:373] Creating stopping criterion with minIter 411 frequency 8
[OGL LOG][Proc: 0]p: generate_solver: 0.002 [ms]
[OGL LOG][Proc: 0]p: solve: 200.847 [ms]
[OGL LOG][Proc: 0]p: copy_x_back: 0.177 [ms]
[OGL LOG][lduLduBase.H:330] 
Statistics:
	Time per iteration: 481 [mu s]
	Time per residual norm calculation: 125.000000 [mu s]
	Time per iteration and DOF: 0.481000 [ns]
	Retrieve results bandwidth 2.824000 [GByte/s]
[OGL LOG][Proc: 0]p: solve_multi_gpu: 204.319 [ms]
BJhipGKOCG:  Solving for p, Initial residual = 0.0147955, Final residual = 8.72268e-05, No Iterations 417
piso step 209.233 [ms]
 contErrors 
time step continuity errors : sum local = 1.29208e-08, global = 5.3714e-21, cumulative = -2.18256e-20
ExecutionTime = 10.85 s  ClockTime = 11 s

Time = 0.0075

Courant Number mean: 0.0678393 max: 0.476365
momentum setup 4.018 [ms]
DILUPBiCGStab:  Solving for Ux, Initial residual = 0.00544235, Final residual = 1.66708e-05, No Iterations 5
DILUPBiCGStab:  Solving for Uy, Initial residual = 0.011667, Final residual = 2.89153e-05, No Iterations 5
DILUPBiCGStab:  Solving for Uz, Initial residual = 0.0238569, Final residual = 5.70837e-05, No Iterations 5
piso setup 6.152 [ms]
 correctNonOrthogonal 
 setRef 
 startSolve 
[OGL LOG][Proc: 0]: global_index_init: 0.047 [ms]
[OGL LOG][Proc: 0]p_local_coeffs: call_update: 0 [ms]
[OGL LOG][Proc: 0]p_non_local_coeffs: call_update: 0 [ms]
[OGL LOG][Proc: 0]p: update_local_matrix_data: 0.532 [ms]
[OGL LOG][Proc: 0]p: update_non_local_matrix_data: 0.019 [ms]
[OGL LOG][Proc: 0]p_matrix: call_update: 1.601 [ms]
[OGL LOG][Proc: 0]p_rhs: call_update: 0.463 [ms]
[OGL LOG][Preconditioner.H:121] Generate preconditioner BJ MaxBlockSize 1
[OGL LOG][Proc: 0]p: init_precond: 0.142 [ms]
[OGL LOG][StoppingCriterion.H:373] Creating stopping criterion with minIter 250 frequency 7
[OGL LOG][Proc: 0]p: generate_solver: 0.002 [ms]
[OGL LOG][Proc: 0]p: solve: 313.096 [ms]
[OGL LOG][Proc: 0]p: copy_x_back: 0.183 [ms]
[OGL LOG][lduLduBase.H:330] 
Statistics:
	Time per iteration: 455 [mu s]
	Time per residual norm calculation: 122.000000 [mu s]
	Time per iteration and DOF: 0.455000 [ns]
	Retrieve results bandwidth 2.732000 [GByte/s]
[OGL LOG][Proc: 0]p: solve_multi_gpu: 316.293 [ms]
BJhipGKOCG:  Solving for p, Initial residual = 0.0140241, Final residual = 7.14271e-05, No Iterations 687
piso step 320.329 [ms]
 contErrors 
time step continuity errors : sum local = 9.98165e-09, global = 6.0283e-21, cumulative = -1.57973e-20
piso setup 5.828 [ms]
 correctNonOrthogonal 
 setRef 
 startSolve 
[OGL LOG][Proc: 0]: global_index_init: 0.039 [ms]
[OGL LOG][Proc: 0]p_local_coeffs: call_update: 0 [ms]
[OGL LOG][Proc: 0]p_non_local_coeffs: call_update: 0 [ms]
[OGL LOG][Proc: 0]p: update_local_matrix_data: 0.648 [ms]
[OGL LOG][Proc: 0]p: update_non_local_matrix_data: 0.021 [ms]
[OGL LOG][Proc: 0]p_matrix: call_update: 1.973 [ms]
[OGL LOG][Proc: 0]p_rhs: call_update: 0.179 [ms]
[OGL LOG][Preconditioner.H:121] Generate preconditioner BJ MaxBlockSize 1
[OGL LOG][Proc: 0]p: init_precond: 0.135 [ms]
[OGL LOG][StoppingCriterion.H:373] Creating stopping criterion with minIter 412 frequency 9
[OGL LOG][Proc: 0]p: generate_solver: 0.002 [ms]
[OGL LOG][Proc: 0]p: solve: 306.873 [ms]
[OGL LOG][Proc: 0]p: copy_x_back: 0.182 [ms]
[OGL LOG][lduLduBase.H:330] 
Statistics:
	Time per iteration: 447 [mu s]
	Time per residual norm calculation: 123.000000 [mu s]
	Time per iteration and DOF: 0.447000 [ns]
	Retrieve results bandwidth 2.747000 [GByte/s]
[OGL LOG][Proc: 0]p: solve_multi_gpu: 309.551 [ms]
BJhipGKOCG:  Solving for p, Initial residual = 0.0127903, Final residual = 7.39522e-05, No Iterations 685
piso step 313.454 [ms]
 contErrors 
time step continuity errors : sum local = 1.03383e-08, global = -3.18455e-21, cumulative = -1.89818e-20
ExecutionTime = 11.56 s  ClockTime = 11 s

Time = 0.008

Courant Number mean: 0.0691766 max: 0.476935
momentum setup 4.235 [ms]
DILUPBiCGStab:  Solving for Ux, Initial residual = 0.00499543, Final residual = 1.50959e-05, No Iterations 5
DILUPBiCGStab:  Solving for Uy, Initial residual = 0.0107171, Final residual = 2.63943e-05, No Iterations 5
DILUPBiCGStab:  Solving for Uz, Initial residual = 0.0218122, Final residual = 4.7723e-05, No Iterations 5
piso setup 6.272 [ms]
 correctNonOrthogonal 
 setRef 
 startSolve 
[OGL LOG][Proc: 0]: global_index_init: 0.047 [ms]
[OGL LOG][Proc: 0]p_local_coeffs: call_update: 0 [ms]
[OGL LOG][Proc: 0]p_non_local_coeffs: call_update: 0 [ms]
[OGL LOG][Proc: 0]p: update_local_matrix_data: 0.581 [ms]
[OGL LOG][Proc: 0]p: update_non_local_matrix_data: 0.022 [ms]
[OGL LOG][Proc: 0]p_matrix: call_update: 1.79 [ms]
[OGL LOG][Proc: 0]p_rhs: call_update: 0.198 [ms]
[OGL LOG][Preconditioner.H:121] Generate preconditioner BJ MaxBlockSize 1
[OGL LOG][Proc: 0]p: init_precond: 0.135 [ms]
[OGL LOG][StoppingCriterion.H:373] Creating stopping criterion with minIter 411 frequency 9
[OGL LOG][Proc: 0]p: generate_solver: 0.002 [ms]
[OGL LOG][Proc: 0]p: solve: 190.559 [ms]
[OGL LOG][Proc: 0]p: copy_x_back: 0.227 [ms]
[OGL LOG][lduLduBase.H:330] 
Statistics:
	Time per iteration: 459 [mu s]
	Time per residual norm calculation: 138.000000 [mu s]
	Time per iteration and DOF: 0.459000 [ns]
	Retrieve results bandwidth 2.202000 [GByte/s]
[OGL LOG][Proc: 0]p: solve_multi_gpu: 193.133 [ms]
BJhipGKOCG:  Solving for p, Initial residual = 0.0120203, Final residual = 5.17753e-05, No Iterations 415
piso step 197.346 [ms]
 contErrors 
time step continuity errors : sum local = 7.68308e-09, global = 7.0186e-21, cumulative = -1.19632e-20
piso setup 6.45 [ms]
 correctNonOrthogonal 
 setRef 
 startSolve 
[OGL LOG][Proc: 0]: global_index_init: 0.07 [ms]
[OGL LOG][Proc: 0]p_local_coeffs: call_update: 0 [ms]
[OGL LOG][Proc: 0]p_non_local_coeffs: call_update: 0 [ms]
[OGL LOG][Proc: 0]p: update_local_matrix_data: 0.771 [ms]
[OGL LOG][Proc: 0]p: update_non_local_matrix_data: 0.022 [ms]
[OGL LOG][Proc: 0]p_matrix: call_update: 2.175 [ms]
[OGL LOG][Proc: 0]p_rhs: call_update: 0.062 [ms]
[OGL LOG][Preconditioner.H:121] Generate preconditioner BJ MaxBlockSize 1
[OGL LOG][Proc: 0]p: init_precond: 0.143 [ms]
[OGL LOG][StoppingCriterion.H:373] Creating stopping criterion with minIter 249 frequency 7
[OGL LOG][Proc: 0]p: generate_solver: 0.002 [ms]
[OGL LOG][Proc: 0]p: solve: 128.896 [ms]
[OGL LOG][Proc: 0]p: copy_x_back: 0.182 [ms]
[OGL LOG][lduLduBase.H:330] 
Statistics:
	Time per iteration: 447 [mu s]
	Time per residual norm calculation: 122.000000 [mu s]
	Time per iteration and DOF: 0.447000 [ns]
	Retrieve results bandwidth 2.747000 [GByte/s]
[OGL LOG][Proc: 0]p: solve_multi_gpu: 132.02 [ms]
BJhipGKOCG:  Solving for p, Initial residual = 0.0111524, Final residual = 9.95038e-05, No Iterations 288
piso step 136.251 [ms]
 contErrors 
time step continuity errors : sum local = 1.41303e-08, global = 1.13042e-21, cumulative = -1.08328e-20
ExecutionTime = 11.97 s  ClockTime = 12 s

Time = 0.0085

Courant Number mean: 0.0704222 max: 0.477443
momentum setup 4.313 [ms]
DILUPBiCGStab:  Solving for Ux, Initial residual = 0.00460075, Final residual = 1.36617e-05, No Iterations 5
DILUPBiCGStab:  Solving for Uy, Initial residual = 0.00989474, Final residual = 2.42763e-05, No Iterations 5
DILUPBiCGStab:  Solving for Uz, Initial residual = 0.0201512, Final residual = 4.43538e-05, No Iterations 5
piso setup 6.147 [ms]
 correctNonOrthogonal 
 setRef 
 startSolve 
[OGL LOG][Proc: 0]: global_index_init: 0.045 [ms]
[OGL LOG][Proc: 0]p_local_coeffs: call_update: 0 [ms]
[OGL LOG][Proc: 0]p_non_local_coeffs: call_update: 0 [ms]
[OGL LOG][Proc: 0]p: update_local_matrix_data: 0.599 [ms]
[OGL LOG][Proc: 0]p: update_non_local_matrix_data: 0.019 [ms]
[OGL LOG][Proc: 0]p_matrix: call_update: 1.865 [ms]
[OGL LOG][Proc: 0]p_rhs: call_update: 0.181 [ms]
[OGL LOG][Preconditioner.H:121] Generate preconditioner BJ MaxBlockSize 1
[OGL LOG][Proc: 0]p: init_precond: 0.143 [ms]
[OGL LOG][StoppingCriterion.H:373] Creating stopping criterion with minIter 172 frequency 6
[OGL LOG][Proc: 0]p: generate_solver: 0.002 [ms]
[OGL LOG][Proc: 0]p: solve: 130.52 [ms]
[OGL LOG][Proc: 0]p: copy_x_back: 0.182 [ms]
[OGL LOG][lduLduBase.H:330] 
Statistics:
	Time per iteration: 451 [mu s]
	Time per residual norm calculation: 124.000000 [mu s]
	Time per iteration and DOF: 0.451000 [ns]
	Retrieve results bandwidth 2.747000 [GByte/s]
[OGL LOG][Proc: 0]p: solve_multi_gpu: 133.097 [ms]
BJhipGKOCG:  Solving for p, Initial residual = 0.0105458, Final residual = 9.63449e-05, No Iterations 289
piso step 136.985 [ms]
 contErrors 
time step continuity errors : sum local = 1.4194e-08, global = -1.16503e-21, cumulative = -1.19978e-20
piso setup 6.326 [ms]
 correctNonOrthogonal 
 setRef 
 startSolve 
[OGL LOG][Proc: 0]: global_index_init: 0.04 [ms]
[OGL LOG][Proc: 0]p_local_coeffs: call_update: 0 [ms]
[OGL LOG][Proc: 0]p_non_local_coeffs: call_update: 0 [ms]
[OGL LOG][Proc: 0]p: update_local_matrix_data: 0.629 [ms]
[OGL LOG][Proc: 0]p: update_non_local_matrix_data: 0.018 [ms]
[OGL LOG][Proc: 0]p_matrix: call_update: 1.848 [ms]
[OGL LOG][Proc: 0]p_rhs: call_update: 0.254 [ms]
[OGL LOG][Preconditioner.H:121] Generate preconditioner BJ MaxBlockSize 1
[OGL LOG][Proc: 0]p: init_precond: 0.143 [ms]
[OGL LOG][StoppingCriterion.H:373] Creating stopping criterion with minIter 173 frequency 6
[OGL LOG][Proc: 0]p: generate_solver: 0.002 [ms]
[OGL LOG][Proc: 0]p: solve: 128.692 [ms]
[OGL LOG][Proc: 0]p: copy_x_back: 0.182 [ms]
[OGL LOG][lduLduBase.H:330] 
Statistics:
	Time per iteration: 454 [mu s]
	Time per residual norm calculation: 118.000000 [mu s]
	Time per iteration and DOF: 0.454000 [ns]
	Retrieve results bandwidth 2.747000 [GByte/s]
[OGL LOG][Proc: 0]p: solve_multi_gpu: 131.331 [ms]
BJhipGKOCG:  Solving for p, Initial residual = 0.00984724, Final residual = 9.42115e-05, No Iterations 283
piso step 135.681 [ms]
 contErrors 
time step continuity errors : sum local = 1.33131e-08, global = 5.35813e-21, cumulative = -6.63971e-21
ExecutionTime = 12.31 s  ClockTime = 12 s

Time = 0.009

Courant Number mean: 0.0715857 max: 0.477902
momentum setup 4.259 [ms]
DILUPBiCGStab:  Solving for Ux, Initial residual = 0.00425641, Final residual = 1.24968e-05, No Iterations 5
DILUPBiCGStab:  Solving for Uy, Initial residual = 0.00917277, Final residual = 2.24425e-05, No Iterations 5
DILUPBiCGStab:  Solving for Uz, Initial residual = 0.0187103, Final residual = 4.29258e-05, No Iterations 5
piso setup 6.254 [ms]
 correctNonOrthogonal 
 setRef 
 startSolve 
[OGL LOG][Proc: 0]: global_index_init: 0.045 [ms]
[OGL LOG][Proc: 0]p_local_coeffs: call_update: 0 [ms]
[OGL LOG][Proc: 0]p_non_local_coeffs: call_update: 0 [ms]
[OGL LOG][Proc: 0]p: update_local_matrix_data: 0.618 [ms]
[OGL LOG][Proc: 0]p: update_non_local_matrix_data: 0.02 [ms]
[OGL LOG][Proc: 0]p_matrix: call_update: 1.814 [ms]
[OGL LOG][Proc: 0]p_rhs: call_update: 0.186 [ms]
[OGL LOG][Preconditioner.H:121] Generate preconditioner BJ MaxBlockSize 1
[OGL LOG][Proc: 0]p: init_precond: 0.139 [ms]
[OGL LOG][StoppingCriterion.H:373] Creating stopping criterion with minIter 169 frequency 6
[OGL LOG][Proc: 0]p: generate_solver: 0.002 [ms]
[OGL LOG][Proc: 0]p: solve: 127.973 [ms]
[OGL LOG][Proc: 0]p: copy_x_back: 0.182 [ms]
[OGL LOG][lduLduBase.H:330] 
Statistics:
	Time per iteration: 452 [mu s]
	Time per residual norm calculation: 122.000000 [mu s]
	Time per iteration and DOF: 0.452000 [ns]
	Retrieve results bandwidth 2.747000 [GByte/s]
[OGL LOG][Proc: 0]p: solve_multi_gpu: 130.497 [ms]
BJhipGKOCG:  Solving for p, Initial residual = 0.0095462, Final residual = 9.77854e-05, No Iterations 283
piso step 134.349 [ms]
 contErrors 
time step continuity errors : sum local = 1.44634e-08, global = -2.27878e-21, cumulative = -8.91849e-21
piso setup 6.672 [ms]
 correctNonOrthogonal 
 setRef 
 startSolve 
[OGL LOG][Proc: 0]: global_index_init: 0.042 [ms]
[OGL LOG][Proc: 0]p_local_coeffs: call_update: 0 [ms]
[OGL LOG][Proc: 0]p_non_local_coeffs: call_update: 0 [ms]
[OGL LOG][Proc: 0]p: update_local_matrix_data: 0.67 [ms]
[OGL LOG][Proc: 0]p: update_non_local_matrix_data: 0.019 [ms]
[OGL LOG][Proc: 0]p_matrix: call_update: 4.089 [ms]
[OGL LOG][Proc: 0]p_rhs: call_update: 0.087 [ms]
[OGL LOG][Preconditioner.H:121] Generate preconditioner BJ MaxBlockSize 1
[OGL LOG][Proc: 0]p: init_precond: 0.142 [ms]
[OGL LOG][StoppingCriterion.H:373] Creating stopping criterion with minIter 169 frequency 6
[OGL LOG][Proc: 0]p: generate_solver: 0.003 [ms]
[OGL LOG][Proc: 0]p: solve: 128.814 [ms]
[OGL LOG][Proc: 0]p: copy_x_back: 0.181 [ms]
[OGL LOG][lduLduBase.H:330] 
Statistics:
	Time per iteration: 455 [mu s]
	Time per residual norm calculation: 117.000000 [mu s]
	Time per iteration and DOF: 0.455000 [ns]
	Retrieve results bandwidth 2.762000 [GByte/s]
[OGL LOG][Proc: 0]p: solve_multi_gpu: 133.54 [ms]
BJhipGKOCG:  Solving for p, Initial residual = 0.00899606, Final residual = 8.49234e-05, No Iterations 283
piso step 138.125 [ms]
 contErrors 
time step continuity errors : sum local = 1.21707e-08, global = -1.0165e-20, cumulative = -1.90835e-20
ExecutionTime = 12.67 s  ClockTime = 12 s

Time = 0.0095

Courant Number mean: 0.0726727 max: 0.478315
momentum setup 4.127 [ms]
DILUPBiCGStab:  Solving for Ux, Initial residual = 0.00395375, Final residual = 1.14482e-05, No Iterations 5
DILUPBiCGStab:  Solving for Uy, Initial residual = 0.0085231, Final residual = 2.08727e-05, No Iterations 5
DILUPBiCGStab:  Solving for Uz, Initial residual = 0.0176819, Final residual = 4.14858e-05, No Iterations 5
piso setup 6.35 [ms]
 correctNonOrthogonal 
 setRef 
 startSolve 
[OGL LOG][Proc: 0]: global_index_init: 0.035 [ms]
[OGL LOG][Proc: 0]p_local_coeffs: call_update: 0 [ms]
[OGL LOG][Proc: 0]p_non_local_coeffs: call_update: 0 [ms]
[OGL LOG][Proc: 0]p: update_local_matrix_data: 0.605 [ms]
[OGL LOG][Proc: 0]p: update_non_local_matrix_data: 0.022 [ms]
[OGL LOG][Proc: 0]p_matrix: call_update: 1.845 [ms]
[OGL LOG][Proc: 0]p_rhs: call_update: 0.205 [ms]
[OGL LOG][Preconditioner.H:121] Generate preconditioner BJ MaxBlockSize 1
[OGL LOG][Proc: 0]p: init_precond: 0.136 [ms]
[OGL LOG][StoppingCriterion.H:373] Creating stopping criterion with minIter 169 frequency 6
[OGL LOG][Proc: 0]p: generate_solver: 0.002 [ms]
[OGL LOG][Proc: 0]p: solve: 133.525 [ms]
[OGL LOG][Proc: 0]p: copy_x_back: 0.184 [ms]
[OGL LOG][lduLduBase.H:330] 
Statistics:
	Time per iteration: 452 [mu s]
	Time per residual norm calculation: 119.000000 [mu s]
	Time per iteration and DOF: 0.452000 [ns]
	Retrieve results bandwidth 2.717000 [GByte/s]
[OGL LOG][Proc: 0]p: solve_multi_gpu: 136.105 [ms]
BJhipGKOCG:  Solving for p, Initial residual = 0.00873405, Final residual = 9.96827e-05, No Iterations 295
piso step 139.983 [ms]
 contErrors 
time step continuity errors : sum local = 1.51984e-08, global = -1.09374e-21, cumulative = -2.01772e-20
piso setup 6.27 [ms]
 correctNonOrthogonal 
 setRef 
 startSolve 
[OGL LOG][Proc: 0]: global_index_init: 0.038 [ms]
[OGL LOG][Proc: 0]p_local_coeffs: call_update: 0 [ms]
[OGL LOG][Proc: 0]p_non_local_coeffs: call_update: 0 [ms]
[OGL LOG][Proc: 0]p: update_local_matrix_data: 0.651 [ms]
[OGL LOG][Proc: 0]p: update_non_local_matrix_data: 0.019 [ms]
[OGL LOG][Proc: 0]p_matrix: call_update: 1.835 [ms]
[OGL LOG][Proc: 0]p_rhs: call_update: 0.189 [ms]
[OGL LOG][Preconditioner.H:121] Generate preconditioner BJ MaxBlockSize 1
[OGL LOG][Proc: 0]p: init_precond: 0.138 [ms]
[OGL LOG][StoppingCriterion.H:373] Creating stopping criterion with minIter 177 frequency 6
[OGL LOG][Proc: 0]p: generate_solver: 0.002 [ms]
[OGL LOG][Proc: 0]p: solve: 131.457 [ms]
[OGL LOG][Proc: 0]p: copy_x_back: 0.181 [ms]
[OGL LOG][lduLduBase.H:330] 
Statistics:
	Time per iteration: 454 [mu s]
	Time per residual norm calculation: 121.000000 [mu s]
	Time per iteration and DOF: 0.454000 [ns]
	Retrieve results bandwidth 2.762000 [GByte/s]
[OGL LOG][Proc: 0]p: solve_multi_gpu: 134 [ms]
BJhipGKOCG:  Solving for p, Initial residual = 0.00825709, Final residual = 9.30831e-05, No Iterations 289
piso step 138.299 [ms]
 contErrors 
time step continuity errors : sum local = 1.33425e-08, global = 2.93287e-21, cumulative = -1.72443e-20
ExecutionTime = 13.02 s  ClockTime = 13 s

Time = 0.01

Courant Number mean: 0.0736902 max: 0.478692
momentum setup 4.314 [ms]
DILUPBiCGStab:  Solving for Ux, Initial residual = 0.00367846, Final residual = 1.05652e-05, No Iterations 5
DILUPBiCGStab:  Solving for Uy, Initial residual = 0.00796316, Final residual = 1.95177e-05, No Iterations 5
DILUPBiCGStab:  Solving for Uz, Initial residual = 0.0165557, Final residual = 4.20477e-05, No Iterations 5
piso setup 6.995 [ms]
 correctNonOrthogonal 
 setRef 
 startSolve 
[OGL LOG][Proc: 0]: global_index_init: 0.054 [ms]
[OGL LOG][Proc: 0]p_local_coeffs: call_update: 0 [ms]
[OGL LOG][Proc: 0]p_non_local_coeffs: call_update: 0 [ms]
[OGL LOG][Proc: 0]p: update_local_matrix_data: 0.579 [ms]
[OGL LOG][Proc: 0]p: update_non_local_matrix_data: 0.018 [ms]
[OGL LOG][Proc: 0]p_matrix: call_update: 1.642 [ms]
[OGL LOG][Proc: 0]p_rhs: call_update: 0.35 [ms]
[OGL LOG][Preconditioner.H:121] Generate preconditioner BJ MaxBlockSize 1
[OGL LOG][Proc: 0]p: init_precond: 0.136 [ms]
[OGL LOG][StoppingCriterion.H:373] Creating stopping criterion with minIter 173 frequency 6
[OGL LOG][Proc: 0]p: generate_solver: 0.002 [ms]
[OGL LOG][Proc: 0]p: solve: 138.744 [ms]
[OGL LOG][Proc: 0]p: copy_x_back: 0.18 [ms]
[OGL LOG][lduLduBase.H:330] 
Statistics:
	Time per iteration: 460 [mu s]
	Time per residual norm calculation: 311.000000 [mu s]
	Time per iteration and DOF: 0.460000 [ns]
	Retrieve results bandwidth 2.777000 [GByte/s]
[OGL LOG][Proc: 0]p: solve_multi_gpu: 141.573 [ms]
BJhipGKOCG:  Solving for p, Initial residual = 0.00830271, Final residual = 9.13057e-05, No Iterations 301
piso step 145.413 [ms]
 contErrors 
time step continuity errors : sum local = 1.42614e-08, global = 8.41801e-21, cumulative = -8.82633e-21
piso setup 6.152 [ms]
 correctNonOrthogonal 
 setRef 
 startSolve 
[OGL LOG][Proc: 0]: global_index_init: 0.036 [ms]
[OGL LOG][Proc: 0]p_local_coeffs: call_update: 0 [ms]
[OGL LOG][Proc: 0]p_non_local_coeffs: call_update: 0 [ms]
[OGL LOG][Proc: 0]p: update_local_matrix_data: 0.654 [ms]
[OGL LOG][Proc: 0]p: update_non_local_matrix_data: 0.02 [ms]
[OGL LOG][Proc: 0]p_matrix: call_update: 1.853 [ms]
[OGL LOG][Proc: 0]p_rhs: call_update: 0.218 [ms]
[OGL LOG][Preconditioner.H:121] Generate preconditioner BJ MaxBlockSize 1
[OGL LOG][Proc: 0]p: init_precond: 0.14 [ms]
[OGL LOG][StoppingCriterion.H:373] Creating stopping criterion with minIter 180 frequency 10
[OGL LOG][Proc: 0]p: generate_solver: 0.002 [ms]
[OGL LOG][Proc: 0]p: solve: 131.122 [ms]
[OGL LOG][Proc: 0]p: copy_x_back: 0.174 [ms]
[OGL LOG][lduLduBase.H:330] 
Statistics:
	Time per iteration: 450 [mu s]
	Time per residual norm calculation: 124.000000 [mu s]
	Time per iteration and DOF: 0.450000 [ns]
	Retrieve results bandwidth 2.873000 [GByte/s]
[OGL LOG][Proc: 0]p: solve_multi_gpu: 133.718 [ms]
BJhipGKOCG:  Solving for p, Initial residual = 0.00787549, Final residual = 9.9588e-05, No Iterations 291
piso step 137.873 [ms]
 contErrors 
time step continuity errors : sum local = 1.44114e-08, global = 3.69166e-21, cumulative = -5.13468e-21
ExecutionTime = 13.38 s  ClockTime = 13 s

End

Finalising parallel run
