/*---------------------------------------------------------------------------*\
| =========                 |                                                 |
| \\      /  F ield         | OpenFOAM: The Open Source CFD Toolbox           |
|  \\    /   O peration     | Version:  v2106                                 |
|   \\  /    A nd           | Website:  www.openfoam.com                      |
|    \\/     M anipulation  |                                                 |
\*---------------------------------------------------------------------------*/
Build  : f815a12bba-20210902 OPENFOAM=2106
Arch   : "LSB;label=32;scalar=64"
Exec   : icoFoam -parallel -case /home/greole/data/code/micro_benchmarks/LidDrivenCavity3D/workspace/f0f85442c8f574b314d405bbef0c4750/case
Date   : Mar 06 2023
Time   : 03:01:24
Host   : nla-gpu2.ianm.kit.edu
PID    : 2123710
I/O    : uncollated
Case   : /home/greole/data/code/micro_benchmarks/LidDrivenCavity3D/workspace/f0f85442c8f574b314d405bbef0c4750/case
nProcs : 16
Hosts  :
(
    (nla-gpu2.ianm.kit.edu 16)
)
Pstream initialized with:
    floatTransfer      : 0
    nProcsSimpleSum    : 0
    commsType          : nonBlocking
    polling iterations : 0
trapFpe: Floating point exception trapping enabled (FOAM_SIGFPE).
fileModificationChecking : Monitoring run-time modified files using timeStampMaster (fileModificationSkew 5, maxFileModificationPolls 20)
allowSystemOperations : Allowing user-supplied system call operations

// * * * * * * * * * * * * * * * * * * * * * * * * * * * * * * * * * * * * * //
Create time

--> FOAM Warning : 
    From virtual void Foam::Time::readDict()
    in file db/Time/TimeIO.C at line 411
    Reading "/home/greole/data/code/micro_benchmarks/LidDrivenCavity3D/workspace/f0f85442c8f574b314d405bbef0c4750/case/system/controlDict" at line 17 to 47
    Disabled binary format compression (inefficient/ineffective)
Create mesh for time = 0


PISO: Operating solver in PISO mode

Reading transportProperties

Reading field p

Reading field U

Reading/calculating face flux field phi


Starting time loop

Time = 0.0005

Courant Number mean: 8.62851e-18 max: 8.67362e-15
[INFO] MatrixAssemblyU: 22.255 [ms]
DILUPBiCGStab:  Solving for Ux, Initial residual = 1, Final residual = 0.00283431, No Iterations 5
DILUPBiCGStab:  Solving for Uy:  solution singularity
DILUPBiCGStab:  Solving for Uz:  solution singularity
linear solve U 56.346 [ms]
[INFO] MomentumPredictor: 72.424 [ms]
[INFO] MatrixAssemblyPI: 32.955 [ms]
[INFO] AdjustPhi: 0.806 [ms]
[INFO] ConstrainPressure: 0.007 [ms]
[INFO] MatrixAssemblyPII: 13.212 [ms]
[OGL LOG][lduLduBase.H:121] Initialising OGL
	OGL commit:  84e53c6+
	Branch: HEAD 
	Build type: Debug
	Ginkgo version: 1.5.0 ( develop)
	Ginkgo commit: 6b441077b
	MPI is GPU aware: 0
	Forces host buffer based communication: 1
	CPU ranks per GPU: 2
	Matrix format: Coo
	End OGL_INFO
[OGL LOG][Proc: 0]: global_index_init: 50.74 [ms]
[OGL LOG][Proc: 0]p_local_cols: call_init: 0.28 [ms]
[OGL LOG][Proc: 0]p_local_rows: call_init: 0.006 [ms]
[OGL LOG][Proc: 0]p_local_ldu_map: call_init: 0.003 [ms]
[OGL LOG][Proc: 0]p_local_coeffs: call_init: 0.127 [ms]
[OGL LOG][Proc: 0]p_non_local_cols: call_init: 0.006 [ms]
[OGL LOG][Proc: 0]p_non_local_rows: call_init: 0.003 [ms]
[OGL LOG][Proc: 0]p_non_local_ldu_map: call_init: 0.004 [ms]
[OGL LOG][Proc: 0]p_non_local_coeffs: call_init: 0.006 [ms]
[OGL LOG][Proc: 0]p: init_local_sparsity_pattern: 86.672 [ms]
[OGL LOG][Proc: 0]p: init_non_local_sparsity_pattern: 35.851 [ms]
[OGL LOG][Proc: 0]p: update_local_matrix_data: 4.367 [ms]
[OGL LOG][Proc: 0]p: update_non_local_matrix_data: 18.82 [ms]
[OGL LOG][Proc: 0]device_partition: call_init: 1.332 [ms]
[OGL LOG][Proc: 0]local_scatter_map: call_init: 0.655 [ms]
[OGL LOG][Proc: 0]non_local_scatter_map: call_init: 0.012 [ms]
[OGL LOG][Proc: 0]sorting_idx: call_init: 0.169 [ms]
[OGL LOG][Proc: 0]send_sizes: call_init: 0.007 [ms]
[OGL LOG][Proc: 0]send_offs: call_init: 0.006 [ms]
[OGL LOG][Proc: 0]recv_sizes: call_init: 0.006 [ms]
[OGL LOG][Proc: 0]recv_offs: call_init: 0.006 [ms]
[OGL LOG][Proc: 0]p_matrix: call_init: 188.616 [ms]
[OGL LOG][Proc: 0]p_rhs: call_init: 9.524 [ms]
[OGL LOG][Proc: 0]p_solution: call_init: 2.315 [ms]
[OGL LOG][Proc: 0]p: init_precond: 0.11 [ms]
[OGL LOG][StoppingCriterion.H:372] Creating stopping criterion with minIter 0 frequency 1
[OGL LOG][Proc: 0]p: generate_solver: 0.352 [ms]
[OGL LOG][Proc: 0]p: solve: 803.876 [ms]
[OGL LOG][Proc: 0]p: copy_x_back: 3.841 [ms]
[OGL LOG][lduLduBase.H:319] 
Statistics:
	Time per iteration: 1013 [mu s]
	Time per residual norm calculation: 3292.000000 [mu s]
	Time per iteration and DOF: 1.013000 [ns]
	Retrieve results bandwith 0.260000 [GByte/s]
[OGL LOG][Proc: 0]p: solve_multi_gpu: 1011.39 [ms]
nonehipGKOCG:  Solving for p, Initial residual = 1, Final residual = 9.97183e-05, No Iterations 793
linear solve p 1954.28 [ms]
[INFO] SolveP: 1954.31 [ms]
time step continuity errors : sum local = 2.14248e-08, global = 1.5613e-23, cumulative = 1.5613e-23
[INFO] ContinuityError: 11.611 [ms]
[INFO] CorrectBoundary: 0.643 [ms]
[INFO] PISOStep: 2033.47 [ms]
[INFO] MatrixAssemblyPI: 23.456 [ms]
[INFO] AdjustPhi: 7.927 [ms]
[INFO] ConstrainPressure: 0.003 [ms]
[INFO] MatrixAssemblyPII: 10.321 [ms]
[OGL LOG][Proc: 0]: global_index_init: 0.035 [ms]
[OGL LOG][Proc: 0]p_local_coeffs: call_update: 0.004 [ms]
[OGL LOG][Proc: 0]p_non_local_coeffs: call_update: 0 [ms]
[OGL LOG][Proc: 0]p: update_local_matrix_data: 3.665 [ms]
[OGL LOG][Proc: 0]p: update_non_local_matrix_data: 0.563 [ms]
[OGL LOG][Proc: 0]p: update_build_repartitioner: 0.563 [ms]
[OGL LOG][Proc: 0]p: update_repartitioned_existing: 8.571 [ms]
[OGL LOG][Proc: 0]p: update_offload_local_values: 2.229 [ms]
[OGL LOG][Proc: 0]p: update_offload_non_local_values: 0.06 [ms]
[OGL LOG][Proc: 0]p_matrix: call_update: 11.73 [ms]
[OGL LOG][Proc: 0]p_rhs: call_update: 10.113 [ms]
[OGL LOG][Proc: 0]p: init_precond: 0.083 [ms]
[OGL LOG][StoppingCriterion.H:372] Creating stopping criterion with minIter 0 frequency 1
[OGL LOG][Proc: 0]p: generate_solver: 0.023 [ms]
[OGL LOG][Proc: 0]p: solve: 745.064 [ms]
[OGL LOG][Proc: 0]p: copy_x_back: 2.703 [ms]
[OGL LOG][lduLduBase.H:319] 
Statistics:
	Time per iteration: 952 [mu s]
	Time per residual norm calculation: 233.000000 [mu s]
	Time per iteration and DOF: 0.952000 [ns]
	Retrieve results bandwith 0.369000 [GByte/s]
[OGL LOG][Proc: 0]p: solve_multi_gpu: 770.085 [ms]
nonehipGKOCG:  Solving for p, Initial residual = 0.731148, Final residual = 9.88225e-05, No Iterations 782
linear solve p 776.889 [ms]
[INFO] SolveP: 776.925 [ms]
time step continuity errors : sum local = 2.80356e-08, global = 3.01016e-22, cumulative = 3.16629e-22
[INFO] ContinuityError: 5.788 [ms]
[INFO] CorrectBoundary: 0.349 [ms]
[INFO] PISOStep: 842.385 [ms]
[INFO] TimeStep: 2981.51 [ms]
ExecutionTime = 3.09 s  ClockTime = 4 s

Time = 0.001

Courant Number mean: 0.0215183 max: 0.377124
[INFO] MatrixAssemblyU: 10.077 [ms]
DILUPBiCGStab:  Solving for Ux, Initial residual = 0.150306, Final residual = 0.00127595, No Iterations 5
DILUPBiCGStab:  Solving for Uy, Initial residual = 0.368268, Final residual = 0.00250959, No Iterations 5
DILUPBiCGStab:  Solving for Uz, Initial residual = 0.986407, Final residual = 0.00612786, No Iterations 5
linear solve U 95.23 [ms]
[INFO] MomentumPredictor: 105.022 [ms]
[INFO] MatrixAssemblyPI: 12.371 [ms]
[INFO] AdjustPhi: 9.125 [ms]
[INFO] ConstrainPressure: 0.002 [ms]
[INFO] MatrixAssemblyPII: 8.532 [ms]
[OGL LOG][Proc: 0]: global_index_init: 0.036 [ms]
[OGL LOG][Proc: 0]p_local_coeffs: call_update: 0 [ms]
[OGL LOG][Proc: 0]p_non_local_coeffs: call_update: 0 [ms]
[OGL LOG][Proc: 0]p: update_local_matrix_data: 3.613 [ms]
[OGL LOG][Proc: 0]p: update_non_local_matrix_data: 0.458 [ms]
[OGL LOG][Proc: 0]p: update_build_repartitioner: 1.076 [ms]
[OGL LOG][Proc: 0]p: update_repartitioned_existing: 6.917 [ms]
[OGL LOG][Proc: 0]p: update_offload_local_values: 2.302 [ms]
[OGL LOG][Proc: 0]p: update_offload_non_local_values: 0.066 [ms]
[OGL LOG][Proc: 0]p_matrix: call_update: 10.592 [ms]
[OGL LOG][Proc: 0]p_rhs: call_update: 2.977 [ms]
[OGL LOG][Proc: 0]p: init_precond: 0.052 [ms]
[OGL LOG][StoppingCriterion.H:372] Creating stopping criterion with minIter 469 frequency 8
[OGL LOG][Proc: 0]p: generate_solver: 0.022 [ms]
[OGL LOG][Proc: 0]p: solve: 507.122 [ms]
[OGL LOG][Proc: 0]p: copy_x_back: 3.525 [ms]
[OGL LOG][lduLduBase.H:319] 
Statistics:
	Time per iteration: 652 [mu s]
	Time per residual norm calculation: 234.000000 [mu s]
	Time per iteration and DOF: 0.652000 [ns]
	Retrieve results bandwith 0.283000 [GByte/s]
[OGL LOG][Proc: 0]p: solve_multi_gpu: 524.636 [ms]
nonehipGKOCG:  Solving for p, Initial residual = 0.691557, Final residual = 9.33805e-05, No Iterations 777
linear solve p 529.805 [ms]
[INFO] SolveP: 529.835 [ms]
time step continuity errors : sum local = 2.97197e-08, global = -4.04745e-21, cumulative = -3.73082e-21
[INFO] ContinuityError: 6.523 [ms]
[INFO] CorrectBoundary: 3.731 [ms]
[INFO] PISOStep: 581.825 [ms]
[INFO] MatrixAssemblyPI: 10.564 [ms]
[INFO] AdjustPhi: 2.262 [ms]
[INFO] ConstrainPressure: 0.002 [ms]
[INFO] MatrixAssemblyPII: 4.752 [ms]
[OGL LOG][Proc: 0]: global_index_init: 0.025 [ms]
[OGL LOG][Proc: 0]p_local_coeffs: call_update: 0 [ms]
[OGL LOG][Proc: 0]p_non_local_coeffs: call_update: 0 [ms]
[OGL LOG][Proc: 0]p: update_local_matrix_data: 2.994 [ms]
[OGL LOG][Proc: 0]p: update_non_local_matrix_data: 0.446 [ms]
[OGL LOG][Proc: 0]p: update_build_repartitioner: 1.307 [ms]
[OGL LOG][Proc: 0]p: update_repartitioned_existing: 3.708 [ms]
[OGL LOG][Proc: 0]p: update_offload_local_values: 2.102 [ms]
[OGL LOG][Proc: 0]p: update_offload_non_local_values: 0.081 [ms]
[OGL LOG][Proc: 0]p_matrix: call_update: 7.435 [ms]
[OGL LOG][Proc: 0]p_rhs: call_update: 1.983 [ms]
[OGL LOG][Proc: 0]p: init_precond: 0.054 [ms]
[OGL LOG][StoppingCriterion.H:372] Creating stopping criterion with minIter 466 frequency 12
[OGL LOG][Proc: 0]p: generate_solver: 0.023 [ms]
[OGL LOG][Proc: 0]p: solve: 596.258 [ms]
[OGL LOG][Proc: 0]p: copy_x_back: 4.389 [ms]
[OGL LOG][lduLduBase.H:319] 
Statistics:
	Time per iteration: 763 [mu s]
	Time per residual norm calculation: 232.000000 [mu s]
	Time per iteration and DOF: 0.763000 [ns]
	Retrieve results bandwith 0.227000 [GByte/s]
[OGL LOG][Proc: 0]p: solve_multi_gpu: 610.472 [ms]
nonehipGKOCG:  Solving for p, Initial residual = 0.620745, Final residual = 6.76843e-05, No Iterations 781
linear solve p 614.853 [ms]
[INFO] SolveP: 614.876 [ms]
time step continuity errors : sum local = 2.19705e-08, global = 2.5814e-21, cumulative = -1.14942e-21
[INFO] ContinuityError: 3.45 [ms]
[INFO] CorrectBoundary: 0.237 [ms]
[INFO] PISOStep: 649.091 [ms]
[INFO] TimeStep: 1354.26 [ms]
ExecutionTime = 4.38 s  ClockTime = 5 s

Time = 0.0015

Courant Number mean: 0.0324765 max: 0.441237
[INFO] MatrixAssemblyU: 9.728 [ms]
DILUPBiCGStab:  Solving for Ux, Initial residual = 0.0531252, Final residual = 0.00037961, No Iterations 5
DILUPBiCGStab:  Solving for Uy, Initial residual = 0.124772, Final residual = 0.000649555, No Iterations 5
DILUPBiCGStab:  Solving for Uz, Initial residual = 0.580671, Final residual = 0.00342959, No Iterations 5
linear solve U 67.946 [ms]
[INFO] MomentumPredictor: 74.159 [ms]
[INFO] MatrixAssemblyPI: 13.195 [ms]
[INFO] AdjustPhi: 3.091 [ms]
[INFO] ConstrainPressure: 0.002 [ms]
[INFO] MatrixAssemblyPII: 3.365 [ms]
[OGL LOG][Proc: 0]: global_index_init: 0.044 [ms]
[OGL LOG][Proc: 0]p_local_coeffs: call_update: 0 [ms]
[OGL LOG][Proc: 0]p_non_local_coeffs: call_update: 0 [ms]
[OGL LOG][Proc: 0]p: update_local_matrix_data: 3.579 [ms]
[OGL LOG][Proc: 0]p: update_non_local_matrix_data: 0.5 [ms]
[OGL LOG][Proc: 0]p: update_build_repartitioner: 0.555 [ms]
[OGL LOG][Proc: 0]p: update_repartitioned_existing: 6.889 [ms]
[OGL LOG][Proc: 0]p: update_offload_local_values: 2.121 [ms]
[OGL LOG][Proc: 0]p: update_offload_non_local_values: 0.092 [ms]
[OGL LOG][Proc: 0]p_matrix: call_update: 9.933 [ms]
[OGL LOG][Proc: 0]p_rhs: call_update: 1.795 [ms]
[OGL LOG][Proc: 0]p: init_precond: 0.059 [ms]
[OGL LOG][StoppingCriterion.H:372] Creating stopping criterion with minIter 468 frequency 10
[OGL LOG][Proc: 0]p: generate_solver: 0.022 [ms]
[OGL LOG][Proc: 0]p: solve: 498.907 [ms]
[OGL LOG][Proc: 0]p: copy_x_back: 3.571 [ms]
[OGL LOG][lduLduBase.H:319] 
Statistics:
	Time per iteration: 647 [mu s]
	Time per residual norm calculation: 228.000000 [mu s]
	Time per iteration and DOF: 0.647000 [ns]
	Retrieve results bandwith 0.280000 [GByte/s]
[OGL LOG][Proc: 0]p: solve_multi_gpu: 514.558 [ms]
nonehipGKOCG:  Solving for p, Initial residual = 0.633204, Final residual = 7.98053e-05, No Iterations 771
linear solve p 519.428 [ms]
[INFO] SolveP: 519.454 [ms]
time step continuity errors : sum local = 1.83132e-08, global = -2.44878e-21, cumulative = -3.5982e-21
[INFO] ContinuityError: 3.097 [ms]
[INFO] CorrectBoundary: 0.41 [ms]
[INFO] PISOStep: 554.656 [ms]
[INFO] MatrixAssemblyPI: 9.538 [ms]
[INFO] AdjustPhi: 3.599 [ms]
[INFO] ConstrainPressure: 0.002 [ms]
[INFO] MatrixAssemblyPII: 5.627 [ms]
[OGL LOG][Proc: 0]: global_index_init: 0.043 [ms]
[OGL LOG][Proc: 0]p_local_coeffs: call_update: 0 [ms]
[OGL LOG][Proc: 0]p_non_local_coeffs: call_update: 0 [ms]
[OGL LOG][Proc: 0]p: update_local_matrix_data: 3.219 [ms]
[OGL LOG][Proc: 0]p: update_non_local_matrix_data: 0.317 [ms]
[OGL LOG][Proc: 0]p: update_build_repartitioner: 1.022 [ms]
[OGL LOG][Proc: 0]p: update_repartitioned_existing: 3.762 [ms]
[OGL LOG][Proc: 0]p: update_offload_local_values: 2.02 [ms]
[OGL LOG][Proc: 0]p: update_offload_non_local_values: 0.066 [ms]
[OGL LOG][Proc: 0]p_matrix: call_update: 7.091 [ms]
[OGL LOG][Proc: 0]p_rhs: call_update: 1.989 [ms]
[OGL LOG][Proc: 0]p: init_precond: 0.05 [ms]
[OGL LOG][StoppingCriterion.H:372] Creating stopping criterion with minIter 462 frequency 12
[OGL LOG][Proc: 0]p: generate_solver: 0.023 [ms]
[OGL LOG][Proc: 0]p: solve: 576.349 [ms]
[OGL LOG][Proc: 0]p: copy_x_back: 2.221 [ms]
[OGL LOG][lduLduBase.H:319] 
Statistics:
	Time per iteration: 749 [mu s]
	Time per residual norm calculation: 231.000000 [mu s]
	Time per iteration and DOF: 0.749000 [ns]
	Retrieve results bandwith 0.450000 [GByte/s]
[OGL LOG][Proc: 0]p: solve_multi_gpu: 588.045 [ms]
nonehipGKOCG:  Solving for p, Initial residual = 0.580518, Final residual = 8.54315e-05, No Iterations 769
linear solve p 593.196 [ms]
[INFO] SolveP: 593.223 [ms]
time step continuity errors : sum local = 1.90841e-08, global = 4.20066e-21, cumulative = 6.02459e-22
[INFO] ContinuityError: 2.763 [ms]
[INFO] CorrectBoundary: 1.473 [ms]
[INFO] PISOStep: 624.167 [ms]
[INFO] TimeStep: 1267.15 [ms]
ExecutionTime = 5.63 s  ClockTime = 6 s

Time = 0.002

Courant Number mean: 0.0388747 max: 0.452919
[INFO] MatrixAssemblyU: 10.129 [ms]
DILUPBiCGStab:  Solving for Ux, Initial residual = 0.031912, Final residual = 0.00019761, No Iterations 5
DILUPBiCGStab:  Solving for Uy, Initial residual = 0.081414, Final residual = 0.000429162, No Iterations 5
DILUPBiCGStab:  Solving for Uz, Initial residual = 0.27885, Final residual = 0.00130183, No Iterations 5
linear solve U 69.466 [ms]
[INFO] MomentumPredictor: 74.936 [ms]
[INFO] MatrixAssemblyPI: 8.889 [ms]
[INFO] AdjustPhi: 6.496 [ms]
[INFO] ConstrainPressure: 0.003 [ms]
[INFO] MatrixAssemblyPII: 5.367 [ms]
[OGL LOG][Proc: 0]: global_index_init: 0.033 [ms]
[OGL LOG][Proc: 0]p_local_coeffs: call_update: 0 [ms]
[OGL LOG][Proc: 0]p_non_local_coeffs: call_update: 0 [ms]
[OGL LOG][Proc: 0]p: update_local_matrix_data: 3.544 [ms]
[OGL LOG][Proc: 0]p: update_non_local_matrix_data: 0.442 [ms]
[OGL LOG][Proc: 0]p: update_build_repartitioner: 0.558 [ms]
[OGL LOG][Proc: 0]p: update_repartitioned_existing: 6.711 [ms]
[OGL LOG][Proc: 0]p: update_offload_local_values: 2.078 [ms]
[OGL LOG][Proc: 0]p: update_offload_non_local_values: 0.061 [ms]
[OGL LOG][Proc: 0]p_matrix: call_update: 9.636 [ms]
[OGL LOG][Proc: 0]p_rhs: call_update: 1.329 [ms]
[OGL LOG][Proc: 0]p: init_precond: 0.053 [ms]
[OGL LOG][StoppingCriterion.H:372] Creating stopping criterion with minIter 461 frequency 10
[OGL LOG][Proc: 0]p: generate_solver: 0.024 [ms]
[OGL LOG][Proc: 0]p: solve: 530.608 [ms]
[OGL LOG][Proc: 0]p: copy_x_back: 2.961 [ms]
[OGL LOG][lduLduBase.H:319] 
Statistics:
	Time per iteration: 688 [mu s]
	Time per residual norm calculation: 224.000000 [mu s]
	Time per iteration and DOF: 0.688000 [ns]
	Retrieve results bandwith 0.337000 [GByte/s]
[OGL LOG][Proc: 0]p: solve_multi_gpu: 544.868 [ms]
nonehipGKOCG:  Solving for p, Initial residual = 0.413255, Final residual = 4.52203e-05, No Iterations 771
linear solve p 549.72 [ms]
[INFO] SolveP: 549.747 [ms]
time step continuity errors : sum local = 8.85552e-09, global = -6.10996e-21, cumulative = -5.5075e-21
[INFO] ContinuityError: 4.57 [ms]
[INFO] CorrectBoundary: 1.121 [ms]
[INFO] PISOStep: 588.697 [ms]
[INFO] MatrixAssemblyPI: 9.971 [ms]
[INFO] AdjustPhi: 1.727 [ms]
[INFO] ConstrainPressure: 0.002 [ms]
[INFO] MatrixAssemblyPII: 6.219 [ms]
[OGL LOG][Proc: 0]: global_index_init: 0.042 [ms]
[OGL LOG][Proc: 0]p_local_coeffs: call_update: 0 [ms]
[OGL LOG][Proc: 0]p_non_local_coeffs: call_update: 0 [ms]
[OGL LOG][Proc: 0]p: update_local_matrix_data: 3.115 [ms]
[OGL LOG][Proc: 0]p: update_non_local_matrix_data: 0.865 [ms]
[OGL LOG][Proc: 0]p: update_build_repartitioner: 0.785 [ms]
[OGL LOG][Proc: 0]p: update_repartitioned_existing: 3.717 [ms]
[OGL LOG][Proc: 0]p: update_offload_local_values: 2.093 [ms]
[OGL LOG][Proc: 0]p: update_offload_non_local_values: 0.063 [ms]
[OGL LOG][Proc: 0]p_matrix: call_update: 6.857 [ms]
[OGL LOG][Proc: 0]p_rhs: call_update: 3.236 [ms]
[OGL LOG][Proc: 0]p: init_precond: 0.054 [ms]
[OGL LOG][StoppingCriterion.H:372] Creating stopping criterion with minIter 462 frequency 10
[OGL LOG][Proc: 0]p: generate_solver: 0.023 [ms]
[OGL LOG][Proc: 0]p: solve: 536.046 [ms]
[OGL LOG][Proc: 0]p: copy_x_back: 4.4 [ms]
[OGL LOG][lduLduBase.H:319] 
Statistics:
	Time per iteration: 704 [mu s]
	Time per residual norm calculation: 227.000000 [mu s]
	Time per iteration and DOF: 0.704000 [ns]
	Retrieve results bandwith 0.227000 [GByte/s]
[OGL LOG][Proc: 0]p: solve_multi_gpu: 550.863 [ms]
nonehipGKOCG:  Solving for p, Initial residual = 0.351349, Final residual = 9.03325e-05, No Iterations 761
linear solve p 557.293 [ms]
[INFO] SolveP: 557.319 [ms]
time step continuity errors : sum local = 1.78661e-08, global = 4.16743e-21, cumulative = -1.34007e-21
[INFO] ContinuityError: 5.344 [ms]
[INFO] CorrectBoundary: 0.808 [ms]
[INFO] PISOStep: 588.727 [ms]
[INFO] TimeStep: 1265.21 [ms]
ExecutionTime = 6.87 s  ClockTime = 8 s

Time = 0.0025

Courant Number mean: 0.0439264 max: 0.459604
[INFO] MatrixAssemblyU: 8.895 [ms]
DILUPBiCGStab:  Solving for Ux, Initial residual = 0.0235187, Final residual = 0.000127016, No Iterations 5
DILUPBiCGStab:  Solving for Uy, Initial residual = 0.0515593, Final residual = 0.000259197, No Iterations 5
DILUPBiCGStab:  Solving for Uz, Initial residual = 0.0998601, Final residual = 0.000507612, No Iterations 5
linear solve U 74.096 [ms]
[INFO] MomentumPredictor: 80.268 [ms]
[INFO] MatrixAssemblyPI: 8.98 [ms]
[INFO] AdjustPhi: 3.785 [ms]
[INFO] ConstrainPressure: 0.002 [ms]
[INFO] MatrixAssemblyPII: 5.34 [ms]
[OGL LOG][Proc: 0]: global_index_init: 0.035 [ms]
[OGL LOG][Proc: 0]p_local_coeffs: call_update: 0 [ms]
[OGL LOG][Proc: 0]p_non_local_coeffs: call_update: 0 [ms]
[OGL LOG][Proc: 0]p: update_local_matrix_data: 3.049 [ms]
[OGL LOG][Proc: 0]p: update_non_local_matrix_data: 0.825 [ms]
[OGL LOG][Proc: 0]p: update_build_repartitioner: 0.803 [ms]
[OGL LOG][Proc: 0]p: update_repartitioned_existing: 5.205 [ms]
[OGL LOG][Proc: 0]p: update_offload_local_values: 1.898 [ms]
[OGL LOG][Proc: 0]p: update_offload_non_local_values: 0.068 [ms]
[OGL LOG][Proc: 0]p_matrix: call_update: 8.201 [ms]
[OGL LOG][Proc: 0]p_rhs: call_update: 2.629 [ms]
[OGL LOG][Proc: 0]p: init_precond: 0.05 [ms]
[OGL LOG][StoppingCriterion.H:372] Creating stopping criterion with minIter 456 frequency 10
[OGL LOG][Proc: 0]p: generate_solver: 0.022 [ms]
[OGL LOG][Proc: 0]p: solve: 500.074 [ms]
[OGL LOG][Proc: 0]p: copy_x_back: 3.245 [ms]
[OGL LOG][lduLduBase.H:319] 
Statistics:
	Time per iteration: 684 [mu s]
	Time per residual norm calculation: 235.000000 [mu s]
	Time per iteration and DOF: 0.684000 [ns]
	Retrieve results bandwith 0.308000 [GByte/s]
[OGL LOG][Proc: 0]p: solve_multi_gpu: 514.516 [ms]
nonehipGKOCG:  Solving for p, Initial residual = 0.315368, Final residual = 8.6972e-05, No Iterations 731
linear solve p 519.261 [ms]
[INFO] SolveP: 519.287 [ms]
time step continuity errors : sum local = 1.40566e-08, global = -3.32558e-21, cumulative = -4.66565e-21
[INFO] ContinuityError: 2.47 [ms]
[INFO] CorrectBoundary: 0.116 [ms]
[INFO] PISOStep: 551.431 [ms]
[INFO] MatrixAssemblyPI: 10.217 [ms]
[INFO] AdjustPhi: 1.785 [ms]
[INFO] ConstrainPressure: 0.002 [ms]
[INFO] MatrixAssemblyPII: 2.817 [ms]
[OGL LOG][Proc: 0]: global_index_init: 0.039 [ms]
[OGL LOG][Proc: 0]p_local_coeffs: call_update: 0 [ms]
[OGL LOG][Proc: 0]p_non_local_coeffs: call_update: 0 [ms]
[OGL LOG][Proc: 0]p: update_local_matrix_data: 3.758 [ms]
[OGL LOG][Proc: 0]p: update_non_local_matrix_data: 0.408 [ms]
[OGL LOG][Proc: 0]p: update_build_repartitioner: 0.527 [ms]
[OGL LOG][Proc: 0]p: update_repartitioned_existing: 4.346 [ms]
[OGL LOG][Proc: 0]p: update_offload_local_values: 2.416 [ms]
[OGL LOG][Proc: 0]p: update_offload_non_local_values: 0.071 [ms]
[OGL LOG][Proc: 0]p_matrix: call_update: 7.61 [ms]
[OGL LOG][Proc: 0]p_rhs: call_update: 1.493 [ms]
[OGL LOG][Proc: 0]p: init_precond: 0.053 [ms]
[OGL LOG][StoppingCriterion.H:372] Creating stopping criterion with minIter 438 frequency 12
[OGL LOG][Proc: 0]p: generate_solver: 0.022 [ms]
[OGL LOG][Proc: 0]p: solve: 487.513 [ms]
[OGL LOG][Proc: 0]p: copy_x_back: 3.051 [ms]
[OGL LOG][lduLduBase.H:319] 
Statistics:
	Time per iteration: 665 [mu s]
	Time per residual norm calculation: 226.000000 [mu s]
	Time per iteration and DOF: 0.665000 [ns]
	Retrieve results bandwith 0.327000 [GByte/s]
[OGL LOG][Proc: 0]p: solve_multi_gpu: 499.987 [ms]
nonehipGKOCG:  Solving for p, Initial residual = 0.2698, Final residual = 7.59478e-05, No Iterations 733
linear solve p 506.076 [ms]
[INFO] SolveP: 506.115 [ms]
time step continuity errors : sum local = 1.21836e-08, global = -6.49438e-21, cumulative = -1.116e-20
[INFO] ContinuityError: 2.852 [ms]
[INFO] CorrectBoundary: 0.399 [ms]
[INFO] PISOStep: 534.898 [ms]
[INFO] TimeStep: 1179.11 [ms]
ExecutionTime = 8.02 s  ClockTime = 9 s

Time = 0.003

Courant Number mean: 0.0479663 max: 0.463844
[INFO] MatrixAssemblyU: 9.246 [ms]
DILUPBiCGStab:  Solving for Ux, Initial residual = 0.0178989, Final residual = 9.39216e-05, No Iterations 5
DILUPBiCGStab:  Solving for Uy, Initial residual = 0.040156, Final residual = 0.000138746, No Iterations 5
DILUPBiCGStab:  Solving for Uz, Initial residual = 0.0865599, Final residual = 0.00041661, No Iterations 5
linear solve U 68.515 [ms]
[INFO] MomentumPredictor: 73.76 [ms]
[INFO] MatrixAssemblyPI: 9.205 [ms]
[INFO] AdjustPhi: 3.836 [ms]
[INFO] ConstrainPressure: 0.002 [ms]
[INFO] MatrixAssemblyPII: 2.038 [ms]
[OGL LOG][Proc: 0]: global_index_init: 0.062 [ms]
[OGL LOG][Proc: 0]p_local_coeffs: call_update: 0 [ms]
[OGL LOG][Proc: 0]p_non_local_coeffs: call_update: 0 [ms]
[OGL LOG][Proc: 0]p: update_local_matrix_data: 3.113 [ms]
[OGL LOG][Proc: 0]p: update_non_local_matrix_data: 0.84 [ms]
[OGL LOG][Proc: 0]p: update_build_repartitioner: 0.777 [ms]
[OGL LOG][Proc: 0]p: update_repartitioned_existing: 3.624 [ms]
[OGL LOG][Proc: 0]p: update_offload_local_values: 1.894 [ms]
[OGL LOG][Proc: 0]p: update_offload_non_local_values: 0.25 [ms]
[OGL LOG][Proc: 0]p_matrix: call_update: 6.819 [ms]
[OGL LOG][Proc: 0]p_rhs: call_update: 2.198 [ms]
[OGL LOG][Proc: 0]p: init_precond: 0.052 [ms]
[OGL LOG][StoppingCriterion.H:372] Creating stopping criterion with minIter 439 frequency 12
[OGL LOG][Proc: 0]p: generate_solver: 0.023 [ms]
[OGL LOG][Proc: 0]p: solve: 498.382 [ms]
[OGL LOG][Proc: 0]p: copy_x_back: 3.061 [ms]
[OGL LOG][lduLduBase.H:319] 
Statistics:
	Time per iteration: 679 [mu s]
	Time per residual norm calculation: 234.000000 [mu s]
	Time per iteration and DOF: 0.679000 [ns]
	Retrieve results bandwith 0.326000 [GByte/s]
[OGL LOG][Proc: 0]p: solve_multi_gpu: 510.783 [ms]
nonehipGKOCG:  Solving for p, Initial residual = 0.197146, Final residual = 7.10532e-05, No Iterations 733
linear solve p 515.507 [ms]
[INFO] SolveP: 515.531 [ms]
time step continuity errors : sum local = 1.10844e-08, global = 2.45354e-21, cumulative = -8.7065e-21
[INFO] ContinuityError: 2.192 [ms]
[INFO] CorrectBoundary: 0.088 [ms]
[INFO] PISOStep: 542.043 [ms]
[INFO] MatrixAssemblyPI: 9.126 [ms]
[INFO] AdjustPhi: 3.089 [ms]
[INFO] ConstrainPressure: 0.002 [ms]
[INFO] MatrixAssemblyPII: 4.08 [ms]
[OGL LOG][Proc: 0]: global_index_init: 0.069 [ms]
[OGL LOG][Proc: 0]p_local_coeffs: call_update: 0 [ms]
[OGL LOG][Proc: 0]p_non_local_coeffs: call_update: 0 [ms]
[OGL LOG][Proc: 0]p: update_local_matrix_data: 3.056 [ms]
[OGL LOG][Proc: 0]p: update_non_local_matrix_data: 0.347 [ms]
[OGL LOG][Proc: 0]p: update_build_repartitioner: 1.469 [ms]
[OGL LOG][Proc: 0]p: update_repartitioned_existing: 3.597 [ms]
[OGL LOG][Proc: 0]p: update_offload_local_values: 2.037 [ms]
[OGL LOG][Proc: 0]p: update_offload_non_local_values: 0.06 [ms]
[OGL LOG][Proc: 0]p_matrix: call_update: 7.375 [ms]
[OGL LOG][Proc: 0]p_rhs: call_update: 3.977 [ms]
[OGL LOG][Proc: 0]p: init_precond: 0.053 [ms]
[OGL LOG][StoppingCriterion.H:372] Creating stopping criterion with minIter 439 frequency 12
[OGL LOG][Proc: 0]p: generate_solver: 0.023 [ms]
[OGL LOG][Proc: 0]p: solve: 533.516 [ms]
[OGL LOG][Proc: 0]p: copy_x_back: 2.939 [ms]
[OGL LOG][lduLduBase.H:319] 
Statistics:
	Time per iteration: 739 [mu s]
	Time per residual norm calculation: 260.000000 [mu s]
	Time per iteration and DOF: 0.739000 [ns]
	Retrieve results bandwith 0.340000 [GByte/s]
[OGL LOG][Proc: 0]p: solve_multi_gpu: 548.177 [ms]
nonehipGKOCG:  Solving for p, Initial residual = 0.163916, Final residual = 9.05973e-05, No Iterations 721
linear solve p 552.488 [ms]
[INFO] SolveP: 552.516 [ms]
time step continuity errors : sum local = 1.41458e-08, global = 1.05575e-21, cumulative = -7.65074e-21
[INFO] ContinuityError: 2.45 [ms]
[INFO] CorrectBoundary: 2.926 [ms]
[INFO] PISOStep: 579.167 [ms]
[INFO] TimeStep: 1208.2 [ms]
ExecutionTime = 9.2 s  ClockTime = 10 s

Time = 0.0035

Courant Number mean: 0.0513755 max: 0.466722
[INFO] MatrixAssemblyU: 7.432 [ms]
DILUPBiCGStab:  Solving for Ux, Initial residual = 0.0146427, Final residual = 6.72247e-05, No Iterations 5
DILUPBiCGStab:  Solving for Uy, Initial residual = 0.0317843, Final residual = 0.00011968, No Iterations 5
DILUPBiCGStab:  Solving for Uz, Initial residual = 0.0573508, Final residual = 0.000253261, No Iterations 5
linear solve U 71.858 [ms]
[INFO] MomentumPredictor: 77.56 [ms]
[INFO] MatrixAssemblyPI: 10.672 [ms]
[INFO] AdjustPhi: 1.986 [ms]
[INFO] ConstrainPressure: 0.002 [ms]
[INFO] MatrixAssemblyPII: 4.148 [ms]
[OGL LOG][Proc: 0]: global_index_init: 0.032 [ms]
[OGL LOG][Proc: 0]p_local_coeffs: call_update: 0 [ms]
[OGL LOG][Proc: 0]p_non_local_coeffs: call_update: 0 [ms]
[OGL LOG][Proc: 0]p: update_local_matrix_data: 3.058 [ms]
[OGL LOG][Proc: 0]p: update_non_local_matrix_data: 0.915 [ms]
[OGL LOG][Proc: 0]p: update_build_repartitioner: 0.664 [ms]
[OGL LOG][Proc: 0]p: update_repartitioned_existing: 5.602 [ms]
[OGL LOG][Proc: 0]p: update_offload_local_values: 1.729 [ms]
[OGL LOG][Proc: 0]p: update_offload_non_local_values: 0.062 [ms]
[OGL LOG][Proc: 0]p_matrix: call_update: 8.265 [ms]
[OGL LOG][Proc: 0]p_rhs: call_update: 2.404 [ms]
[OGL LOG][Proc: 0]p: init_precond: 0.049 [ms]
[OGL LOG][StoppingCriterion.H:372] Creating stopping criterion with minIter 432 frequency 12
[OGL LOG][Proc: 0]p: generate_solver: 0.022 [ms]
[OGL LOG][Proc: 0]p: solve: 338.606 [ms]
[OGL LOG][Proc: 0]p: copy_x_back: 2.082 [ms]
[OGL LOG][lduLduBase.H:319] 
Statistics:
	Time per iteration: 740 [mu s]
	Time per residual norm calculation: 265.000000 [mu s]
	Time per iteration and DOF: 0.740000 [ns]
	Retrieve results bandwith 0.480000 [GByte/s]
[OGL LOG][Proc: 0]p: solve_multi_gpu: 351.728 [ms]
nonehipGKOCG:  Solving for p, Initial residual = 0.139385, Final residual = 9.39211e-05, No Iterations 457
linear solve p 357.052 [ms]
[INFO] SolveP: 357.078 [ms]
time step continuity errors : sum local = 1.52005e-08, global = -5.49227e-21, cumulative = -1.3143e-20
[INFO] ContinuityError: 3.294 [ms]
[INFO] CorrectBoundary: 1.694 [ms]
[INFO] PISOStep: 386.423 [ms]
[INFO] MatrixAssemblyPI: 10.377 [ms]
[INFO] AdjustPhi: 1.95 [ms]
[INFO] ConstrainPressure: 0.002 [ms]
[INFO] MatrixAssemblyPII: 3.374 [ms]
[OGL LOG][Proc: 0]: global_index_init: 0.019 [ms]
[OGL LOG][Proc: 0]p_local_coeffs: call_update: 0 [ms]
[OGL LOG][Proc: 0]p_non_local_coeffs: call_update: 0 [ms]
[OGL LOG][Proc: 0]p: update_local_matrix_data: 3.721 [ms]
[OGL LOG][Proc: 0]p: update_non_local_matrix_data: 0.41 [ms]
[OGL LOG][Proc: 0]p: update_build_repartitioner: 0.608 [ms]
[OGL LOG][Proc: 0]p: update_repartitioned_existing: 4.899 [ms]
[OGL LOG][Proc: 0]p: update_offload_local_values: 2.198 [ms]
[OGL LOG][Proc: 0]p: update_offload_non_local_values: 0.058 [ms]
[OGL LOG][Proc: 0]p_matrix: call_update: 7.999 [ms]
[OGL LOG][Proc: 0]p_rhs: call_update: 1.347 [ms]
[OGL LOG][Proc: 0]p: init_precond: 0.054 [ms]
[OGL LOG][StoppingCriterion.H:372] Creating stopping criterion with minIter 274 frequency 9
[OGL LOG][Proc: 0]p: generate_solver: 0.022 [ms]
[OGL LOG][Proc: 0]p: solve: 232.073 [ms]
[OGL LOG][Proc: 0]p: copy_x_back: 1.729 [ms]
[OGL LOG][lduLduBase.H:319] 
Statistics:
	Time per iteration: 694 [mu s]
	Time per residual norm calculation: 242.000000 [mu s]
	Time per iteration and DOF: 0.694000 [ns]
	Retrieve results bandwith 0.578000 [GByte/s]
[OGL LOG][Proc: 0]p: solve_multi_gpu: 243.475 [ms]
nonehipGKOCG:  Solving for p, Initial residual = 0.116504, Final residual = 9.21899e-05, No Iterations 334
linear solve p 248.827 [ms]
[INFO] SolveP: 248.857 [ms]
time step continuity errors : sum local = 1.40288e-08, global = 5.61035e-22, cumulative = -1.2582e-20
[INFO] ContinuityError: 4.688 [ms]
[INFO] CorrectBoundary: 0.945 [ms]
[INFO] PISOStep: 277.772 [ms]
[INFO] TimeStep: 751.004 [ms]
ExecutionTime = 9.92 s  ClockTime = 11 s

Time = 0.004

Courant Number mean: 0.0543148 max: 0.468932
[INFO] MatrixAssemblyU: 9.383 [ms]
DILUPBiCGStab:  Solving for Ux, Initial residual = 0.0122828, Final residual = 5.1285e-05, No Iterations 5
DILUPBiCGStab:  Solving for Uy, Initial residual = 0.0265441, Final residual = 7.80199e-05, No Iterations 5
DILUPBiCGStab:  Solving for Uz, Initial residual = 0.0518493, Final residual = 0.000176713, No Iterations 5
linear solve U 72.577 [ms]
[INFO] MomentumPredictor: 78.439 [ms]
[INFO] MatrixAssemblyPI: 9.562 [ms]
[INFO] AdjustPhi: 1.896 [ms]
[INFO] ConstrainPressure: 0.002 [ms]
[INFO] MatrixAssemblyPII: 2.686 [ms]
[OGL LOG][Proc: 0]: global_index_init: 0.01 [ms]
[OGL LOG][Proc: 0]p_local_coeffs: call_update: 0 [ms]
[OGL LOG][Proc: 0]p_non_local_coeffs: call_update: 0 [ms]
[OGL LOG][Proc: 0]p: update_local_matrix_data: 3.08 [ms]
[OGL LOG][Proc: 0]p: update_non_local_matrix_data: 0.375 [ms]
[OGL LOG][Proc: 0]p: update_build_repartitioner: 1.076 [ms]
[OGL LOG][Proc: 0]p: update_repartitioned_existing: 3.587 [ms]
[OGL LOG][Proc: 0]p: update_offload_local_values: 2.03 [ms]
[OGL LOG][Proc: 0]p: update_offload_non_local_values: 0.079 [ms]
[OGL LOG][Proc: 0]p_matrix: call_update: 7.045 [ms]
[OGL LOG][Proc: 0]p_rhs: call_update: 1.809 [ms]
[OGL LOG][Proc: 0]p: init_precond: 0.049 [ms]
[OGL LOG][StoppingCriterion.H:372] Creating stopping criterion with minIter 200 frequency 8
[OGL LOG][Proc: 0]p: generate_solver: 0.022 [ms]
[OGL LOG][Proc: 0]p: solve: 237.31 [ms]
[OGL LOG][Proc: 0]p: copy_x_back: 3.275 [ms]
[OGL LOG][lduLduBase.H:319] 
Statistics:
	Time per iteration: 721 [mu s]
	Time per residual norm calculation: 250.000000 [mu s]
	Time per iteration and DOF: 0.721000 [ns]
	Retrieve results bandwith 0.305000 [GByte/s]
[OGL LOG][Proc: 0]p: solve_multi_gpu: 249.779 [ms]
nonehipGKOCG:  Solving for p, Initial residual = 0.0907303, Final residual = 8.58722e-05, No Iterations 329
linear solve p 253.967 [ms]
[INFO] SolveP: 253.992 [ms]
time step continuity errors : sum local = 1.24847e-08, global = 3.60858e-22, cumulative = -1.22211e-20
[INFO] ContinuityError: 3.061 [ms]
[INFO] CorrectBoundary: 0.073 [ms]
[INFO] PISOStep: 281.363 [ms]
[INFO] MatrixAssemblyPI: 10.335 [ms]
[INFO] AdjustPhi: 2.368 [ms]
[INFO] ConstrainPressure: 0.002 [ms]
[INFO] MatrixAssemblyPII: 3.295 [ms]
[OGL LOG][Proc: 0]: global_index_init: 0.026 [ms]
[OGL LOG][Proc: 0]p_local_coeffs: call_update: 0 [ms]
[OGL LOG][Proc: 0]p_non_local_coeffs: call_update: 0 [ms]
[OGL LOG][Proc: 0]p: update_local_matrix_data: 3.127 [ms]
[OGL LOG][Proc: 0]p: update_non_local_matrix_data: 0.385 [ms]
[OGL LOG][Proc: 0]p: update_build_repartitioner: 0.926 [ms]
[OGL LOG][Proc: 0]p: update_repartitioned_existing: 3.59 [ms]
[OGL LOG][Proc: 0]p: update_offload_local_values: 2.723 [ms]
[OGL LOG][Proc: 0]p: update_offload_non_local_values: 0.068 [ms]
[OGL LOG][Proc: 0]p_matrix: call_update: 7.531 [ms]
[OGL LOG][Proc: 0]p_rhs: call_update: 1.323 [ms]
[OGL LOG][Proc: 0]p: init_precond: 0.051 [ms]
[OGL LOG][StoppingCriterion.H:372] Creating stopping criterion with minIter 197 frequency 8
[OGL LOG][Proc: 0]p: generate_solver: 0.024 [ms]
[OGL LOG][Proc: 0]p: solve: 211.355 [ms]
[OGL LOG][Proc: 0]p: copy_x_back: 1.976 [ms]
[OGL LOG][lduLduBase.H:319] 
Statistics:
	Time per iteration: 658 [mu s]
	Time per residual norm calculation: 226.000000 [mu s]
	Time per iteration and DOF: 0.658000 [ns]
	Retrieve results bandwith 0.506000 [GByte/s]
[OGL LOG][Proc: 0]p: solve_multi_gpu: 222.51 [ms]
nonehipGKOCG:  Solving for p, Initial residual = 0.0750366, Final residual = 9.7394e-05, No Iterations 321
linear solve p 226.774 [ms]
[INFO] SolveP: 226.798 [ms]
time step continuity errors : sum local = 1.417e-08, global = -3.60527e-21, cumulative = -1.58264e-20
[INFO] ContinuityError: 1.322 [ms]
[INFO] CorrectBoundary: 0.118 [ms]
[INFO] PISOStep: 251.354 [ms]
[INFO] TimeStep: 623.161 [ms]
ExecutionTime = 10.53 s  ClockTime = 11 s

Time = 0.0045

Courant Number mean: 0.0568923 max: 0.470634
[INFO] MatrixAssemblyU: 9.098 [ms]
DILUPBiCGStab:  Solving for Ux, Initial residual = 0.0105346, Final residual = 3.9796e-05, No Iterations 5
DILUPBiCGStab:  Solving for Uy, Initial residual = 0.0226905, Final residual = 6.8071e-05, No Iterations 5
DILUPBiCGStab:  Solving for Uz, Initial residual = 0.0434008, Final residual = 0.000129074, No Iterations 5
linear solve U 68.722 [ms]
[INFO] MomentumPredictor: 72.223 [ms]
[INFO] MatrixAssemblyPI: 9.842 [ms]
[INFO] AdjustPhi: 0.837 [ms]
[INFO] ConstrainPressure: 0.002 [ms]
[INFO] MatrixAssemblyPII: 4.394 [ms]
[OGL LOG][Proc: 0]: global_index_init: 0.045 [ms]
[OGL LOG][Proc: 0]p_local_coeffs: call_update: 0 [ms]
[OGL LOG][Proc: 0]p_non_local_coeffs: call_update: 0 [ms]
[OGL LOG][Proc: 0]p: update_local_matrix_data: 3.033 [ms]
[OGL LOG][Proc: 0]p: update_non_local_matrix_data: 0.491 [ms]
[OGL LOG][Proc: 0]p: update_build_repartitioner: 0.507 [ms]
[OGL LOG][Proc: 0]p: update_repartitioned_existing: 3.622 [ms]
[OGL LOG][Proc: 0]p: update_offload_local_values: 2.602 [ms]
[OGL LOG][Proc: 0]p: update_offload_non_local_values: 0.074 [ms]
[OGL LOG][Proc: 0]p_matrix: call_update: 7.058 [ms]
[OGL LOG][Proc: 0]p_rhs: call_update: 1.068 [ms]
[OGL LOG][Proc: 0]p: init_precond: 0.05 [ms]
[OGL LOG][StoppingCriterion.H:372] Creating stopping criterion with minIter 192 frequency 8
[OGL LOG][Proc: 0]p: generate_solver: 0.023 [ms]
[OGL LOG][Proc: 0]p: solve: 254.818 [ms]
[OGL LOG][Proc: 0]p: copy_x_back: 1.459 [ms]
[OGL LOG][lduLduBase.H:319] 
Statistics:
	Time per iteration: 774 [mu s]
	Time per residual norm calculation: 232.000000 [mu s]
	Time per iteration and DOF: 0.774000 [ns]
	Retrieve results bandwith 0.685000 [GByte/s]
[OGL LOG][Proc: 0]p: solve_multi_gpu: 264.723 [ms]
nonehipGKOCG:  Solving for p, Initial residual = 0.0666291, Final residual = 9.59815e-05, No Iterations 329
linear solve p 269.569 [ms]
[INFO] SolveP: 269.593 [ms]
time step continuity errors : sum local = 1.53973e-08, global = 2.87414e-21, cumulative = -1.29522e-20
[INFO] ContinuityError: 2.069 [ms]
[INFO] CorrectBoundary: 0.775 [ms]
[INFO] PISOStep: 294.253 [ms]
[INFO] MatrixAssemblyPI: 7.868 [ms]
[INFO] AdjustPhi: 3.94 [ms]
[INFO] ConstrainPressure: 0.003 [ms]
[INFO] MatrixAssemblyPII: 1.985 [ms]
[OGL LOG][Proc: 0]: global_index_init: 0.051 [ms]
[OGL LOG][Proc: 0]p_local_coeffs: call_update: 0 [ms]
[OGL LOG][Proc: 0]p_non_local_coeffs: call_update: 0 [ms]
[OGL LOG][Proc: 0]p: update_local_matrix_data: 3.095 [ms]
[OGL LOG][Proc: 0]p: update_non_local_matrix_data: 0.895 [ms]
[OGL LOG][Proc: 0]p: update_build_repartitioner: 0.809 [ms]
[OGL LOG][Proc: 0]p: update_repartitioned_existing: 3.569 [ms]
[OGL LOG][Proc: 0]p: update_offload_local_values: 1.966 [ms]
[OGL LOG][Proc: 0]p: update_offload_non_local_values: 0.06 [ms]
[OGL LOG][Proc: 0]p_matrix: call_update: 6.623 [ms]
[OGL LOG][Proc: 0]p_rhs: call_update: 3.53 [ms]
[OGL LOG][Proc: 0]p: init_precond: 0.05 [ms]
[OGL LOG][StoppingCriterion.H:372] Creating stopping criterion with minIter 197 frequency 6
[OGL LOG][Proc: 0]p: generate_solver: 0.022 [ms]
[OGL LOG][Proc: 0]p: solve: 230.601 [ms]
[OGL LOG][Proc: 0]p: copy_x_back: 1.607 [ms]
[OGL LOG][lduLduBase.H:319] 
Statistics:
	Time per iteration: 722 [mu s]
	Time per residual norm calculation: 250.000000 [mu s]
	Time per iteration and DOF: 0.722000 [ns]
	Retrieve results bandwith 0.622000 [GByte/s]
[OGL LOG][Proc: 0]p: solve_multi_gpu: 242.671 [ms]
nonehipGKOCG:  Solving for p, Initial residual = 0.0555616, Final residual = 9.50788e-05, No Iterations 319
linear solve p 248.085 [ms]
[INFO] SolveP: 248.109 [ms]
time step continuity errors : sum local = 1.41765e-08, global = 7.01708e-21, cumulative = -5.93517e-21
[INFO] ContinuityError: 2.664 [ms]
[INFO] CorrectBoundary: 0.297 [ms]
[INFO] PISOStep: 272.881 [ms]
[INFO] TimeStep: 652.374 [ms]
ExecutionTime = 11.18 s  ClockTime = 12 s

Time = 0.005

Courant Number mean: 0.059188 max: 0.47203
[INFO] MatrixAssemblyU: 9.063 [ms]
DILUPBiCGStab:  Solving for Ux, Initial residual = 0.00921631, Final residual = 3.32175e-05, No Iterations 5
DILUPBiCGStab:  Solving for Uy, Initial residual = 0.0197563, Final residual = 5.13585e-05, No Iterations 5
DILUPBiCGStab:  Solving for Uz, Initial residual = 0.0385787, Final residual = 0.000104422, No Iterations 5
linear solve U 67.738 [ms]
[INFO] MomentumPredictor: 72.91 [ms]
[INFO] MatrixAssemblyPI: 9.408 [ms]
[INFO] AdjustPhi: 3.124 [ms]
[INFO] ConstrainPressure: 0.002 [ms]
[INFO] MatrixAssemblyPII: 3.591 [ms]
[OGL LOG][Proc: 0]: global_index_init: 0.07 [ms]
[OGL LOG][Proc: 0]p_local_coeffs: call_update: 0 [ms]
[OGL LOG][Proc: 0]p_non_local_coeffs: call_update: 0 [ms]
[OGL LOG][Proc: 0]p: update_local_matrix_data: 3.183 [ms]
[OGL LOG][Proc: 0]p: update_non_local_matrix_data: 0.354 [ms]
[OGL LOG][Proc: 0]p: update_build_repartitioner: 1.074 [ms]
[OGL LOG][Proc: 0]p: update_repartitioned_existing: 3.592 [ms]
[OGL LOG][Proc: 0]p: update_offload_local_values: 2.332 [ms]
[OGL LOG][Proc: 0]p: update_offload_non_local_values: 0.065 [ms]
[OGL LOG][Proc: 0]p_matrix: call_update: 7.281 [ms]
[OGL LOG][Proc: 0]p_rhs: call_update: 3.492 [ms]
[OGL LOG][Proc: 0]p: init_precond: 0.058 [ms]
[OGL LOG][StoppingCriterion.H:372] Creating stopping criterion with minIter 191 frequency 7
[OGL LOG][Proc: 0]p: generate_solver: 0.024 [ms]
[OGL LOG][Proc: 0]p: solve: 254.605 [ms]
[OGL LOG][Proc: 0]p: copy_x_back: 1.789 [ms]
[OGL LOG][lduLduBase.H:319] 
Statistics:
	Time per iteration: 788 [mu s]
	Time per residual norm calculation: 253.000000 [mu s]
	Time per iteration and DOF: 0.788000 [ns]
	Retrieve results bandwith 0.558000 [GByte/s]
[OGL LOG][Proc: 0]p: solve_multi_gpu: 267.525 [ms]
nonehipGKOCG:  Solving for p, Initial residual = 0.0445425, Final residual = 9.21578e-05, No Iterations 323
linear solve p 272.425 [ms]
[INFO] SolveP: 272.449 [ms]
time step continuity errors : sum local = 1.37193e-08, global = -2.77819e-21, cumulative = -8.71336e-21
[INFO] ContinuityError: 2.765 [ms]
[INFO] CorrectBoundary: 0.722 [ms]
[INFO] PISOStep: 300.605 [ms]
[INFO] MatrixAssemblyPI: 8.065 [ms]
[INFO] AdjustPhi: 3.477 [ms]
[INFO] ConstrainPressure: 0.002 [ms]
[INFO] MatrixAssemblyPII: 4.269 [ms]
[OGL LOG][Proc: 0]: global_index_init: 0.063 [ms]
[OGL LOG][Proc: 0]p_local_coeffs: call_update: 0 [ms]
[OGL LOG][Proc: 0]p_non_local_coeffs: call_update: 0 [ms]
[OGL LOG][Proc: 0]p: update_local_matrix_data: 3.063 [ms]
[OGL LOG][Proc: 0]p: update_non_local_matrix_data: 1.07 [ms]
[OGL LOG][Proc: 0]p: update_build_repartitioner: 0.607 [ms]
[OGL LOG][Proc: 0]p: update_repartitioned_existing: 5.576 [ms]
[OGL LOG][Proc: 0]p: update_offload_local_values: 1.569 [ms]
[OGL LOG][Proc: 0]p: update_offload_non_local_values: 0.06 [ms]
[OGL LOG][Proc: 0]p_matrix: call_update: 8.019 [ms]
[OGL LOG][Proc: 0]p_rhs: call_update: 1.358 [ms]
[OGL LOG][Proc: 0]p: init_precond: 0.051 [ms]
[OGL LOG][StoppingCriterion.H:372] Creating stopping criterion with minIter 193 frequency 6
[OGL LOG][Proc: 0]p: generate_solver: 0.023 [ms]
[OGL LOG][Proc: 0]p: solve: 223.477 [ms]
[OGL LOG][Proc: 0]p: copy_x_back: 1.62 [ms]
[OGL LOG][lduLduBase.H:319] 
Statistics:
	Time per iteration: 700 [mu s]
	Time per residual norm calculation: 236.000000 [mu s]
	Time per iteration and DOF: 0.700000 [ns]
	Retrieve results bandwith 0.617000 [GByte/s]
[OGL LOG][Proc: 0]p: solve_multi_gpu: 234.809 [ms]
nonehipGKOCG:  Solving for p, Initial residual = 0.0375968, Final residual = 9.37594e-05, No Iterations 319
linear solve p 240.069 [ms]
[INFO] SolveP: 240.094 [ms]
time step continuity errors : sum local = 1.33403e-08, global = -5.95813e-21, cumulative = -1.46715e-20
[INFO] ContinuityError: 2.535 [ms]
[INFO] CorrectBoundary: 0.644 [ms]
[INFO] PISOStep: 264.893 [ms]
[INFO] TimeStep: 649.182 [ms]
ExecutionTime = 11.8 s  ClockTime = 13 s

Time = 0.0055

Courant Number mean: 0.061248 max: 0.473178
[INFO] MatrixAssemblyU: 9.002 [ms]
DILUPBiCGStab:  Solving for Ux, Initial residual = 0.008145, Final residual = 2.76012e-05, No Iterations 5
DILUPBiCGStab:  Solving for Uy, Initial residual = 0.01746, Final residual = 4.57583e-05, No Iterations 5
DILUPBiCGStab:  Solving for Uz, Initial residual = 0.034703, Final residual = 8.84935e-05, No Iterations 5
linear solve U 66.754 [ms]
[INFO] MomentumPredictor: 72.731 [ms]
[INFO] MatrixAssemblyPI: 11.107 [ms]
[INFO] AdjustPhi: 1.497 [ms]
[INFO] ConstrainPressure: 0.002 [ms]
[INFO] MatrixAssemblyPII: 3.523 [ms]
[OGL LOG][Proc: 0]: global_index_init: 0.027 [ms]
[OGL LOG][Proc: 0]p_local_coeffs: call_update: 0 [ms]
[OGL LOG][Proc: 0]p_non_local_coeffs: call_update: 0 [ms]
[OGL LOG][Proc: 0]p: update_local_matrix_data: 3.061 [ms]
[OGL LOG][Proc: 0]p: update_non_local_matrix_data: 0.394 [ms]
[OGL LOG][Proc: 0]p: update_build_repartitioner: 0.581 [ms]
[OGL LOG][Proc: 0]p: update_repartitioned_existing: 3.564 [ms]
[OGL LOG][Proc: 0]p: update_offload_local_values: 2.456 [ms]
[OGL LOG][Proc: 0]p: update_offload_non_local_values: 0.076 [ms]
[OGL LOG][Proc: 0]p_matrix: call_update: 6.93 [ms]
[OGL LOG][Proc: 0]p_rhs: call_update: 1.596 [ms]
[OGL LOG][Proc: 0]p: init_precond: 0.049 [ms]
[OGL LOG][StoppingCriterion.H:372] Creating stopping criterion with minIter 191 frequency 7
[OGL LOG][Proc: 0]p: generate_solver: 0.023 [ms]
[OGL LOG][Proc: 0]p: solve: 501.129 [ms]
[OGL LOG][Proc: 0]p: copy_x_back: 1.271 [ms]
[OGL LOG][lduLduBase.H:319] 
Statistics:
	Time per iteration: 722 [mu s]
	Time per residual norm calculation: 234.000000 [mu s]
	Time per iteration and DOF: 0.722000 [ns]
	Retrieve results bandwith 0.786000 [GByte/s]
[OGL LOG][Proc: 0]p: solve_multi_gpu: 511.449 [ms]
nonehipGKOCG:  Solving for p, Initial residual = 0.0349682, Final residual = 9.01674e-05, No Iterations 694
linear solve p 517.089 [ms]
[INFO] SolveP: 517.112 [ms]
time step continuity errors : sum local = 1.26904e-08, global = 6.51781e-21, cumulative = -8.15368e-21
[INFO] ContinuityError: 4.112 [ms]
[INFO] CorrectBoundary: 0.416 [ms]
[INFO] PISOStep: 548.058 [ms]
[INFO] MatrixAssemblyPI: 8.901 [ms]
[INFO] AdjustPhi: 3.518 [ms]
[INFO] ConstrainPressure: 0.002 [ms]
[INFO] MatrixAssemblyPII: 3.578 [ms]
[OGL LOG][Proc: 0]: global_index_init: 0.05 [ms]
[OGL LOG][Proc: 0]p_local_coeffs: call_update: 0 [ms]
[OGL LOG][Proc: 0]p_non_local_coeffs: call_update: 0 [ms]
[OGL LOG][Proc: 0]p: update_local_matrix_data: 3.086 [ms]
[OGL LOG][Proc: 0]p: update_non_local_matrix_data: 0.438 [ms]
[OGL LOG][Proc: 0]p: update_build_repartitioner: 1.261 [ms]
[OGL LOG][Proc: 0]p: update_repartitioned_existing: 2.85 [ms]
[OGL LOG][Proc: 0]p: update_offload_local_values: 2.402 [ms]
[OGL LOG][Proc: 0]p: update_offload_non_local_values: 0.075 [ms]
[OGL LOG][Proc: 0]p_matrix: call_update: 6.805 [ms]
[OGL LOG][Proc: 0]p_rhs: call_update: 2.951 [ms]
[OGL LOG][Proc: 0]p: init_precond: 0.049 [ms]
[OGL LOG][StoppingCriterion.H:372] Creating stopping criterion with minIter 416 frequency 9
[OGL LOG][Proc: 0]p: generate_solver: 0.023 [ms]
[OGL LOG][Proc: 0]p: solve: 489.236 [ms]
[OGL LOG][Proc: 0]p: copy_x_back: 2.993 [ms]
[OGL LOG][lduLduBase.H:319] 
Statistics:
	Time per iteration: 704 [mu s]
	Time per residual norm calculation: 267.000000 [mu s]
	Time per iteration and DOF: 0.704000 [ns]
	Retrieve results bandwith 0.334000 [GByte/s]
[OGL LOG][Proc: 0]p: solve_multi_gpu: 502.398 [ms]
nonehipGKOCG:  Solving for p, Initial residual = 0.0297124, Final residual = 7.9571e-05, No Iterations 694
linear solve p 506.829 [ms]
[INFO] SolveP: 506.856 [ms]
time step continuity errors : sum local = 1.12032e-08, global = 3.06995e-21, cumulative = -5.08373e-21
[INFO] ContinuityError: 1.174 [ms]
[INFO] CorrectBoundary: 0.115 [ms]
[INFO] PISOStep: 533.325 [ms]
[INFO] TimeStep: 1167.34 [ms]
ExecutionTime = 12.91 s  ClockTime = 14 s

Time = 0.006

Courant Number mean: 0.06312 max: 0.474157
[INFO] MatrixAssemblyU: 10.423 [ms]
DILUPBiCGStab:  Solving for Ux, Initial residual = 0.00729064, Final residual = 2.41044e-05, No Iterations 5
DILUPBiCGStab:  Solving for Uy, Initial residual = 0.0155831, Final residual = 3.92444e-05, No Iterations 5
DILUPBiCGStab:  Solving for Uz, Initial residual = 0.0308861, Final residual = 7.13855e-05, No Iterations 5
linear solve U 65.867 [ms]
[INFO] MomentumPredictor: 70.368 [ms]
[INFO] MatrixAssemblyPI: 10.524 [ms]
[INFO] AdjustPhi: 0.62 [ms]
[INFO] ConstrainPressure: 0.002 [ms]
[INFO] MatrixAssemblyPII: 3.342 [ms]
[OGL LOG][Proc: 0]: global_index_init: 0.029 [ms]
[OGL LOG][Proc: 0]p_local_coeffs: call_update: 0 [ms]
[OGL LOG][Proc: 0]p_non_local_coeffs: call_update: 0 [ms]
[OGL LOG][Proc: 0]p: update_local_matrix_data: 3.646 [ms]
[OGL LOG][Proc: 0]p: update_non_local_matrix_data: 0.406 [ms]
[OGL LOG][Proc: 0]p: update_build_repartitioner: 0.615 [ms]
[OGL LOG][Proc: 0]p: update_repartitioned_existing: 4.834 [ms]
[OGL LOG][Proc: 0]p: update_offload_local_values: 2.116 [ms]
[OGL LOG][Proc: 0]p: update_offload_non_local_values: 0.064 [ms]
[OGL LOG][Proc: 0]p_matrix: call_update: 7.888 [ms]
[OGL LOG][Proc: 0]p_rhs: call_update: 0.878 [ms]
[OGL LOG][Proc: 0]p: init_precond: 0.051 [ms]
[OGL LOG][StoppingCriterion.H:372] Creating stopping criterion with minIter 416 frequency 11
[OGL LOG][Proc: 0]p: generate_solver: 0.022 [ms]
[OGL LOG][Proc: 0]p: solve: 287.321 [ms]
[OGL LOG][Proc: 0]p: copy_x_back: 1.742 [ms]
[OGL LOG][lduLduBase.H:319] 
Statistics:
	Time per iteration: 685 [mu s]
	Time per residual norm calculation: 238.000000 [mu s]
	Time per iteration and DOF: 0.685000 [ns]
	Retrieve results bandwith 0.574000 [GByte/s]
[OGL LOG][Proc: 0]p: solve_multi_gpu: 298.145 [ms]
nonehipGKOCG:  Solving for p, Initial residual = 0.0249484, Final residual = 1.27859e-05, No Iterations 419
linear solve p 302.926 [ms]
[INFO] SolveP: 302.953 [ms]
time step continuity errors : sum local = 1.89383e-09, global = 4.92935e-21, cumulative = -1.54379e-22
[INFO] ContinuityError: 3.794 [ms]
[INFO] CorrectBoundary: 1.695 [ms]
[INFO] PISOStep: 329.455 [ms]
[INFO] MatrixAssemblyPI: 8.421 [ms]
[INFO] AdjustPhi: 2.669 [ms]
[INFO] ConstrainPressure: 0.002 [ms]
[INFO] MatrixAssemblyPII: 3.413 [ms]
[OGL LOG][Proc: 0]: global_index_init: 0.029 [ms]
[OGL LOG][Proc: 0]p_local_coeffs: call_update: 0 [ms]
[OGL LOG][Proc: 0]p_non_local_coeffs: call_update: 0 [ms]
[OGL LOG][Proc: 0]p: update_local_matrix_data: 3.115 [ms]
[OGL LOG][Proc: 0]p: update_non_local_matrix_data: 0.358 [ms]
[OGL LOG][Proc: 0]p: update_build_repartitioner: 1.113 [ms]
[OGL LOG][Proc: 0]p: update_repartitioned_existing: 3.588 [ms]
[OGL LOG][Proc: 0]p: update_offload_local_values: 2.073 [ms]
[OGL LOG][Proc: 0]p: update_offload_non_local_values: 0.066 [ms]
[OGL LOG][Proc: 0]p_matrix: call_update: 7.091 [ms]
[OGL LOG][Proc: 0]p_rhs: call_update: 2.165 [ms]
[OGL LOG][Proc: 0]p: init_precond: 0.051 [ms]
[OGL LOG][StoppingCriterion.H:372] Creating stopping criterion with minIter 251 frequency 9
[OGL LOG][Proc: 0]p: generate_solver: 0.023 [ms]
[OGL LOG][Proc: 0]p: solve: 219.537 [ms]
[OGL LOG][Proc: 0]p: copy_x_back: 1.669 [ms]
[OGL LOG][lduLduBase.H:319] 
Statistics:
	Time per iteration: 694 [mu s]
	Time per residual norm calculation: 244.000000 [mu s]
	Time per iteration and DOF: 0.694000 [ns]
	Retrieve results bandwith 0.599000 [GByte/s]
[OGL LOG][Proc: 0]p: solve_multi_gpu: 230.783 [ms]
nonehipGKOCG:  Solving for p, Initial residual = 0.0217703, Final residual = 7.34305e-05, No Iterations 316
linear solve p 235.05 [ms]
[INFO] SolveP: 235.075 [ms]
time step continuity errors : sum local = 1.03818e-08, global = 1.5581e-21, cumulative = 1.40372e-21
[INFO] ContinuityError: 1.476 [ms]
[INFO] CorrectBoundary: 0.954 [ms]
[INFO] PISOStep: 260.173 [ms]
[INFO] TimeStep: 671.911 [ms]
ExecutionTime = 13.58 s  ClockTime = 15 s

Time = 0.0065

Courant Number mean: 0.0648242 max: 0.474994
[INFO] MatrixAssemblyU: 9.102 [ms]
DILUPBiCGStab:  Solving for Ux, Initial residual = 0.00656036, Final residual = 2.09213e-05, No Iterations 5
DILUPBiCGStab:  Solving for Uy, Initial residual = 0.01406, Final residual = 3.52549e-05, No Iterations 5
DILUPBiCGStab:  Solving for Uz, Initial residual = 0.0279923, Final residual = 6.23906e-05, No Iterations 5
linear solve U 66.259 [ms]
[INFO] MomentumPredictor: 71.951 [ms]
[INFO] MatrixAssemblyPI: 10.172 [ms]
[INFO] AdjustPhi: 0.594 [ms]
[INFO] ConstrainPressure: 0.001 [ms]
[INFO] MatrixAssemblyPII: 3.676 [ms]
[OGL LOG][Proc: 0]: global_index_init: 0.021 [ms]
[OGL LOG][Proc: 0]p_local_coeffs: call_update: 0 [ms]
[OGL LOG][Proc: 0]p_non_local_coeffs: call_update: 0 [ms]
[OGL LOG][Proc: 0]p: update_local_matrix_data: 3.094 [ms]
[OGL LOG][Proc: 0]p: update_non_local_matrix_data: 0.343 [ms]
[OGL LOG][Proc: 0]p: update_build_repartitioner: 0.634 [ms]
[OGL LOG][Proc: 0]p: update_repartitioned_existing: 3.618 [ms]
[OGL LOG][Proc: 0]p: update_offload_local_values: 2.539 [ms]
[OGL LOG][Proc: 0]p: update_offload_non_local_values: 0.07 [ms]
[OGL LOG][Proc: 0]p_matrix: call_update: 7.091 [ms]
[OGL LOG][Proc: 0]p_rhs: call_update: 1.237 [ms]
[OGL LOG][Proc: 0]p: init_precond: 0.048 [ms]
[OGL LOG][StoppingCriterion.H:372] Creating stopping criterion with minIter 189 frequency 7
[OGL LOG][Proc: 0]p: generate_solver: 0.022 [ms]
[OGL LOG][Proc: 0]p: solve: 223.732 [ms]
[OGL LOG][Proc: 0]p: copy_x_back: 1.822 [ms]
[OGL LOG][lduLduBase.H:319] 
Statistics:
	Time per iteration: 724 [mu s]
	Time per residual norm calculation: 233.000000 [mu s]
	Time per iteration and DOF: 0.724000 [ns]
	Retrieve results bandwith 0.548000 [GByte/s]
[OGL LOG][Proc: 0]p: solve_multi_gpu: 234.207 [ms]
nonehipGKOCG:  Solving for p, Initial residual = 0.0204647, Final residual = 9.12447e-05, No Iterations 309
linear solve p 238.674 [ms]
[INFO] SolveP: 238.698 [ms]
time step continuity errors : sum local = 1.34828e-08, global = 1.08186e-20, cumulative = 1.22223e-20
[INFO] ContinuityError: 2.394 [ms]
[INFO] CorrectBoundary: 1.816 [ms]
[INFO] PISOStep: 262.964 [ms]
[INFO] MatrixAssemblyPI: 9.495 [ms]
[INFO] AdjustPhi: 1.366 [ms]
[INFO] ConstrainPressure: 0.002 [ms]
[INFO] MatrixAssemblyPII: 3.222 [ms]
[OGL LOG][Proc: 0]: global_index_init: 0.032 [ms]
[OGL LOG][Proc: 0]p_local_coeffs: call_update: 0 [ms]
[OGL LOG][Proc: 0]p_non_local_coeffs: call_update: 0 [ms]
[OGL LOG][Proc: 0]p: update_local_matrix_data: 3.106 [ms]
[OGL LOG][Proc: 0]p: update_non_local_matrix_data: 0.346 [ms]
[OGL LOG][Proc: 0]p: update_build_repartitioner: 1.281 [ms]
[OGL LOG][Proc: 0]p: update_repartitioned_existing: 3.649 [ms]
[OGL LOG][Proc: 0]p: update_offload_local_values: 2.064 [ms]
[OGL LOG][Proc: 0]p: update_offload_non_local_values: 0.064 [ms]
[OGL LOG][Proc: 0]p_matrix: call_update: 7.301 [ms]
[OGL LOG][Proc: 0]p_rhs: call_update: 2.129 [ms]
[OGL LOG][Proc: 0]p: init_precond: 0.051 [ms]
[OGL LOG][StoppingCriterion.H:372] Creating stopping criterion with minIter 185 frequency 6
[OGL LOG][Proc: 0]p: generate_solver: 0.023 [ms]
[OGL LOG][Proc: 0]p: solve: 235.75 [ms]
[OGL LOG][Proc: 0]p: copy_x_back: 1.808 [ms]
[OGL LOG][lduLduBase.H:319] 
Statistics:
	Time per iteration: 767 [mu s]
	Time per residual norm calculation: 251.000000 [mu s]
	Time per iteration and DOF: 0.767000 [ns]
	Retrieve results bandwith 0.553000 [GByte/s]
[OGL LOG][Proc: 0]p: solve_multi_gpu: 247.323 [ms]
nonehipGKOCG:  Solving for p, Initial residual = 0.0180157, Final residual = 8.82215e-05, No Iterations 307
linear solve p 252.095 [ms]
[INFO] SolveP: 252.123 [ms]
time step continuity errors : sum local = 1.25298e-08, global = 8.14411e-22, cumulative = 1.30367e-20
[INFO] ContinuityError: 2.089 [ms]
[INFO] CorrectBoundary: 0.436 [ms]
[INFO] PISOStep: 275.332 [ms]
[INFO] TimeStep: 621.837 [ms]
ExecutionTime = 14.17 s  ClockTime = 15 s

Time = 0.007

Courant Number mean: 0.0663921 max: 0.475724
[INFO] MatrixAssemblyU: 9.052 [ms]
DILUPBiCGStab:  Solving for Ux, Initial residual = 0.00595947, Final residual = 1.86766e-05, No Iterations 5
DILUPBiCGStab:  Solving for Uy, Initial residual = 0.0127693, Final residual = 3.17147e-05, No Iterations 5
DILUPBiCGStab:  Solving for Uz, Initial residual = 0.0255337, Final residual = 5.71149e-05, No Iterations 5
linear solve U 68.901 [ms]
[INFO] MomentumPredictor: 73.473 [ms]
[INFO] MatrixAssemblyPI: 10.376 [ms]
[INFO] AdjustPhi: 1.601 [ms]
[INFO] ConstrainPressure: 0.002 [ms]
[INFO] MatrixAssemblyPII: 2.537 [ms]
[OGL LOG][Proc: 0]: global_index_init: 0.025 [ms]
[OGL LOG][Proc: 0]p_local_coeffs: call_update: 0 [ms]
[OGL LOG][Proc: 0]p_non_local_coeffs: call_update: 0 [ms]
[OGL LOG][Proc: 0]p: update_local_matrix_data: 3.07 [ms]
[OGL LOG][Proc: 0]p: update_non_local_matrix_data: 0.799 [ms]
[OGL LOG][Proc: 0]p: update_build_repartitioner: 0.863 [ms]
[OGL LOG][Proc: 0]p: update_repartitioned_existing: 3.602 [ms]
[OGL LOG][Proc: 0]p: update_offload_local_values: 2.408 [ms]
[OGL LOG][Proc: 0]p: update_offload_non_local_values: 0.065 [ms]
[OGL LOG][Proc: 0]p_matrix: call_update: 7.161 [ms]
[OGL LOG][Proc: 0]p_rhs: call_update: 1.91 [ms]
[OGL LOG][Proc: 0]p: init_precond: 0.053 [ms]
[OGL LOG][StoppingCriterion.H:372] Creating stopping criterion with minIter 184 frequency 6
[OGL LOG][Proc: 0]p: generate_solver: 0.023 [ms]
[OGL LOG][Proc: 0]p: solve: 210.826 [ms]
[OGL LOG][Proc: 0]p: copy_x_back: 1.585 [ms]
[OGL LOG][lduLduBase.H:319] 
Statistics:
	Time per iteration: 700 [mu s]
	Time per residual norm calculation: 238.000000 [mu s]
	Time per iteration and DOF: 0.700000 [ns]
	Retrieve results bandwith 0.630000 [GByte/s]
[OGL LOG][Proc: 0]p: solve_multi_gpu: 221.802 [ms]
nonehipGKOCG:  Solving for p, Initial residual = 0.0160915, Final residual = 9.88217e-05, No Iterations 301
linear solve p 226.66 [ms]
[INFO] SolveP: 226.684 [ms]
time step continuity errors : sum local = 1.42069e-08, global = 4.46853e-21, cumulative = 1.75052e-20
[INFO] ContinuityError: 3.561 [ms]
[INFO] CorrectBoundary: 1.761 [ms]
[INFO] PISOStep: 252.583 [ms]
[INFO] MatrixAssemblyPI: 11.013 [ms]
[INFO] AdjustPhi: 0.388 [ms]
[INFO] ConstrainPressure: 0.002 [ms]
[INFO] MatrixAssemblyPII: 3.844 [ms]
[OGL LOG][Proc: 0]: global_index_init: 0.05 [ms]
[OGL LOG][Proc: 0]p_local_coeffs: call_update: 0 [ms]
[OGL LOG][Proc: 0]p_non_local_coeffs: call_update: 0 [ms]
[OGL LOG][Proc: 0]p: update_local_matrix_data: 3.06 [ms]
[OGL LOG][Proc: 0]p: update_non_local_matrix_data: 0.494 [ms]
[OGL LOG][Proc: 0]p: update_build_repartitioner: 0.562 [ms]
[OGL LOG][Proc: 0]p: update_repartitioned_existing: 3.549 [ms]
[OGL LOG][Proc: 0]p: update_offload_local_values: 2.481 [ms]
[OGL LOG][Proc: 0]p: update_offload_non_local_values: 0.091 [ms]
[OGL LOG][Proc: 0]p_matrix: call_update: 6.903 [ms]
[OGL LOG][Proc: 0]p_rhs: call_update: 0.91 [ms]
[OGL LOG][Proc: 0]p: init_precond: 0.052 [ms]
[OGL LOG][StoppingCriterion.H:372] Creating stopping criterion with minIter 180 frequency 7
[OGL LOG][Proc: 0]p: generate_solver: 0.023 [ms]
[OGL LOG][Proc: 0]p: solve: 234.33 [ms]
[OGL LOG][Proc: 0]p: copy_x_back: 1.33 [ms]
[OGL LOG][lduLduBase.H:319] 
Statistics:
	Time per iteration: 775 [mu s]
	Time per residual norm calculation: 265.000000 [mu s]
	Time per iteration and DOF: 0.775000 [ns]
	Retrieve results bandwith 0.751000 [GByte/s]
[OGL LOG][Proc: 0]p: solve_multi_gpu: 243.857 [ms]
nonehipGKOCG:  Solving for p, Initial residual = 0.0145697, Final residual = 8.77495e-05, No Iterations 302
linear solve p 248.712 [ms]
[INFO] SolveP: 248.738 [ms]
time step continuity errors : sum local = 1.2405e-08, global = 4.90466e-21, cumulative = 2.24099e-20
[INFO] ContinuityError: 2.442 [ms]
[INFO] CorrectBoundary: 0.504 [ms]
[INFO] PISOStep: 272.943 [ms]
[INFO] TimeStep: 609.585 [ms]
ExecutionTime = 14.77 s  ClockTime = 16 s

Time = 0.0075

Courant Number mean: 0.0678393 max: 0.476365
[INFO] MatrixAssemblyU: 7.423 [ms]
DILUPBiCGStab:  Solving for Ux, Initial residual = 0.00543917, Final residual = 1.66547e-05, No Iterations 5
DILUPBiCGStab:  Solving for Uy, Initial residual = 0.0116693, Final residual = 2.88374e-05, No Iterations 5
DILUPBiCGStab:  Solving for Uz, Initial residual = 0.02364, Final residual = 5.23023e-05, No Iterations 5
linear solve U 67.793 [ms]
[INFO] MomentumPredictor: 73.396 [ms]
[INFO] MatrixAssemblyPI: 9.056 [ms]
[INFO] AdjustPhi: 2.734 [ms]
[INFO] ConstrainPressure: 0.002 [ms]
[INFO] MatrixAssemblyPII: 3.756 [ms]
[OGL LOG][Proc: 0]: global_index_init: 0.025 [ms]
[OGL LOG][Proc: 0]p_local_coeffs: call_update: 0 [ms]
[OGL LOG][Proc: 0]p_non_local_coeffs: call_update: 0 [ms]
[OGL LOG][Proc: 0]p: update_local_matrix_data: 3.187 [ms]
[OGL LOG][Proc: 0]p: update_non_local_matrix_data: 0.827 [ms]
[OGL LOG][Proc: 0]p: update_build_repartitioner: 0.567 [ms]
[OGL LOG][Proc: 0]p: update_repartitioned_existing: 5.226 [ms]
[OGL LOG][Proc: 0]p: update_offload_local_values: 1.965 [ms]
[OGL LOG][Proc: 0]p: update_offload_non_local_values: 0.063 [ms]
[OGL LOG][Proc: 0]p_matrix: call_update: 8.061 [ms]
[OGL LOG][Proc: 0]p_rhs: call_update: 1.958 [ms]
[OGL LOG][Proc: 0]p: init_precond: 0.05 [ms]
[OGL LOG][StoppingCriterion.H:372] Creating stopping criterion with minIter 181 frequency 7
[OGL LOG][Proc: 0]p: generate_solver: 0.022 [ms]
[OGL LOG][Proc: 0]p: solve: 215.593 [ms]
[OGL LOG][Proc: 0]p: copy_x_back: 1.272 [ms]
[OGL LOG][lduLduBase.H:319] 
Statistics:
	Time per iteration: 697 [mu s]
	Time per residual norm calculation: 246.000000 [mu s]
	Time per iteration and DOF: 0.697000 [ns]
	Retrieve results bandwith 0.786000 [GByte/s]
[OGL LOG][Proc: 0]p: solve_multi_gpu: 227.213 [ms]
nonehipGKOCG:  Solving for p, Initial residual = 0.0139902, Final residual = 8.99407e-05, No Iterations 309
linear solve p 233.362 [ms]
[INFO] SolveP: 233.391 [ms]
time step continuity errors : sum local = 1.3652e-08, global = -2.83237e-21, cumulative = 1.95775e-20
[INFO] ContinuityError: 2.401 [ms]
[INFO] CorrectBoundary: 3.369 [ms]
[INFO] PISOStep: 261.637 [ms]
[INFO] MatrixAssemblyPI: 9.611 [ms]
[INFO] AdjustPhi: 1.224 [ms]
[INFO] ConstrainPressure: 0.002 [ms]
[INFO] MatrixAssemblyPII: 3.58 [ms]
[OGL LOG][Proc: 0]: global_index_init: 0.028 [ms]
[OGL LOG][Proc: 0]p_local_coeffs: call_update: 0 [ms]
[OGL LOG][Proc: 0]p_non_local_coeffs: call_update: 0 [ms]
[OGL LOG][Proc: 0]p: update_local_matrix_data: 3.148 [ms]
[OGL LOG][Proc: 0]p: update_non_local_matrix_data: 0.339 [ms]
[OGL LOG][Proc: 0]p: update_build_repartitioner: 0.669 [ms]
[OGL LOG][Proc: 0]p: update_repartitioned_existing: 3.457 [ms]
[OGL LOG][Proc: 0]p: update_offload_local_values: 2.648 [ms]
[OGL LOG][Proc: 0]p: update_offload_non_local_values: 0.089 [ms]
[OGL LOG][Proc: 0]p_matrix: call_update: 7.101 [ms]
[OGL LOG][Proc: 0]p_rhs: call_update: 2.084 [ms]
[OGL LOG][Proc: 0]p: init_precond: 0.05 [ms]
[OGL LOG][StoppingCriterion.H:372] Creating stopping criterion with minIter 185 frequency 7
[OGL LOG][Proc: 0]p: generate_solver: 0.022 [ms]
[OGL LOG][Proc: 0]p: solve: 216.829 [ms]
[OGL LOG][Proc: 0]p: copy_x_back: 1.385 [ms]
[OGL LOG][lduLduBase.H:319] 
Statistics:
	Time per iteration: 717 [mu s]
	Time per residual norm calculation: 250.000000 [mu s]
	Time per iteration and DOF: 0.717000 [ns]
	Retrieve results bandwith 0.722000 [GByte/s]
[OGL LOG][Proc: 0]p: solve_multi_gpu: 227.723 [ms]
nonehipGKOCG:  Solving for p, Initial residual = 0.012766, Final residual = 8.84887e-05, No Iterations 302
linear solve p 231.968 [ms]
[INFO] SolveP: 231.991 [ms]
time step continuity errors : sum local = 1.26958e-08, global = -6.22123e-21, cumulative = 1.33563e-20
[INFO] ContinuityError: 2.319 [ms]
[INFO] CorrectBoundary: 0.146 [ms]
[INFO] PISOStep: 257.872 [ms]
[INFO] TimeStep: 601.962 [ms]
ExecutionTime = 15.36 s  ClockTime = 16 s

Time = 0.008

Courant Number mean: 0.0691767 max: 0.476935
[INFO] MatrixAssemblyU: 9.405 [ms]
DILUPBiCGStab:  Solving for Ux, Initial residual = 0.00499159, Final residual = 1.50874e-05, No Iterations 5
DILUPBiCGStab:  Solving for Uy, Initial residual = 0.0107275, Final residual = 2.6417e-05, No Iterations 5
DILUPBiCGStab:  Solving for Uz, Initial residual = 0.0218245, Final residual = 5.07862e-05, No Iterations 5
linear solve U 66.417 [ms]
[INFO] MomentumPredictor: 71.934 [ms]
[INFO] MatrixAssemblyPI: 10.23 [ms]
[INFO] AdjustPhi: 0.518 [ms]
[INFO] ConstrainPressure: 0.002 [ms]
[INFO] MatrixAssemblyPII: 3.89 [ms]
[OGL LOG][Proc: 0]: global_index_init: 0.066 [ms]
[OGL LOG][Proc: 0]p_local_coeffs: call_update: 0 [ms]
[OGL LOG][Proc: 0]p_non_local_coeffs: call_update: 0 [ms]
[OGL LOG][Proc: 0]p: update_local_matrix_data: 3.052 [ms]
[OGL LOG][Proc: 0]p: update_non_local_matrix_data: 0.412 [ms]
[OGL LOG][Proc: 0]p: update_build_repartitioner: 1.153 [ms]
[OGL LOG][Proc: 0]p: update_repartitioned_existing: 3.61 [ms]
[OGL LOG][Proc: 0]p: update_offload_local_values: 2.378 [ms]
[OGL LOG][Proc: 0]p: update_offload_non_local_values: 0.07 [ms]
[OGL LOG][Proc: 0]p_matrix: call_update: 7.483 [ms]
[OGL LOG][Proc: 0]p_rhs: call_update: 1.881 [ms]
[OGL LOG][Proc: 0]p: init_precond: 0.046 [ms]
[OGL LOG][StoppingCriterion.H:372] Creating stopping criterion with minIter 181 frequency 7
[OGL LOG][Proc: 0]p: generate_solver: 0.022 [ms]
[OGL LOG][Proc: 0]p: solve: 209.086 [ms]
[OGL LOG][Proc: 0]p: copy_x_back: 1.227 [ms]
[OGL LOG][lduLduBase.H:319] 
Statistics:
	Time per iteration: 676 [mu s]
	Time per residual norm calculation: 226.000000 [mu s]
	Time per iteration and DOF: 0.676000 [ns]
	Retrieve results bandwith 0.814000 [GByte/s]
[OGL LOG][Proc: 0]p: solve_multi_gpu: 220.001 [ms]
nonehipGKOCG:  Solving for p, Initial residual = 0.0119303, Final residual = 9.18782e-05, No Iterations 309
linear solve p 224.369 [ms]
[INFO] SolveP: 224.393 [ms]
time step continuity errors : sum local = 1.3739e-08, global = -1.78123e-21, cumulative = 1.15751e-20
[INFO] ContinuityError: 4.993 [ms]
[INFO] CorrectBoundary: 0.126 [ms]
[INFO] PISOStep: 251.618 [ms]
[INFO] MatrixAssemblyPI: 8.93 [ms]
[INFO] AdjustPhi: 1.464 [ms]
[INFO] ConstrainPressure: 0.002 [ms]
[INFO] MatrixAssemblyPII: 2.932 [ms]
[OGL LOG][Proc: 0]: global_index_init: 0.013 [ms]
[OGL LOG][Proc: 0]p_local_coeffs: call_update: 0 [ms]
[OGL LOG][Proc: 0]p_non_local_coeffs: call_update: 0 [ms]
[OGL LOG][Proc: 0]p: update_local_matrix_data: 3.147 [ms]
[OGL LOG][Proc: 0]p: update_non_local_matrix_data: 0.36 [ms]
[OGL LOG][Proc: 0]p: update_build_repartitioner: 1.012 [ms]
[OGL LOG][Proc: 0]p: update_repartitioned_existing: 3.728 [ms]
[OGL LOG][Proc: 0]p: update_offload_local_values: 1.921 [ms]
[OGL LOG][Proc: 0]p: update_offload_non_local_values: 0.06 [ms]
[OGL LOG][Proc: 0]p_matrix: call_update: 6.939 [ms]
[OGL LOG][Proc: 0]p_rhs: call_update: 2.833 [ms]
[OGL LOG][Proc: 0]p: init_precond: 0.051 [ms]
[OGL LOG][StoppingCriterion.H:372] Creating stopping criterion with minIter 185 frequency 7
[OGL LOG][Proc: 0]p: generate_solver: 0.022 [ms]
[OGL LOG][Proc: 0]p: solve: 214.663 [ms]
[OGL LOG][Proc: 0]p: copy_x_back: 1.515 [ms]
[OGL LOG][lduLduBase.H:319] 
Statistics:
	Time per iteration: 710 [mu s]
	Time per residual norm calculation: 247.000000 [mu s]
	Time per iteration and DOF: 0.710000 [ns]
	Retrieve results bandwith 0.660000 [GByte/s]
[OGL LOG][Proc: 0]p: solve_multi_gpu: 226.279 [ms]
nonehipGKOCG:  Solving for p, Initial residual = 0.0110898, Final residual = 9.49239e-05, No Iterations 302
linear solve p 230.488 [ms]
[INFO] SolveP: 230.514 [ms]
time step continuity errors : sum local = 1.35182e-08, global = 3.7181e-21, cumulative = 1.52932e-20
[INFO] ContinuityError: 2.595 [ms]
[INFO] CorrectBoundary: 0.692 [ms]
[INFO] PISOStep: 254.701 [ms]
[INFO] TimeStep: 589.16 [ms]
ExecutionTime = 15.94 s  ClockTime = 17 s

Time = 0.0085

Courant Number mean: 0.0704223 max: 0.477443
[INFO] MatrixAssemblyU: 8.782 [ms]
DILUPBiCGStab:  Solving for Ux, Initial residual = 0.00460347, Final residual = 1.36692e-05, No Iterations 5
DILUPBiCGStab:  Solving for Uy, Initial residual = 0.00989492, Final residual = 2.43473e-05, No Iterations 5
DILUPBiCGStab:  Solving for Uz, Initial residual = 0.0204817, Final residual = 4.86882e-05, No Iterations 5
linear solve U 66.201 [ms]
[INFO] MomentumPredictor: 72.201 [ms]
[INFO] MatrixAssemblyPI: 10.987 [ms]
[INFO] AdjustPhi: 0.983 [ms]
[INFO] ConstrainPressure: 0.002 [ms]
[INFO] MatrixAssemblyPII: 4.151 [ms]
[OGL LOG][Proc: 0]: global_index_init: 0.017 [ms]
[OGL LOG][Proc: 0]p_local_coeffs: call_update: 0 [ms]
[OGL LOG][Proc: 0]p_non_local_coeffs: call_update: 0 [ms]
[OGL LOG][Proc: 0]p: update_local_matrix_data: 3.081 [ms]
[OGL LOG][Proc: 0]p: update_non_local_matrix_data: 0.35 [ms]
[OGL LOG][Proc: 0]p: update_build_repartitioner: 1.126 [ms]
[OGL LOG][Proc: 0]p: update_repartitioned_existing: 2.86 [ms]
[OGL LOG][Proc: 0]p: update_offload_local_values: 2.771 [ms]
[OGL LOG][Proc: 0]p: update_offload_non_local_values: 0.067 [ms]
[OGL LOG][Proc: 0]p_matrix: call_update: 7.036 [ms]
[OGL LOG][Proc: 0]p_rhs: call_update: 3.126 [ms]
[OGL LOG][Proc: 0]p: init_precond: 0.05 [ms]
[OGL LOG][StoppingCriterion.H:372] Creating stopping criterion with minIter 181 frequency 7
[OGL LOG][Proc: 0]p: generate_solver: 0.022 [ms]
[OGL LOG][Proc: 0]p: solve: 212.371 [ms]
[OGL LOG][Proc: 0]p: copy_x_back: 1.322 [ms]
[OGL LOG][lduLduBase.H:319] 
Statistics:
	Time per iteration: 672 [mu s]
	Time per residual norm calculation: 225.000000 [mu s]
	Time per iteration and DOF: 0.672000 [ns]
	Retrieve results bandwith 0.756000 [GByte/s]
[OGL LOG][Proc: 0]p: solve_multi_gpu: 224.192 [ms]
nonehipGKOCG:  Solving for p, Initial residual = 0.0107688, Final residual = 8.90662e-05, No Iterations 316
linear solve p 228.344 [ms]
[INFO] SolveP: 228.37 [ms]
time step continuity errors : sum local = 1.42126e-08, global = -1.08857e-21, cumulative = 1.42046e-20
[INFO] ContinuityError: 3.361 [ms]
[INFO] CorrectBoundary: 2.954 [ms]
[INFO] PISOStep: 258.072 [ms]
[INFO] MatrixAssemblyPI: 7.911 [ms]
[INFO] AdjustPhi: 3.743 [ms]
[INFO] ConstrainPressure: 0.002 [ms]
[INFO] MatrixAssemblyPII: 2.783 [ms]
[OGL LOG][Proc: 0]: global_index_init: 0.022 [ms]
[OGL LOG][Proc: 0]p_local_coeffs: call_update: 0 [ms]
[OGL LOG][Proc: 0]p_non_local_coeffs: call_update: 0 [ms]
[OGL LOG][Proc: 0]p: update_local_matrix_data: 3.155 [ms]
[OGL LOG][Proc: 0]p: update_non_local_matrix_data: 0.415 [ms]
[OGL LOG][Proc: 0]p: update_build_repartitioner: 1.175 [ms]
[OGL LOG][Proc: 0]p: update_repartitioned_existing: 3.619 [ms]
[OGL LOG][Proc: 0]p: update_offload_local_values: 2.709 [ms]
[OGL LOG][Proc: 0]p: update_offload_non_local_values: 0.073 [ms]
[OGL LOG][Proc: 0]p_matrix: call_update: 7.784 [ms]
[OGL LOG][Proc: 0]p_rhs: call_update: 1.508 [ms]
[OGL LOG][Proc: 0]p: init_precond: 0.05 [ms]
[OGL LOG][StoppingCriterion.H:372] Creating stopping criterion with minIter 189 frequency 7
[OGL LOG][Proc: 0]p: generate_solver: 0.023 [ms]
[OGL LOG][Proc: 0]p: solve: 206.576 [ms]
[OGL LOG][Proc: 0]p: copy_x_back: 2.043 [ms]
[OGL LOG][lduLduBase.H:319] 
Statistics:
	Time per iteration: 684 [mu s]
	Time per residual norm calculation: 234.000000 [mu s]
	Time per iteration and DOF: 0.684000 [ns]
	Retrieve results bandwith 0.489000 [GByte/s]
[OGL LOG][Proc: 0]p: solve_multi_gpu: 218.277 [ms]
nonehipGKOCG:  Solving for p, Initial residual = 0.0100631, Final residual = 9.33716e-05, No Iterations 302
linear solve p 222.735 [ms]
[INFO] SolveP: 222.759 [ms]
time step continuity errors : sum local = 1.36086e-08, global = -7.5351e-21, cumulative = 6.6695e-21
[INFO] ContinuityError: 1.123 [ms]
[INFO] CorrectBoundary: 0.115 [ms]
[INFO] PISOStep: 247.378 [ms]
[INFO] TimeStep: 587.972 [ms]
ExecutionTime = 16.51 s  ClockTime = 18 s

Time = 0.009

Courant Number mean: 0.0715857 max: 0.477901
[INFO] MatrixAssemblyU: 10.489 [ms]
DILUPBiCGStab:  Solving for Ux, Initial residual = 0.00425592, Final residual = 1.25235e-05, No Iterations 5
DILUPBiCGStab:  Solving for Uy, Initial residual = 0.00918384, Final residual = 2.25993e-05, No Iterations 5
DILUPBiCGStab:  Solving for Uz, Initial residual = 0.0190536, Final residual = 5.03563e-05, No Iterations 5
linear solve U 66.702 [ms]
[INFO] MomentumPredictor: 71.139 [ms]
[INFO] MatrixAssemblyPI: 10.096 [ms]
[INFO] AdjustPhi: 0.767 [ms]
[INFO] ConstrainPressure: 0.002 [ms]
[INFO] MatrixAssemblyPII: 3.709 [ms]
[OGL LOG][Proc: 0]: global_index_init: 0.039 [ms]
[OGL LOG][Proc: 0]p_local_coeffs: call_update: 0 [ms]
[OGL LOG][Proc: 0]p_non_local_coeffs: call_update: 0 [ms]
[OGL LOG][Proc: 0]p: update_local_matrix_data: 3.602 [ms]
[OGL LOG][Proc: 0]p: update_non_local_matrix_data: 0.41 [ms]
[OGL LOG][Proc: 0]p: update_build_repartitioner: 0.458 [ms]
[OGL LOG][Proc: 0]p: update_repartitioned_existing: 4.865 [ms]
[OGL LOG][Proc: 0]p: update_offload_local_values: 2.232 [ms]
[OGL LOG][Proc: 0]p: update_offload_non_local_values: 0.061 [ms]
[OGL LOG][Proc: 0]p_matrix: call_update: 7.89 [ms]
[OGL LOG][Proc: 0]p_rhs: call_update: 0.883 [ms]
[OGL LOG][Proc: 0]p: init_precond: 0.055 [ms]
[OGL LOG][StoppingCriterion.H:372] Creating stopping criterion with minIter 181 frequency 7
[OGL LOG][Proc: 0]p: generate_solver: 0.023 [ms]
[OGL LOG][Proc: 0]p: solve: 207.76 [ms]
[OGL LOG][Proc: 0]p: copy_x_back: 1.718 [ms]
[OGL LOG][lduLduBase.H:319] 
Statistics:
	Time per iteration: 657 [mu s]
	Time per residual norm calculation: 225.000000 [mu s]
	Time per iteration and DOF: 0.657000 [ns]
	Retrieve results bandwith 0.582000 [GByte/s]
[OGL LOG][Proc: 0]p: solve_multi_gpu: 218.572 [ms]
nonehipGKOCG:  Solving for p, Initial residual = 0.00969659, Final residual = 9.29836e-05, No Iterations 316
linear solve p 224.476 [ms]
[INFO] SolveP: 224.501 [ms]
time step continuity errors : sum local = 1.47847e-08, global = -7.32758e-21, cumulative = -6.5808e-22
[INFO] ContinuityError: 1.298 [ms]
[INFO] CorrectBoundary: 0.071 [ms]
[INFO] PISOStep: 246.94 [ms]
[INFO] MatrixAssemblyPI: 8.293 [ms]
[INFO] AdjustPhi: 3.22 [ms]
[INFO] ConstrainPressure: 0.002 [ms]
[INFO] MatrixAssemblyPII: 1.887 [ms]
[OGL LOG][Proc: 0]: global_index_init: 0.061 [ms]
[OGL LOG][Proc: 0]p_local_coeffs: call_update: 0 [ms]
[OGL LOG][Proc: 0]p_non_local_coeffs: call_update: 0 [ms]
[OGL LOG][Proc: 0]p: update_local_matrix_data: 3.141 [ms]
[OGL LOG][Proc: 0]p: update_non_local_matrix_data: 0.335 [ms]
[OGL LOG][Proc: 0]p: update_build_repartitioner: 0.552 [ms]
[OGL LOG][Proc: 0]p: update_repartitioned_existing: 3.592 [ms]
[OGL LOG][Proc: 0]p: update_offload_local_values: 2.773 [ms]
[OGL LOG][Proc: 0]p: update_offload_non_local_values: 0.075 [ms]
[OGL LOG][Proc: 0]p_matrix: call_update: 7.235 [ms]
[OGL LOG][Proc: 0]p_rhs: call_update: 0.911 [ms]
[OGL LOG][Proc: 0]p: init_precond: 0.051 [ms]
[OGL LOG][StoppingCriterion.H:372] Creating stopping criterion with minIter 189 frequency 7
[OGL LOG][Proc: 0]p: generate_solver: 0.025 [ms]
[OGL LOG][Proc: 0]p: solve: 215.727 [ms]
[OGL LOG][Proc: 0]p: copy_x_back: 1.439 [ms]
[OGL LOG][lduLduBase.H:319] 
Statistics:
	Time per iteration: 714 [mu s]
	Time per residual norm calculation: 240.000000 [mu s]
	Time per iteration and DOF: 0.714000 [ns]
	Retrieve results bandwith 0.694000 [GByte/s]
[OGL LOG][Proc: 0]p: solve_multi_gpu: 225.652 [ms]
nonehipGKOCG:  Solving for p, Initial residual = 0.00912498, Final residual = 9.59919e-05, No Iterations 302
linear solve p 230.937 [ms]
[INFO] SolveP: 230.962 [ms]
time step continuity errors : sum local = 1.39044e-08, global = 2.77098e-21, cumulative = 2.1129e-21
[INFO] ContinuityError: 2.039 [ms]
[INFO] CorrectBoundary: 0.172 [ms]
[INFO] PISOStep: 253.91 [ms]
[INFO] TimeStep: 584.121 [ms]
ExecutionTime = 17.07 s  ClockTime = 18 s

Time = 0.0095

Courant Number mean: 0.0726727 max: 0.478315
[INFO] MatrixAssemblyU: 9.194 [ms]
DILUPBiCGStab:  Solving for Ux, Initial residual = 0.00395958, Final residual = 1.14782e-05, No Iterations 5
DILUPBiCGStab:  Solving for Uy, Initial residual = 0.00852539, Final residual = 2.11265e-05, No Iterations 5
DILUPBiCGStab:  Solving for Uz, Initial residual = 0.0181232, Final residual = 5.15446e-05, No Iterations 5
linear solve U 67.687 [ms]
[INFO] MomentumPredictor: 72.072 [ms]
[INFO] MatrixAssemblyPI: 9.997 [ms]
[INFO] AdjustPhi: 0.718 [ms]
[INFO] ConstrainPressure: 0.003 [ms]
[INFO] MatrixAssemblyPII: 2.986 [ms]
[OGL LOG][Proc: 0]: global_index_init: 0.028 [ms]
[OGL LOG][Proc: 0]p_local_coeffs: call_update: 0 [ms]
[OGL LOG][Proc: 0]p_non_local_coeffs: call_update: 0 [ms]
[OGL LOG][Proc: 0]p: update_local_matrix_data: 3.1 [ms]
[OGL LOG][Proc: 0]p: update_non_local_matrix_data: 0.355 [ms]
[OGL LOG][Proc: 0]p: update_build_repartitioner: 1.121 [ms]
[OGL LOG][Proc: 0]p: update_repartitioned_existing: 3.609 [ms]
[OGL LOG][Proc: 0]p: update_offload_local_values: 2.136 [ms]
[OGL LOG][Proc: 0]p: update_offload_non_local_values: 0.062 [ms]
[OGL LOG][Proc: 0]p_matrix: call_update: 7.136 [ms]
[OGL LOG][Proc: 0]p_rhs: call_update: 2.18 [ms]
[OGL LOG][Proc: 0]p: init_precond: 0.052 [ms]
[OGL LOG][StoppingCriterion.H:372] Creating stopping criterion with minIter 181 frequency 7
[OGL LOG][Proc: 0]p: generate_solver: 0.024 [ms]
[OGL LOG][Proc: 0]p: solve: 481.951 [ms]
[OGL LOG][Proc: 0]p: copy_x_back: 1.749 [ms]
[OGL LOG][lduLduBase.H:319] 
Statistics:
	Time per iteration: 701 [mu s]
	Time per residual norm calculation: 232.000000 [mu s]
	Time per iteration and DOF: 0.701000 [ns]
	Retrieve results bandwith 0.571000 [GByte/s]
[OGL LOG][Proc: 0]p: solve_multi_gpu: 493.338 [ms]
nonehipGKOCG:  Solving for p, Initial residual = 0.00902864, Final residual = 9.18473e-05, No Iterations 687
linear solve p 497.534 [ms]
[INFO] SolveP: 497.555 [ms]
time step continuity errors : sum local = 1.28433e-08, global = -2.53868e-21, cumulative = -4.25785e-22
[INFO] ContinuityError: 5.373 [ms]
[INFO] CorrectBoundary: 0.855 [ms]
[INFO] PISOStep: 522.209 [ms]
[INFO] MatrixAssemblyPI: 11.783 [ms]
[INFO] AdjustPhi: 1.16 [ms]
[INFO] ConstrainPressure: 0.002 [ms]
[INFO] MatrixAssemblyPII: 2.64 [ms]
[OGL LOG][Proc: 0]: global_index_init: 0.017 [ms]
[OGL LOG][Proc: 0]p_local_coeffs: call_update: 0 [ms]
[OGL LOG][Proc: 0]p_non_local_coeffs: call_update: 0 [ms]
[OGL LOG][Proc: 0]p: update_local_matrix_data: 3.138 [ms]
[OGL LOG][Proc: 0]p: update_non_local_matrix_data: 0.361 [ms]
[OGL LOG][Proc: 0]p: update_build_repartitioner: 0.658 [ms]
[OGL LOG][Proc: 0]p: update_repartitioned_existing: 3.593 [ms]
[OGL LOG][Proc: 0]p: update_offload_local_values: 2.698 [ms]
[OGL LOG][Proc: 0]p: update_offload_non_local_values: 0.069 [ms]
[OGL LOG][Proc: 0]p_matrix: call_update: 7.256 [ms]
[OGL LOG][Proc: 0]p_rhs: call_update: 1.091 [ms]
[OGL LOG][Proc: 0]p: init_precond: 0.051 [ms]
[OGL LOG][StoppingCriterion.H:372] Creating stopping criterion with minIter 412 frequency 9
[OGL LOG][Proc: 0]p: generate_solver: 0.023 [ms]
[OGL LOG][Proc: 0]p: solve: 493.706 [ms]
[OGL LOG][Proc: 0]p: copy_x_back: 1.612 [ms]
[OGL LOG][lduLduBase.H:319] 
Statistics:
	Time per iteration: 720 [mu s]
	Time per residual norm calculation: 239.000000 [mu s]
	Time per iteration and DOF: 0.720000 [ns]
	Retrieve results bandwith 0.620000 [GByte/s]
[OGL LOG][Proc: 0]p: solve_multi_gpu: 503.984 [ms]
nonehipGKOCG:  Solving for p, Initial residual = 0.00854485, Final residual = 8.81475e-05, No Iterations 685
linear solve p 508.266 [ms]
[INFO] SolveP: 508.29 [ms]
time step continuity errors : sum local = 1.23297e-08, global = 2.54151e-22, cumulative = -1.71634e-22
[INFO] ContinuityError: 3.778 [ms]
[INFO] CorrectBoundary: 0.126 [ms]
[INFO] PISOStep: 535.811 [ms]
[INFO] TimeStep: 1141.99 [ms]
ExecutionTime = 18.21 s  ClockTime = 19 s

Time = 0.01

Courant Number mean: 0.0736903 max: 0.478692
[INFO] MatrixAssemblyU: 9.156 [ms]
DILUPBiCGStab:  Solving for Ux, Initial residual = 0.00368379, Final residual = 1.06025e-05, No Iterations 5
DILUPBiCGStab:  Solving for Uy, Initial residual = 0.00795175, Final residual = 1.96004e-05, No Iterations 5
DILUPBiCGStab:  Solving for Uz, Initial residual = 0.0166011, Final residual = 3.7856e-05, No Iterations 5
linear solve U 65.987 [ms]
[INFO] MomentumPredictor: 71.616 [ms]
[INFO] MatrixAssemblyPI: 9.876 [ms]
[INFO] AdjustPhi: 0.753 [ms]
[INFO] ConstrainPressure: 0.002 [ms]
[INFO] MatrixAssemblyPII: 3.322 [ms]
[OGL LOG][Proc: 0]: global_index_init: 0.032 [ms]
[OGL LOG][Proc: 0]p_local_coeffs: call_update: 0 [ms]
[OGL LOG][Proc: 0]p_non_local_coeffs: call_update: 0 [ms]
[OGL LOG][Proc: 0]p: update_local_matrix_data: 3.004 [ms]
[OGL LOG][Proc: 0]p: update_non_local_matrix_data: 0.352 [ms]
[OGL LOG][Proc: 0]p: update_build_repartitioner: 1.214 [ms]
[OGL LOG][Proc: 0]p: update_repartitioned_existing: 3.618 [ms]
[OGL LOG][Proc: 0]p: update_offload_local_values: 2.411 [ms]
[OGL LOG][Proc: 0]p: update_offload_non_local_values: 0.06 [ms]
[OGL LOG][Proc: 0]p_matrix: call_update: 7.511 [ms]
[OGL LOG][Proc: 0]p_rhs: call_update: 3.631 [ms]
[OGL LOG][Proc: 0]p: init_precond: 0.051 [ms]
[OGL LOG][StoppingCriterion.H:372] Creating stopping criterion with minIter 411 frequency 9
[OGL LOG][Proc: 0]p: generate_solver: 0.024 [ms]
[OGL LOG][Proc: 0]p: solve: 483.28 [ms]
[OGL LOG][Proc: 0]p: copy_x_back: 1.744 [ms]
[OGL LOG][lduLduBase.H:319] 
Statistics:
	Time per iteration: 705 [mu s]
	Time per residual norm calculation: 234.000000 [mu s]
	Time per iteration and DOF: 0.705000 [ns]
	Retrieve results bandwith 0.573000 [GByte/s]
[OGL LOG][Proc: 0]p: solve_multi_gpu: 496.488 [ms]
nonehipGKOCG:  Solving for p, Initial residual = 0.00838417, Final residual = 9.07786e-05, No Iterations 685
linear solve p 501.167 [ms]
[INFO] SolveP: 501.191 [ms]
time step continuity errors : sum local = 1.26999e-08, global = 2.65635e-21, cumulative = 2.48471e-21
[INFO] ContinuityError: 1.904 [ms]
[INFO] CorrectBoundary: 0.422 [ms]
[INFO] PISOStep: 522.615 [ms]
[INFO] MatrixAssemblyPI: 10.282 [ms]
[INFO] AdjustPhi: 1.521 [ms]
[INFO] ConstrainPressure: 0.002 [ms]
[INFO] MatrixAssemblyPII: 2.701 [ms]
[OGL LOG][Proc: 0]: global_index_init: 0.027 [ms]
[OGL LOG][Proc: 0]p_local_coeffs: call_update: 0 [ms]
[OGL LOG][Proc: 0]p_non_local_coeffs: call_update: 0 [ms]
[OGL LOG][Proc: 0]p: update_local_matrix_data: 3.191 [ms]
[OGL LOG][Proc: 0]p: update_non_local_matrix_data: 0.867 [ms]
[OGL LOG][Proc: 0]p: update_build_repartitioner: 0.592 [ms]
[OGL LOG][Proc: 0]p: update_repartitioned_existing: 3.152 [ms]
[OGL LOG][Proc: 0]p: update_offload_local_values: 2.632 [ms]
[OGL LOG][Proc: 0]p: update_offload_non_local_values: 0.094 [ms]
[OGL LOG][Proc: 0]p_matrix: call_update: 6.69 [ms]
[OGL LOG][Proc: 0]p_rhs: call_update: 2.003 [ms]
[OGL LOG][Proc: 0]p: init_precond: 0.053 [ms]
[OGL LOG][StoppingCriterion.H:372] Creating stopping criterion with minIter 411 frequency 9
[OGL LOG][Proc: 0]p: generate_solver: 0.024 [ms]
[OGL LOG][Proc: 0]p: solve: 458.599 [ms]
[OGL LOG][Proc: 0]p: copy_x_back: 1.585 [ms]
[OGL LOG][lduLduBase.H:319] 
Statistics:
	Time per iteration: 669 [mu s]
	Time per residual norm calculation: 226.000000 [mu s]
	Time per iteration and DOF: 0.669000 [ns]
	Retrieve results bandwith 0.630000 [GByte/s]
[OGL LOG][Proc: 0]p: solve_multi_gpu: 469.25 [ms]
nonehipGKOCG:  Solving for p, Initial residual = 0.00794647, Final residual = 7.96861e-05, No Iterations 685
linear solve p 474.625 [ms]
[INFO] SolveP: 474.651 [ms]
time step continuity errors : sum local = 1.11496e-08, global = 1.31646e-21, cumulative = 3.80117e-21
[INFO] ContinuityError: 2.39 [ms]
[INFO] CorrectBoundary: 0.505 [ms]
[INFO] PISOStep: 499.196 [ms]
[INFO] TimeStep: 1104.13 [ms]
ExecutionTime = 19.31 s  ClockTime = 20 s

End

Finalising parallel run
