/*---------------------------------------------------------------------------*\
| =========                 |                                                 |
| \\      /  F ield         | OpenFOAM: The Open Source CFD Toolbox           |
|  \\    /   O peration     | Version:  2306                                  |
|   \\  /    A nd           | Website:  www.openfoam.com                      |
|    \\/     M anipulation  |                                                 |
\*---------------------------------------------------------------------------*/
Build  : c423ebec-20231012 OPENFOAM=2306 version=v2306
Arch   : "LSB;label=32;scalar=64"
Exec   : simpleFoam -parallel -case /hkfs/work/workspace/scratch/eq4036-windsorbody_setup/workspace/0686c2d9ddcab2a30fd1a4b3793ac2a8/case
Date   : Feb 16 2024
Time   : 14:52:08
Host   : hkn0411.localdomain
PID    : 350996
I/O    : uncollated
Case   : /hkfs/work/workspace/scratch/eq4036-windsorbody_setup/workspace/0686c2d9ddcab2a30fd1a4b3793ac2a8/case
nProcs : 16
Hosts  :
(
    (hkn0411.localdomain 8)
    (hkn0412.localdomain 8)
)
Pstream initialized with:
    floatTransfer      : false
    nProcsSimpleSum    : 0
    nonBlockingExchange: 0 (tuning: 0)
    exchange algorithm : -1
    commsType          : nonBlocking
    polling iterations : 0
trapFpe: Floating point exception trapping enabled (FOAM_SIGFPE).
fileModificationChecking : Monitoring run-time modified files using timeStampMaster (fileModificationSkew 5, maxFileModificationPolls 20)
allowSystemOperations : Allowing user-supplied system call operations

// * * * * * * * * * * * * * * * * * * * * * * * * * * * * * * * * * * * * * //
Create time

--> FOAM Warning : 
    From void* Foam::dlLibraryTable::openLibrary(const Foam::fileName&, bool)
    in file db/dynamicLibrary/dlLibraryTable/dlLibraryTable.C at line 188
    Could not load "libpetscFoam.so"
libpetscFoam.so: cannot open shared object file: No such file or directory
Create mesh for time = 0


SIMPLE: convergence criteria
    field p	 tolerance 1e-08
    field U	 tolerance 1e-08
    field k	 tolerance 1e-08
    field omega	 tolerance 1e-08
    field nuTilda	 tolerance 1e-08

Reading field p

Reading field U

Reading/calculating face flux field phi

Selecting incompressible transport model Newtonian
Selecting turbulence model type RAS
Selecting RAS turbulence model SpalartAllmaras
Selecting patchDistMethod meshWave
ft2 term: inactive
RAS
{
    RASModel        SpalartAllmaras;
    turbulence      on;
    printCoeffs     on;
    sigmaNut        0.66666;
    kappa           0.41;
    Cb1             0.1355;
    Cb2             0.622;
    Cw2             0.3;
    Cw3             2;
    Cv1             7.1;
    Cs              0.3;
    ck              0.07000000000000001;
    ft2             false;
    Ct3             1.2;
    Ct4             0.5;
}

No MRF models present

Creating finite volume options from "system/fvOptions"

Selecting finite volume options type velocityDampingConstraint
    Source: velocityDamping
    - selecting all cells
    - selected 50457088 cell(s) with volume 222.6066441268596

Starting time loop

--> FOAM Warning : 
    From bool Foam::functionObjectList::read()
    in file db/functionObjects/functionObjectList/functionObjectList.C at line 1035
    Reading "system/controlDict" at line 2 to 41
    Entry 'lref' is not a dictionary
--> FOAM Warning : 
    From bool Foam::functionObjectList::read()
    in file db/functionObjects/functionObjectList/functionObjectList.C at line 1035
    Reading "system/controlDict" at line 2 to 41
    Entry 'Aref' is not a dictionary
--> FOAM Warning : 
    From bool Foam::functionObjectList::read()
    in file db/functionObjects/functionObjectList/functionObjectList.C at line 1035
    Reading "system/controlDict" at line 2 to 41
    Entry 'yawAngle' is not a dictionary
--> FOAM Warning : 
    From bool Foam::functionObjectList::read()
    in file db/functionObjects/functionObjectList/functionObjectList.C at line 1035
    Reading "system/controlDict" at line 2 to 41
    Entry 'lDomain' is not a dictionary
--> FOAM Warning : 
    From bool Foam::functionObjectList::read()
    in file db/functionObjects/functionObjectList/functionObjectList.C at line 1035
    Reading "system/controlDict" at line 2 to 41
    Entry 'bDomain' is not a dictionary
--> FOAM Warning : 
    From bool Foam::functionObjectList::read()
    in file db/functionObjects/functionObjectList/functionObjectList.C at line 1035
    Reading "system/controlDict" at line 2 to 41
    Entry 'hDomain' is not a dictionary
--> FOAM Warning : 
    From bool Foam::functionObjectList::read()
    in file db/functionObjects/functionObjectList/functionObjectList.C at line 1035
    Reading "system/controlDict" at line 2 to 41
    Entry 'xCenter' is not a dictionary
--> FOAM Warning : 
    From bool Foam::functionObjectList::read()
    in file db/functionObjects/functionObjectList/functionObjectList.C at line 1035
    Reading "system/controlDict" at line 2 to 41
    Entry 'yCenter' is not a dictionary
--> FOAM Warning : 
    From bool Foam::functionObjectList::read()
    in file db/functionObjects/functionObjectList/functionObjectList.C at line 1035
    Reading "system/controlDict" at line 2 to 41
    Entry 'zCenter' is not a dictionary
--> FOAM Warning : 
    From bool Foam::functionObjectList::read()
    in file db/functionObjects/functionObjectList/functionObjectList.C at line 1035
    Reading "system/controlDict" at line 2 to 41
    Entry 'inletPatch' is not a dictionary
--> FOAM Warning : 
    From bool Foam::functionObjectList::read()
    in file db/functionObjects/functionObjectList/functionObjectList.C at line 1035
    Reading "system/controlDict" at line 2 to 41
    Entry 'outletPatch' is not a dictionary
--> FOAM Warning : 
    From bool Foam::functionObjectList::read()
    in file db/functionObjects/functionObjectList/functionObjectList.C at line 1035
    Reading "system/controlDict" at line 2 to 41
    Entry 'wallPatches' is not a dictionary
--> FOAM Warning : 
    From bool Foam::functionObjectList::read()
    in file db/functionObjects/functionObjectList/functionObjectList.C at line 1035
    Reading "system/controlDict" at line 2 to 41
    Entry 'forcesWallPatches' is not a dictionary
--> FOAM Warning : 
    From bool Foam::functionObjectList::read()
    in file db/functionObjects/functionObjectList/functionObjectList.C at line 1035
    Reading "system/controlDict" at line 2 to 41
    Entry 'symmPatches' is not a dictionary
--> FOAM Warning : 
    From bool Foam::functionObjectList::read()
    in file db/functionObjects/functionObjectList/functionObjectList.C at line 1035
    Reading "system/controlDict" at line 2 to 41
    Entry 'Uinf' is not a dictionary
--> FOAM Warning : 
    From bool Foam::functionObjectList::read()
    in file db/functionObjects/functionObjectList/functionObjectList.C at line 1035
    Reading "system/controlDict" at line 2 to 41
    Entry 'UinfMag' is not a dictionary
--> FOAM Warning : 
    From bool Foam::functionObjectList::read()
    in file db/functionObjects/functionObjectList/functionObjectList.C at line 1035
    Reading "system/controlDict" at line 2 to 41
    Entry 'nu' is not a dictionary
--> FOAM Warning : 
    From bool Foam::functionObjectList::read()
    in file db/functionObjects/functionObjectList/functionObjectList.C at line 1035
    Reading "system/controlDict" at line 2 to 41
    Entry 'pref' is not a dictionary
--> FOAM Warning : 
    From bool Foam::functionObjectList::read()
    in file db/functionObjects/functionObjectList/functionObjectList.C at line 1035
    Reading "system/controlDict" at line 2 to 41
    Entry 'viscRatio' is not a dictionary
--> FOAM Warning : 
    From bool Foam::functionObjectList::read()
    in file db/functionObjects/functionObjectList/functionObjectList.C at line 1035
    Reading "system/controlDict" at line 2 to 41
    Entry 'Tu' is not a dictionary
--> FOAM Warning : 
    From bool Foam::functionObjectList::read()
    in file db/functionObjects/functionObjectList/functionObjectList.C at line 1035
    Reading "system/controlDict" at line 2 to 41
    Entry 'LESturbModel' is not a dictionary
--> FOAM Warning : 
    From bool Foam::functionObjectList::read()
    in file db/functionObjects/functionObjectList/functionObjectList.C at line 1035
    Reading "system/controlDict" at line 2 to 41
    Entry 'RASturbModel' is not a dictionary
--> FOAM Warning : 
    From bool Foam::functionObjectList::read()
    in file db/functionObjects/functionObjectList/functionObjectList.C at line 1035
    Reading "system/controlDict" at line 2 to 41
    Entry 'deltaTurb' is not a dictionary
--> FOAM Warning : 
    From bool Foam::functionObjectList::read()
    in file db/functionObjects/functionObjectList/functionObjectList.C at line 1035
    Reading "system/controlDict" at line 2 to 41
    Entry 'dt' is not a dictionary
--> FOAM Warning : 
    From bool Foam::functionObjectList::read()
    in file db/functionObjects/functionObjectList/functionObjectList.C at line 1035
    Reading "system/controlDict" at line 2 to 41
    Entry 'tAvg' is not a dictionary
--> FOAM Warning : 
    From bool Foam::functionObjectList::read()
    in file db/functionObjects/functionObjectList/functionObjectList.C at line 1035
    Reading "system/controlDict" at line 2 to 41
    Entry 'tEnd' is not a dictionary
--> FOAM Warning : 
    From bool Foam::functionObjectList::read()
    in file db/functionObjects/functionObjectList/functionObjectList.C at line 1035
    Reading "system/controlDict" at line 2 to 41
    Entry 'writeInterval_' is not a dictionary
--> FOAM Warning : 
    From bool Foam::functionObjectList::read()
    in file db/functionObjects/functionObjectList/functionObjectList.C at line 1035
    Reading "system/controlDict" at line 2 to 41
    Entry 'nCores' is not a dictionary
--> FOAM Warning : 
    From bool Foam::functionObjectList::read()
    in file db/functionObjects/functionObjectList/functionObjectList.C at line 1035
    Reading "system/controlDict" at line 2 to 41
    Entry 'interpScheme' is not a dictionary
--> FOAM Warning : 
    From bool Foam::functionObjectList::read()
    in file db/functionObjects/functionObjectList/functionObjectList.C at line 1035
    Reading "system/controlDict" at line 2 to 41
    Entry 'probeField' is not a dictionary
wallShearStress wallShearStress:
    processing wall patches: 
        Windsor_Body
        CFDWT_Floor
        Windsor_Pins
        Windsor_Base
        Windsor_Body_2
        CFDWT_Floor_2
        Windsor_Pins_2
        Windsor_Base_2
        Windsor_Body_3
        CFDWT_Floor_3
        Windsor_Pins_3
        Windsor_Base_3
        Windsor_Body_4
        CFDWT_Floor_4
        Windsor_Pins_4
        Windsor_Base_4
        Windsor_Body_5
        CFDWT_Floor_5
        Windsor_Pins_5
        Windsor_Base_5
        Windsor_Body_6
        CFDWT_Floor_6
        Windsor_Pins_6
        Windsor_Base_6
        Windsor_Body_7
        CFDWT_Floor_7
        Windsor_Pins_7
        Windsor_Base_7
        Windsor_Body_8
        CFDWT_Floor_8
        Windsor_Pins_8
        Windsor_Base_8

pressure calc_cp:
    Operating mode: staticCoeff
    Not including hydrostatic effects

forceCoeffs forceCoeffsAll:
    rho: rhoInf
    Freestream density (rhoInf) set to 1
    Not including porosity effects
    magUInf: 40
    lRef   : 0.6375
    Aref   : 0.1124
    rhoInf : 1
    Selecting all coefficients
    - Drag force: Cd
    - Drag force front: Cd(f)
    - Drag force rear: Cd(r)
    - Lift force: Cl
    - Lift force front: Cl(f)
    - Lift force rear: Cl(r)
    - Pitch moment: CmPitch
    - Roll moment: CmRoll
    - Yaw moment: CmYaw
    - Side force: Cs
    - Side force front: Cs(f)
    - Side force rear: Cs(r)


forceCoeffs dragCoeffBase:
    rho: rhoInf
    Freestream density (rhoInf) set to 1
    Not including porosity effects
    magUInf: 40
    lRef   : 0.6375
    Aref   : 0.1124
    rhoInf : 1
    Selecting coefficients:
    - Drag force: Cd


Time = 1

velocityDampingConstraint velocityDamping damped 0 (0%) of cells, with max limit 300
smoothSolver:  Solving for Ux, Initial residual = 0.999999999999069, Final residual = 0.08528990586388517, No Iterations 3
smoothSolver:  Solving for Uy, Initial residual = 1, Final residual = 0.06553297001815435, No Iterations 6
smoothSolver:  Solving for Uz, Initial residual = 1, Final residual = 0.01751052955542146, No Iterations 2
[OGL LOG][lduLduBase.H:119] Initialising OGL
	OGL commit:  e75313f+
	Branch: dev 
	Build type: Debug
	Ginkgo version: 1.8.0 ( develop)
	Ginkgo commit: sparse-communicator
	MPI is GPU aware: 1
	Forces host buffer based communication: 0
	CPU ranks per GPU: 1
	Matrix format: Coo
	End OGL_INFO
[OGL LOG][Proc: 0]: global_index_init: 0.064 [ms]
[OGL LOG][Proc: 0]p_local_cols: call_init: 1.327 [ms]
[OGL LOG][Proc: 0]p_local_rows: call_init: 0.396 [ms]
[OGL LOG][Proc: 0]p_local_ldu_map: call_init: 0.243 [ms]
[OGL LOG][Proc: 0]p_local_coeffs: call_init: 5.606 [ms]
[OGL LOG][Proc: 0]p_non_local_cols: call_init: 0.731 [ms]
[OGL LOG][Proc: 0]p_non_local_rows: call_init: 0.255 [ms]
[OGL LOG][Proc: 0]p_non_local_ldu_map: call_init: 0.953 [ms]
[OGL LOG][Proc: 0]p_non_local_coeffs: call_init: 1.004 [ms]
[OGL LOG][Proc: 0]p: init_local_sparsity_pattern: 144823.093 [ms]
[OGL LOG][Proc: 0]p: init_non_local_sparsity_pattern: 25397.929 [ms]
[OGL LOG][Proc: 0]p: update_local_matrix_data: 163.462 [ms]
[OGL LOG][Proc: 0]p: update_non_local_matrix_data: 2.473 [ms]
[OGL LOG][Proc: 0]device_partition: call_init: 0.327 [ms]
[OGL LOG][Proc: 0]p_matrix: call_init: 352.397 [ms]
[OGL LOG][Proc: 0]p_rhs: call_init: 5.619 [ms]
[OGL LOG][Proc: 0]p_solution: call_init: 5.43 [ms]
[OGL LOG][Preconditioner.H:271] Generate preconditioner GISAI SparsityPower 1
[OGL LOG][Proc: 0]p: init_precond: 513.179 [ms]
[OGL LOG][StoppingCriterion.H:239] Creating stopping criterion with minIter 0 frequency 1
[OGL LOG][Proc: 0]p: generate_solver: 0.141 [ms]
[OGL LOG][Proc: 0]p: solve: 6836.436 [ms]
[OGL LOG][Proc: 0]p: copy_x_back: 15.527 [ms]
[OGL LOG][lduLduBase.H:330] 
Statistics:
	Time per iteration: 6829 [mu s]
	Time per residual norm calculation: 5349.000000 [mu s]
	Time per iteration and DOF: 0.135343 [ns]
	Retrieve results bandwidth 1.937000 [GByte/s]
[OGL LOG][Proc: 0]p: solve_multi_gpu: 7991.146 [ms]
GISAIcudaGKOCG:  Solving for p, Initial residual = 1.000000000000713, Final residual = 1.000000000106742, No Iterations 1001
time step continuity errors : sum local = 0.3634211457905165, global = -0.0009481884393970774, cumulative = -0.0009481884393970774
smoothSolver:  Solving for nuTilda, Initial residual = 0.9999999999401761, Final residual = 0.05086758527748609, No Iterations 3
ExecutionTime = 234.02 s  ClockTime = 237 s

--> FOAM Warning : 
    From virtual bool Foam::functionObjects::fieldSelection::checkSelection()
    in file functionObjects/fieldSelections/fieldSelection/fieldSelection.C at line 166
    Field k not found
--> FOAM Warning : 
    From virtual bool Foam::functionObjects::fieldSelection::checkSelection()
    in file functionObjects/fieldSelections/fieldSelection/fieldSelection.C at line 166
    Field gammaInt not found
--> FOAM Warning : 
    From virtual bool Foam::functionObjects::fieldSelection::checkSelection()
    in file functionObjects/fieldSelections/fieldSelection/fieldSelection.C at line 166
    Field omega not found
--> FOAM Warning : 
    From virtual bool Foam::functionObjects::fieldSelection::checkSelection()
    in file functionObjects/fieldSelections/fieldSelection/fieldSelection.C at line 166
    Field ReThetat not found
--> FOAM Warning : 
    From virtual bool Foam::functionObjects::fieldSelection::checkSelection()
    in file functionObjects/fieldSelections/fieldSelection/fieldSelection.C at line 166
    Field epsilon not found
--> FOAM Warning : 
    From virtual bool Foam::functionObjects::solverFieldSelection::updateSelection()
    in file functionObjects/fieldSelections/solverFieldSelection/solverFieldSelection.C at line 85
    Valid solver fields are: 3(U nuTilda p)Time = 2

velocityDampingConstraint velocityDamping damped 0 (0%) of cells, with max limit 300
smoothSolver:  Solving for Ux, Initial residual = 0.06061047674694892, Final residual = 0.004963859959234557, No Iterations 5
smoothSolver:  Solving for Uy, Initial residual = 0.08039316722071765, Final residual = 0.007797165661554707, No Iterations 2
smoothSolver:  Solving for Uz, Initial residual = 0.1044131935528853, Final residual = 0.007965258316627357, No Iterations 2
[OGL LOG][Proc: 0]: global_index_init: 0.021 [ms]
[OGL LOG][Proc: 0]p_local_coeffs: call_update: 0.001 [ms]
[OGL LOG][Proc: 0]p_non_local_coeffs: call_update: 0 [ms]
[OGL LOG][Proc: 0]p: update_local_matrix_data: 153.633 [ms]
[OGL LOG][Proc: 0]p: update_non_local_matrix_data: 2.42 [ms]
[OGL LOG][Proc: 0]p_matrix: call_update: 4.645 [ms]
[OGL LOG][Proc: 0]p_rhs: call_update: 9.715999999999999 [ms]
[OGL LOG][Preconditioner.H:271] Generate preconditioner GISAI SparsityPower 1
[OGL LOG][Proc: 0]p: init_precond: 502.964 [ms]
[OGL LOG][StoppingCriterion.H:239] Creating stopping criterion with minIter 600 frequency 20
[OGL LOG][Proc: 0]p: generate_solver: 0.016 [ms]
[OGL LOG][Proc: 0]p: solve: 5465.454 [ms]
[OGL LOG][Proc: 0]p: copy_x_back: 11.364 [ms]
[OGL LOG][lduLduBase.H:330] 
Statistics:
	Time per iteration: 5459 [mu s]
	Time per residual norm calculation: 1476.000000 [mu s]
	Time per iteration and DOF: 0.108191 [ns]
	Retrieve results bandwidth 2.647000 [GByte/s]
[OGL LOG][Proc: 0]p: solve_multi_gpu: 6022.669 [ms]
GISAIcudaGKOCG:  Solving for p, Initial residual = 0.9999999998131309, Final residual = 0.9999999999686671, No Iterations 1001
time step continuity errors : sum local = 2.038964200153369, global = -0.001756540970268023, cumulative = -0.0027047294096651
smoothSolver:  Solving for nuTilda, Initial residual = 0.2808782731818736, Final residual = 0.02202588973038748, No Iterations 2
ExecutionTime = 256.69 s  ClockTime = 260 s

Time = 3

velocityDampingConstraint velocityDamping damped 16762 (0.03%) of cells, with max limit 300
smoothSolver:  Solving for Ux, Initial residual = 0.127345113475873, Final residual = 0.007186617014056773, No Iterations 10
smoothSolver:  Solving for Uy, Initial residual = 0.1071871483752677, Final residual = 0.008219205674645581, No Iterations 11
smoothSolver:  Solving for Uz, Initial residual = 0.1278495396622302, Final residual = 0.01182708738859841, No Iterations 10
[OGL LOG][Proc: 0]: global_index_init: 0.019 [ms]
[OGL LOG][Proc: 0]p_local_coeffs: call_update: 0 [ms]
[OGL LOG][Proc: 0]p_non_local_coeffs: call_update: 0 [ms]
[OGL LOG][Proc: 0]p: update_local_matrix_data: 152.226 [ms]
[OGL LOG][Proc: 0]p: update_non_local_matrix_data: 2.312 [ms]
[OGL LOG][Proc: 0]p_matrix: call_update: 4.858 [ms]
[OGL LOG][Proc: 0]p_rhs: call_update: 11.218 [ms]
[OGL LOG][Preconditioner.H:271] Generate preconditioner GISAI SparsityPower 1
[OGL LOG][Proc: 0]p: init_precond: 485.412 [ms]
[OGL LOG][StoppingCriterion.H:239] Creating stopping criterion with minIter 600 frequency 11
[OGL LOG][Proc: 0]p: generate_solver: 0.016 [ms]
[OGL LOG][Proc: 0]p: solve: 5474.298 [ms]
[OGL LOG][Proc: 0]p: copy_x_back: 11.344 [ms]
[OGL LOG][lduLduBase.H:330] 
Statistics:
	Time per iteration: 5463 [mu s]
	Time per residual norm calculation: 1455.000000 [mu s]
	Time per iteration and DOF: 0.108270 [ns]
	Retrieve results bandwidth 2.651000 [GByte/s]
[OGL LOG][Proc: 0]p: solve_multi_gpu: 6020.968 [ms]
GISAIcudaGKOCG:  Solving for p, Initial residual = 0.9999999998958581, Final residual = 1.000000000114083, No Iterations 1002
time step continuity errors : sum local = 6.880206740459561, global = -0.002395421461342467, cumulative = -0.005100150871007568
smoothSolver:  Solving for nuTilda, Initial residual = 0.3489988008228025, Final residual = 0.02684336013607849, No Iterations 1
ExecutionTime = 281.69 s  ClockTime = 285 s

Time = 4

velocityDampingConstraint velocityDamping damped 229607 (0.46%) of cells, with max limit 300
smoothSolver:  Solving for Ux, Initial residual = 0.3941281619199758, Final residual = 0.01856618417655291, No Iterations 1
smoothSolver:  Solving for Uy, Initial residual = 0.3869305697685702, Final residual = 0.02809404660060256, No Iterations 1
smoothSolver:  Solving for Uz, Initial residual = 0.407111409328539, Final residual = 0.02044232037260567, No Iterations 2
[OGL LOG][Proc: 0]: global_index_init: 0.02 [ms]
[OGL LOG][Proc: 0]p_local_coeffs: call_update: 0 [ms]
[OGL LOG][Proc: 0]p_non_local_coeffs: call_update: 0 [ms]
[OGL LOG][Proc: 0]p: update_local_matrix_data: 152.524 [ms]
[OGL LOG][Proc: 0]p: update_non_local_matrix_data: 2.382 [ms]
[OGL LOG][Proc: 0]p_matrix: call_update: 4.895 [ms]
[OGL LOG][Proc: 0]p_rhs: call_update: 8.509 [ms]
[OGL LOG][Preconditioner.H:271] Generate preconditioner GISAI SparsityPower 1
[OGL LOG][Proc: 0]p: init_precond: 479.369 [ms]
[OGL LOG][StoppingCriterion.H:239] Creating stopping criterion with minIter 601 frequency 11
[OGL LOG][Proc: 0]p: generate_solver: 0.018 [ms]
[OGL LOG][Proc: 0]p: solve: 5608.894 [ms]
[OGL LOG][Proc: 0]p: copy_x_back: 11.885 [ms]
[OGL LOG][lduLduBase.H:330] 
Statistics:
	Time per iteration: 5597 [mu s]
	Time per residual norm calculation: 1467.000000 [mu s]
	Time per iteration and DOF: 0.110926 [ns]
	Retrieve results bandwidth 2.531000 [GByte/s]
[OGL LOG][Proc: 0]p: solve_multi_gpu: 6136.971 [ms]
GISAIcudaGKOCG:  Solving for p, Initial residual = 0.9999999994856344, Final residual = 0.9999999995030516, No Iterations 1002
time step continuity errors : sum local = 19.69108644162286, global = -0.00274957493731243, cumulative = -0.007849725808319998
smoothSolver:  Solving for nuTilda, Initial residual = 0.1916001288822985, Final residual = 0.01338277598752988, No Iterations 11
ExecutionTime = 305.02 s  ClockTime = 308 s

Time = 5

velocityDampingConstraint velocityDamping damped 250824 (0.5%) of cells, with max limit 300
smoothSolver:  Solving for Ux, Initial residual = 0.4494830823606489, Final residual = 0.03122763902935214, No Iterations 6
smoothSolver:  Solving for Uy, Initial residual = 0.4333812300665209, Final residual = 0.04307742875667715, No Iterations 7
smoothSolver:  Solving for Uz, Initial residual = 0.4400967331376891, Final residual = 0.02196126345069785, No Iterations 7
[OGL LOG][Proc: 0]: global_index_init: 0.019 [ms]
[OGL LOG][Proc: 0]p_local_coeffs: call_update: 0 [ms]
[OGL LOG][Proc: 0]p_non_local_coeffs: call_update: 0 [ms]
[OGL LOG][Proc: 0]p: update_local_matrix_data: 153.784 [ms]
[OGL LOG][Proc: 0]p: update_non_local_matrix_data: 2.317 [ms]
[OGL LOG][Proc: 0]p_matrix: call_update: 4.809 [ms]
[OGL LOG][Proc: 0]p_rhs: call_update: 9.339 [ms]
[OGL LOG][Preconditioner.H:271] Generate preconditioner GISAI SparsityPower 1
[OGL LOG][Proc: 0]p: init_precond: 489.897 [ms]
[OGL LOG][StoppingCriterion.H:239] Creating stopping criterion with minIter 601 frequency 11
[OGL LOG][Proc: 0]p: generate_solver: 0.019 [ms]
[OGL LOG][Proc: 0]p: solve: 5496.776 [ms]
[OGL LOG][Proc: 0]p: copy_x_back: 11.866 [ms]
[OGL LOG][lduLduBase.H:330] 
Statistics:
	Time per iteration: 5485 [mu s]
	Time per residual norm calculation: 1464.000000 [mu s]
	Time per iteration and DOF: 0.108706 [ns]
	Retrieve results bandwidth 2.535000 [GByte/s]
[OGL LOG][Proc: 0]p: solve_multi_gpu: 6034.91 [ms]
GISAIcudaGKOCG:  Solving for p, Initial residual = 0.9999999997607232, Final residual = 0.9999999998214553, No Iterations 1002
time step continuity errors : sum local = 79.93126860115777, global = -0.003371324805114858, cumulative = -0.01122105061343486
smoothSolver:  Solving for nuTilda, Initial residual = 0.3821014421185627, Final residual = 0.02941824259017175, No Iterations 5
ExecutionTime = 329.29 s  ClockTime = 332 s

Time = 6

velocityDampingConstraint velocityDamping damped 349534 (0.6900000000000001%) of cells, with max limit 300
smoothSolver:  Solving for Ux, Initial residual = 0.4724729527055436, Final residual = 0.01713857302081446, No Iterations 1
smoothSolver:  Solving for Uy, Initial residual = 0.468441151557677, Final residual = 0.0112983112698929, No Iterations 1
smoothSolver:  Solving for Uz, Initial residual = 0.4751261059004571, Final residual = 0.02513360840323638, No Iterations 2
[OGL LOG][Proc: 0]: global_index_init: 0.02 [ms]
[OGL LOG][Proc: 0]p_local_coeffs: call_update: 0 [ms]
[OGL LOG][Proc: 0]p_non_local_coeffs: call_update: 0 [ms]
[OGL LOG][Proc: 0]p: update_local_matrix_data: 149.489 [ms]
[OGL LOG][Proc: 0]p: update_non_local_matrix_data: 2.483 [ms]
[OGL LOG][Proc: 0]p_matrix: call_update: 4.753 [ms]
[OGL LOG][Proc: 0]p_rhs: call_update: 8.691000000000001 [ms]
[OGL LOG][Preconditioner.H:271] Generate preconditioner GISAI SparsityPower 1
[OGL LOG][Proc: 0]p: init_precond: 484.553 [ms]
[OGL LOG][StoppingCriterion.H:239] Creating stopping criterion with minIter 601 frequency 11
[OGL LOG][Proc: 0]p: generate_solver: 0.021 [ms]
[OGL LOG][Proc: 0]p: solve: 5493.313 [ms]
[OGL LOG][Proc: 0]p: copy_x_back: 11.329 [ms]
[OGL LOG][lduLduBase.H:330] 
Statistics:
	Time per iteration: 5482 [mu s]
	Time per residual norm calculation: 1313.000000 [mu s]
	Time per iteration and DOF: 0.108647 [ns]
	Retrieve results bandwidth 2.655000 [GByte/s]
[OGL LOG][Proc: 0]p: solve_multi_gpu: 6029.231 [ms]
GISAIcudaGKOCG:  Solving for p, Initial residual = 0.9999999997480231, Final residual = 0.999999999793542, No Iterations 1002
time step continuity errors : sum local = 94.60757348696255, global = -0.003700697750507376, cumulative = -0.01492174836394223
smoothSolver:  Solving for nuTilda, Initial residual = 0.2952239445688326, Final residual = 0.02068897065217363, No Iterations 8
ExecutionTime = 352.1 s  ClockTime = 355 s

Time = 7

velocityDampingConstraint velocityDamping damped 374108 (0.74%) of cells, with max limit 300
smoothSolver:  Solving for Ux, Initial residual = 0.5134645448484396, Final residual = 0.02669498420721874, No Iterations 2
smoothSolver:  Solving for Uy, Initial residual = 0.4939852017479004, Final residual = 0.04579661691870723, No Iterations 2
smoothSolver:  Solving for Uz, Initial residual = 0.5165330551807555, Final residual = 0.03060055857827596, No Iterations 2
[OGL LOG][Proc: 0]: global_index_init: 0.048 [ms]
[OGL LOG][Proc: 0]p_local_coeffs: call_update: 0 [ms]
[OGL LOG][Proc: 0]p_non_local_coeffs: call_update: 0 [ms]
[OGL LOG][Proc: 0]p: update_local_matrix_data: 152.905 [ms]
[OGL LOG][Proc: 0]p: update_non_local_matrix_data: 2.416 [ms]
[OGL LOG][Proc: 0]p_matrix: call_update: 4.867 [ms]
[OGL LOG][Proc: 0]p_rhs: call_update: 4.264 [ms]
[OGL LOG][Preconditioner.H:271] Generate preconditioner GISAI SparsityPower 1
[OGL LOG][Proc: 0]p: init_precond: 483.42 [ms]
[OGL LOG][StoppingCriterion.H:239] Creating stopping criterion with minIter 601 frequency 10
[OGL LOG][Proc: 0]p: generate_solver: 0.016 [ms]
[OGL LOG][Proc: 0]p: solve: 5463.054 [ms]
[OGL LOG][Proc: 0]p: copy_x_back: 11.582 [ms]
[OGL LOG][lduLduBase.H:330] 
Statistics:
	Time per iteration: 5457 [mu s]
	Time per residual norm calculation: 1307.000000 [mu s]
	Time per iteration and DOF: 0.108151 [ns]
	Retrieve results bandwidth 2.597000 [GByte/s]
[OGL LOG][Proc: 0]p: solve_multi_gpu: 5983.677 [ms]
GISAIcudaGKOCG:  Solving for p, Initial residual = 0.9999999998224892, Final residual = 0.9999999998238898, No Iterations 1001
time step continuity errors : sum local = 193.3839745096622, global = -0.004147671135033026, cumulative = -0.01906941949897526
smoothSolver:  Solving for nuTilda, Initial residual = 0.2724846455796707, Final residual = 0.01540563951494721, No Iterations 10
ExecutionTime = 375.35 s  ClockTime = 379 s

Time = 8

velocityDampingConstraint velocityDamping damped 378616 (0.75%) of cells, with max limit 300
smoothSolver:  Solving for Ux, Initial residual = 0.4969486957384202, Final residual = 0.01731864238642403, No Iterations 3
smoothSolver:  Solving for Uy, Initial residual = 0.5253004453080834, Final residual = 0.02741813231187816, No Iterations 3
smoothSolver:  Solving for Uz, Initial residual = 0.4925942245434771, Final residual = 0.01839821701178456, No Iterations 3
[OGL LOG][Proc: 0]: global_index_init: 0.133 [ms]
[OGL LOG][Proc: 0]p_local_coeffs: call_update: 0 [ms]
[OGL LOG][Proc: 0]p_non_local_coeffs: call_update: 0 [ms]
[OGL LOG][Proc: 0]p: update_local_matrix_data: 154.964 [ms]
[OGL LOG][Proc: 0]p: update_non_local_matrix_data: 2.323 [ms]
[OGL LOG][Proc: 0]p_matrix: call_update: 5.165 [ms]
[OGL LOG][Proc: 0]p_rhs: call_update: 8.968 [ms]
[OGL LOG][Preconditioner.H:271] Generate preconditioner GISAI SparsityPower 1
[OGL LOG][Proc: 0]p: init_precond: 483.506 [ms]
[OGL LOG][StoppingCriterion.H:239] Creating stopping criterion with minIter 600 frequency 10
[OGL LOG][Proc: 0]p: generate_solver: 0.019 [ms]
[OGL LOG][Proc: 0]p: solve: 5693.231 [ms]
[OGL LOG][Proc: 0]p: copy_x_back: 11.189 [ms]
[OGL LOG][lduLduBase.H:330] 
Statistics:
	Time per iteration: 5687 [mu s]
	Time per residual norm calculation: 1457.000000 [mu s]
	Time per iteration and DOF: 0.112710 [ns]
	Retrieve results bandwidth 2.688000 [GByte/s]
[OGL LOG][Proc: 0]p: solve_multi_gpu: 6223.47 [ms]
GISAIcudaGKOCG:  Solving for p, Initial residual = 0.9999999999127333, Final residual = 0.9999999999103417, No Iterations 1001
time step continuity errors : sum local = 373.2971156351185, global = -0.004654803906876809, cumulative = -0.02372422340585207
smoothSolver:  Solving for nuTilda, Initial residual = 0.4949487919028088, Final residual = 0.03193007192698966, No Iterations 8
ExecutionTime = 398.83 s  ClockTime = 402 s

Time = 9

velocityDampingConstraint velocityDamping damped 408640 (0.8100000000000001%) of cells, with max limit 300
smoothSolver:  Solving for Ux, Initial residual = 0.4997255670831015, Final residual = 0.03184585177839061, No Iterations 3
smoothSolver:  Solving for Uy, Initial residual = 0.4948743003910861, Final residual = 0.03456399482747604, No Iterations 3
smoothSolver:  Solving for Uz, Initial residual = 0.5924388612667688, Final residual = 0.0501715830453188, No Iterations 1
[OGL LOG][Proc: 0]: global_index_init: 0.143 [ms]
[OGL LOG][Proc: 0]p_local_coeffs: call_update: 0 [ms]
[OGL LOG][Proc: 0]p_non_local_coeffs: call_update: 0 [ms]
[OGL LOG][Proc: 0]p: update_local_matrix_data: 154.906 [ms]
[OGL LOG][Proc: 0]p: update_non_local_matrix_data: 2.462 [ms]
[OGL LOG][Proc: 0]p_matrix: call_update: 4.889 [ms]
[OGL LOG][Proc: 0]p_rhs: call_update: 8.249000000000001 [ms]
[OGL LOG][Preconditioner.H:271] Generate preconditioner GISAI SparsityPower 1
[OGL LOG][Proc: 0]p: init_precond: 478.027 [ms]
[OGL LOG][StoppingCriterion.H:239] Creating stopping criterion with minIter 600 frequency 11
[OGL LOG][Proc: 0]p: generate_solver: 0.016 [ms]
[OGL LOG][Proc: 0]p: solve: 5471.393 [ms]
[OGL LOG][Proc: 0]p: copy_x_back: 14.978 [ms]
[OGL LOG][lduLduBase.H:330] 
Statistics:
	Time per iteration: 5460 [mu s]
	Time per residual norm calculation: 1027.000000 [mu s]
	Time per iteration and DOF: 0.108211 [ns]
	Retrieve results bandwidth 2.008000 [GByte/s]
[OGL LOG][Proc: 0]p: solve_multi_gpu: 5993.423 [ms]
GISAIcudaGKOCG:  Solving for p, Initial residual = 0.9999999999116369, Final residual = 0.9999999999073707, No Iterations 1002
time step continuity errors : sum local = 366.4333501530753, global = -0.005144536033836918, cumulative = -0.02886875943968898
smoothSolver:  Solving for nuTilda, Initial residual = 0.3013717707760346, Final residual = 0.02220227541698321, No Iterations 4
ExecutionTime = 421.49 s  ClockTime = 425 s

Time = 10

velocityDampingConstraint velocityDamping damped 416764 (0.8300000000000001%) of cells, with max limit 300
smoothSolver:  Solving for Ux, Initial residual = 0.512626431069691, Final residual = 0.04619478398208155, No Iterations 2
smoothSolver:  Solving for Uy, Initial residual = 0.5144200203067473, Final residual = 0.04564023474559611, No Iterations 2
smoothSolver:  Solving for Uz, Initial residual = 0.520663785064837, Final residual = 0.04814622984364295, No Iterations 2
[OGL LOG][Proc: 0]: global_index_init: 0.02 [ms]
[OGL LOG][Proc: 0]p_local_coeffs: call_update: 0 [ms]
[OGL LOG][Proc: 0]p_non_local_coeffs: call_update: 0 [ms]
[OGL LOG][Proc: 0]p: update_local_matrix_data: 153.827 [ms]
[OGL LOG][Proc: 0]p: update_non_local_matrix_data: 2.333 [ms]
[OGL LOG][Proc: 0]p_matrix: call_update: 4.797 [ms]
[OGL LOG][Proc: 0]p_rhs: call_update: 9.067 [ms]
[OGL LOG][Preconditioner.H:271] Generate preconditioner GISAI SparsityPower 1
[OGL LOG][Proc: 0]p: init_precond: 467.51 [ms]
[OGL LOG][StoppingCriterion.H:239] Creating stopping criterion with minIter 601 frequency 8
[OGL LOG][Proc: 0]p: generate_solver: 0.019 [ms]
[OGL LOG][Proc: 0]p: solve: 5515.072 [ms]
[OGL LOG][Proc: 0]p: copy_x_back: 11.321 [ms]
[OGL LOG][lduLduBase.H:330] 
Statistics:
	Time per iteration: 5509 [mu s]
	Time per residual norm calculation: 1465.000000 [mu s]
	Time per iteration and DOF: 0.109182 [ns]
	Retrieve results bandwidth 2.657000 [GByte/s]
[OGL LOG][Proc: 0]p: solve_multi_gpu: 6028.27 [ms]
GISAIcudaGKOCG:  Solving for p, Initial residual = 0.9999999998910919, Final residual = 0.9999999998824759, No Iterations 1001
time step continuity errors : sum local = 237.4864928778582, global = -0.005567329581932901, cumulative = -0.03443608902162189
smoothSolver:  Solving for nuTilda, Initial residual = 0.2684438092435326, Final residual = 0.01961571462869599, No Iterations 4
ExecutionTime = 444.18 s  ClockTime = 448 s

Time = 11

velocityDampingConstraint velocityDamping damped 429834 (0.85%) of cells, with max limit 300
smoothSolver:  Solving for Ux, Initial residual = 0.5441033379051945, Final residual = 0.03642652559280973, No Iterations 2
smoothSolver:  Solving for Uy, Initial residual = 0.5307661516833068, Final residual = 0.01374373241605746, No Iterations 3
smoothSolver:  Solving for Uz, Initial residual = 0.5430762441593602, Final residual = 0.03815608179429009, No Iterations 2
[OGL LOG][Proc: 0]: global_index_init: 0.02 [ms]
[OGL LOG][Proc: 0]p_local_coeffs: call_update: 0 [ms]
[OGL LOG][Proc: 0]p_non_local_coeffs: call_update: 0 [ms]
[OGL LOG][Proc: 0]p: update_local_matrix_data: 150.558 [ms]
[OGL LOG][Proc: 0]p: update_non_local_matrix_data: 2.384 [ms]
[OGL LOG][Proc: 0]p_matrix: call_update: 4.634 [ms]
[OGL LOG][Proc: 0]p_rhs: call_update: 8.302 [ms]
[OGL LOG][Preconditioner.H:271] Generate preconditioner GISAI SparsityPower 1
[OGL LOG][Proc: 0]p: init_precond: 462.316 [ms]
[OGL LOG][StoppingCriterion.H:239] Creating stopping criterion with minIter 600 frequency 11
[OGL LOG][Proc: 0]p: generate_solver: 0.016 [ms]
[OGL LOG][Proc: 0]p: solve: 5512.455 [ms]
[OGL LOG][Proc: 0]p: copy_x_back: 11.396 [ms]
[OGL LOG][lduLduBase.H:330] 
Statistics:
	Time per iteration: 5501 [mu s]
	Time per residual norm calculation: 1024.000000 [mu s]
	Time per iteration and DOF: 0.109023 [ns]
	Retrieve results bandwidth 2.639000 [GByte/s]
[OGL LOG][Proc: 0]p: solve_multi_gpu: 6023.159 [ms]
GISAIcudaGKOCG:  Solving for p, Initial residual = 0.9999999999021273, Final residual = 0.9999999998847681, No Iterations 1002
time step continuity errors : sum local = 206.6515529983924, global = -0.005989025446014771, cumulative = -0.04042511446763666
smoothSolver:  Solving for nuTilda, Initial residual = 0.2442535296705206, Final residual = 0.02201714607752715, No Iterations 5
ExecutionTime = 466.99 s  ClockTime = 471 s

Time = 12

velocityDampingConstraint velocityDamping damped 428630 (0.85%) of cells, with max limit 300
smoothSolver:  Solving for Ux, Initial residual = 0.4974119071781537, Final residual = 0.01696868292977858, No Iterations 3
smoothSolver:  Solving for Uy, Initial residual = 0.5159336718033574, Final residual = 0.0238671575281443, No Iterations 3
smoothSolver:  Solving for Uz, Initial residual = 0.5052247582922003, Final residual = 0.02688171452944116, No Iterations 3
[OGL LOG][Proc: 0]: global_index_init: 0.02 [ms]
[OGL LOG][Proc: 0]p_local_coeffs: call_update: 0 [ms]
[OGL LOG][Proc: 0]p_non_local_coeffs: call_update: 0 [ms]
[OGL LOG][Proc: 0]p: update_local_matrix_data: 154.849 [ms]
[OGL LOG][Proc: 0]p: update_non_local_matrix_data: 2.392 [ms]
[OGL LOG][Proc: 0]p_matrix: call_update: 4.833 [ms]
[OGL LOG][Proc: 0]p_rhs: call_update: 9.003 [ms]
[OGL LOG][Preconditioner.H:271] Generate preconditioner GISAI SparsityPower 1
[OGL LOG][Proc: 0]p: init_precond: 449.03 [ms]
[OGL LOG][StoppingCriterion.H:239] Creating stopping criterion with minIter 601 frequency 8
[OGL LOG][Proc: 0]p: generate_solver: 0.016 [ms]
[OGL LOG][Proc: 0]p: solve: 5709.578 [ms]
[OGL LOG][Proc: 0]p: copy_x_back: 11.436 [ms]
[OGL LOG][lduLduBase.H:330] 
Statistics:
	Time per iteration: 5703 [mu s]
	Time per residual norm calculation: 1314.000000 [mu s]
	Time per iteration and DOF: 0.113027 [ns]
	Retrieve results bandwidth 2.630000 [GByte/s]
[OGL LOG][Proc: 0]p: solve_multi_gpu: 6202.391 [ms]
GISAIcudaGKOCG:  Solving for p, Initial residual = 0.9999999998588289, Final residual = 0.9999999998559909, No Iterations 1001
time step continuity errors : sum local = 196.084650166612, global = -0.006475697319362361, cumulative = -0.04690081178699902
smoothSolver:  Solving for nuTilda, Initial residual = 0.2409893138205268, Final residual = 0.01736628458539913, No Iterations 5
ExecutionTime = 490.18 s  ClockTime = 494 s

Time = 13

velocityDampingConstraint velocityDamping damped 417560 (0.8300000000000001%) of cells, with max limit 300
smoothSolver:  Solving for Ux, Initial residual = 0.5667464376032174, Final residual = 0.0224019621292389, No Iterations 2
smoothSolver:  Solving for Uy, Initial residual = 0.5651522161758653, Final residual = 0.04528719207317937, No Iterations 2
smoothSolver:  Solving for Uz, Initial residual = 0.5608412386726979, Final residual = 0.02061474246934463, No Iterations 2
[OGL LOG][Proc: 0]: global_index_init: 0.022 [ms]
[OGL LOG][Proc: 0]p_local_coeffs: call_update: 0 [ms]
[OGL LOG][Proc: 0]p_non_local_coeffs: call_update: 0 [ms]
[OGL LOG][Proc: 0]p: update_local_matrix_data: 149.819 [ms]
[OGL LOG][Proc: 0]p: update_non_local_matrix_data: 2.363 [ms]
[OGL LOG][Proc: 0]p_matrix: call_update: 4.721 [ms]
[OGL LOG][Proc: 0]p_rhs: call_update: 9.925000000000001 [ms]
[OGL LOG][Preconditioner.H:271] Generate preconditioner GISAI SparsityPower 1
[OGL LOG][Proc: 0]p: init_precond: 493.575 [ms]
[OGL LOG][StoppingCriterion.H:239] Creating stopping criterion with minIter 600 frequency 10
[OGL LOG][Proc: 0]p: generate_solver: 0.018 [ms]
[OGL LOG][Proc: 0]p: solve: 5617.757 [ms]
[OGL LOG][Proc: 0]p: copy_x_back: 14.918 [ms]
[OGL LOG][lduLduBase.H:330] 
Statistics:
	Time per iteration: 5612 [mu s]
	Time per residual norm calculation: 1472.000000 [mu s]
	Time per iteration and DOF: 0.111223 [ns]
	Retrieve results bandwidth 2.016000 [GByte/s]
[OGL LOG][Proc: 0]p: solve_multi_gpu: 6165.654 [ms]
GISAIcudaGKOCG:  Solving for p, Initial residual = 0.9999999996793361, Final residual = 0.9999999996369514, No Iterations 1001
time step continuity errors : sum local = 203.9278671481195, global = -0.006888962207276004, cumulative = -0.05378977399427502
smoothSolver:  Solving for nuTilda, Initial residual = 0.2246649122524288, Final residual = 0.01937747244065944, No Iterations 5
ExecutionTime = 513.13 s  ClockTime = 517 s

Time = 14

velocityDampingConstraint velocityDamping damped 413078 (0.8200000000000001%) of cells, with max limit 300
smoothSolver:  Solving for Ux, Initial residual = 0.5109080951852318, Final residual = 0.0145490678511399, No Iterations 3
smoothSolver:  Solving for Uy, Initial residual = 0.5403960498272985, Final residual = 0.01940277090733453, No Iterations 3
smoothSolver:  Solving for Uz, Initial residual = 0.4861707001604407, Final residual = 0.01975283134725958, No Iterations 3
[OGL LOG][Proc: 0]: global_index_init: 0.02 [ms]
[OGL LOG][Proc: 0]p_local_coeffs: call_update: 0 [ms]
[OGL LOG][Proc: 0]p_non_local_coeffs: call_update: 0 [ms]
[OGL LOG][Proc: 0]p: update_local_matrix_data: 156.064 [ms]
[OGL LOG][Proc: 0]p: update_non_local_matrix_data: 2.437 [ms]
[OGL LOG][Proc: 0]p_matrix: call_update: 4.963 [ms]
[OGL LOG][Proc: 0]p_rhs: call_update: 9.238 [ms]
[OGL LOG][Preconditioner.H:271] Generate preconditioner GISAI SparsityPower 1
[OGL LOG][Proc: 0]p: init_precond: 494.978 [ms]
[OGL LOG][StoppingCriterion.H:239] Creating stopping criterion with minIter 600 frequency 11
[OGL LOG][Proc: 0]p: generate_solver: 0.015 [ms]
[OGL LOG][Proc: 0]p: solve: 5497.521 [ms]
[OGL LOG][Proc: 0]p: copy_x_back: 11.731 [ms]
[OGL LOG][lduLduBase.H:330] 
Statistics:
	Time per iteration: 5486 [mu s]
	Time per residual norm calculation: 1314.000000 [mu s]
	Time per iteration and DOF: 0.108726 [ns]
	Retrieve results bandwidth 2.564000 [GByte/s]
[OGL LOG][Proc: 0]p: solve_multi_gpu: 6033.623 [ms]
GISAIcudaGKOCG:  Solving for p, Initial residual = 0.9999999996670231, Final residual = 0.9999999996238327, No Iterations 1002
time step continuity errors : sum local = 182.3113420613184, global = -0.007365973187534663, cumulative = -0.06115574718180969
smoothSolver:  Solving for nuTilda, Initial residual = 0.2381396853065124, Final residual = 0.01341279793644728, No Iterations 4
ExecutionTime = 536.13 s  ClockTime = 540 s

Time = 15

velocityDampingConstraint velocityDamping damped 399662 (0.79%) of cells, with max limit 300
smoothSolver:  Solving for Ux, Initial residual = 0.5471458626660278, Final residual = 0.02294451464284804, No Iterations 2
smoothSolver:  Solving for Uy, Initial residual = 0.5339504837802442, Final residual = 0.02279494176397243, No Iterations 3
smoothSolver:  Solving for Uz, Initial residual = 0.5737225507505109, Final residual = 0.03316997593291, No Iterations 2
[OGL LOG][Proc: 0]: global_index_init: 0.176 [ms]
[OGL LOG][Proc: 0]p_local_coeffs: call_update: 0 [ms]
[OGL LOG][Proc: 0]p_non_local_coeffs: call_update: 0 [ms]
[OGL LOG][Proc: 0]p: update_local_matrix_data: 153.489 [ms]
[OGL LOG][Proc: 0]p: update_non_local_matrix_data: 2.367 [ms]
[OGL LOG][Proc: 0]p_matrix: call_update: 5.19 [ms]
[OGL LOG][Proc: 0]p_rhs: call_update: 8.677 [ms]
[OGL LOG][Preconditioner.H:271] Generate preconditioner GISAI SparsityPower 1
[OGL LOG][Proc: 0]p: init_precond: 470.311 [ms]
[OGL LOG][StoppingCriterion.H:239] Creating stopping criterion with minIter 601 frequency 10
[OGL LOG][Proc: 0]p: generate_solver: 0.018 [ms]
[OGL LOG][Proc: 0]p: solve: 5516.756 [ms]
[OGL LOG][Proc: 0]p: copy_x_back: 14.9 [ms]
[OGL LOG][lduLduBase.H:330] 
Statistics:
	Time per iteration: 5511 [mu s]
	Time per residual norm calculation: 1457.000000 [mu s]
	Time per iteration and DOF: 0.109222 [ns]
	Retrieve results bandwidth 2.018000 [GByte/s]
[OGL LOG][Proc: 0]p: solve_multi_gpu: 6037.491 [ms]
GISAIcudaGKOCG:  Solving for p, Initial residual = 0.9999999996030502, Final residual = 0.9999999996075022, No Iterations 1001
time step continuity errors : sum local = 182.4859791228754, global = -0.00777058557168867, cumulative = -0.06892633275349835
smoothSolver:  Solving for nuTilda, Initial residual = 0.1954887016351261, Final residual = 0.01499405889410839, No Iterations 6
ExecutionTime = 559.11 s  ClockTime = 563 s

Time = 16

velocityDampingConstraint velocityDamping damped 396615 (0.79%) of cells, with max limit 300
smoothSolver:  Solving for Ux, Initial residual = 0.4886095658895702, Final residual = 0.02487909343658468, No Iterations 3
smoothSolver:  Solving for Uy, Initial residual = 0.5412909785010325, Final residual = 0.01445015998121449, No Iterations 3
smoothSolver:  Solving for Uz, Initial residual = 0.5068520243592813, Final residual = 0.02477453797084538, No Iterations 3
[OGL LOG][Proc: 0]: global_index_init: 0.02 [ms]
[OGL LOG][Proc: 0]p_local_coeffs: call_update: 0 [ms]
[OGL LOG][Proc: 0]p_non_local_coeffs: call_update: 0 [ms]
[OGL LOG][Proc: 0]p: update_local_matrix_data: 153.739 [ms]
[OGL LOG][Proc: 0]p: update_non_local_matrix_data: 2.384 [ms]
[OGL LOG][Proc: 0]p_matrix: call_update: 4.628 [ms]
[OGL LOG][Proc: 0]p_rhs: call_update: 7.831 [ms]
[OGL LOG][Preconditioner.H:271] Generate preconditioner GISAI SparsityPower 1
[OGL LOG][Proc: 0]p: init_precond: 501.158 [ms]
[OGL LOG][StoppingCriterion.H:239] Creating stopping criterion with minIter 600 frequency 11
[OGL LOG][Proc: 0]p: generate_solver: 0.015 [ms]
[OGL LOG][Proc: 0]p: solve: 5480.098 [ms]
[OGL LOG][Proc: 0]p: copy_x_back: 11.392 [ms]
[OGL LOG][lduLduBase.H:330] 
Statistics:
	Time per iteration: 5469 [mu s]
	Time per residual norm calculation: 1435.000000 [mu s]
	Time per iteration and DOF: 0.108389 [ns]
	Retrieve results bandwidth 2.640000 [GByte/s]
[OGL LOG][Proc: 0]p: solve_multi_gpu: 6023.754 [ms]
GISAIcudaGKOCG:  Solving for p, Initial residual = 0.9999999995745799, Final residual = 0.9999999995639854, No Iterations 1002
time step continuity errors : sum local = 213.3684292363267, global = -0.008236616035643332, cumulative = -0.07716294878914169
smoothSolver:  Solving for nuTilda, Initial residual = 0.2537743516598559, Final residual = 0.01567976478363805, No Iterations 3
ExecutionTime = 581.9299999999999 s  ClockTime = 586 s

Time = 17

velocityDampingConstraint velocityDamping damped 383058 (0.76%) of cells, with max limit 300
smoothSolver:  Solving for Ux, Initial residual = 0.5896351756024975, Final residual = 0.01959979145880303, No Iterations 1
smoothSolver:  Solving for Uy, Initial residual = 0.5669809946377544, Final residual = 0.02183326669351325, No Iterations 3
smoothSolver:  Solving for Uz, Initial residual = 0.5826933720200588, Final residual = 0.01235452576270941, No Iterations 3
[OGL LOG][Proc: 0]: global_index_init: 0.021 [ms]
[OGL LOG][Proc: 0]p_local_coeffs: call_update: 0 [ms]
[OGL LOG][Proc: 0]p_non_local_coeffs: call_update: 0 [ms]
[OGL LOG][Proc: 0]p: update_local_matrix_data: 153.211 [ms]
[OGL LOG][Proc: 0]p: update_non_local_matrix_data: 2.48 [ms]
[OGL LOG][Proc: 0]p_matrix: call_update: 4.683 [ms]
[OGL LOG][Proc: 0]p_rhs: call_update: 8.794 [ms]
[OGL LOG][Preconditioner.H:271] Generate preconditioner GISAI SparsityPower 1
[OGL LOG][Proc: 0]p: init_precond: 469.482 [ms]
[OGL LOG][StoppingCriterion.H:239] Creating stopping criterion with minIter 601 frequency 11
[OGL LOG][Proc: 0]p: generate_solver: 0.016 [ms]
[OGL LOG][Proc: 0]p: solve: 5598.945 [ms]
[OGL LOG][Proc: 0]p: copy_x_back: 11.361 [ms]
[OGL LOG][lduLduBase.H:330] 
Statistics:
	Time per iteration: 5587 [mu s]
	Time per residual norm calculation: 1300.000000 [mu s]
	Time per iteration and DOF: 0.110728 [ns]
	Retrieve results bandwidth 2.647000 [GByte/s]
[OGL LOG][Proc: 0]p: solve_multi_gpu: 6115.105 [ms]
GISAIcudaGKOCG:  Solving for p, Initial residual = 0.999999999664385, Final residual = 0.9999999996896105, No Iterations 1002
time step continuity errors : sum local = 263.0982227596561, global = -0.008526308063301829, cumulative = -0.08568925685244352
smoothSolver:  Solving for nuTilda, Initial residual = 0.1964811976205965, Final residual = 0.01106418426647616, No Iterations 6
ExecutionTime = 604.88 s  ClockTime = 609 s

Time = 18

velocityDampingConstraint velocityDamping damped 377956 (0.75%) of cells, with max limit 300
smoothSolver:  Solving for Ux, Initial residual = 0.4794893255194415, Final residual = 0.00981214152534839, No Iterations 3
smoothSolver:  Solving for Uy, Initial residual = 0.5661266395630888, Final residual = 0.0228314715124385, No Iterations 2
smoothSolver:  Solving for Uz, Initial residual = 0.5443582203960349, Final residual = 0.01416007429846655, No Iterations 3
[OGL LOG][Proc: 0]: global_index_init: 0.08500000000000001 [ms]
[OGL LOG][Proc: 0]p_local_coeffs: call_update: 0 [ms]
[OGL LOG][Proc: 0]p_non_local_coeffs: call_update: 0 [ms]
[OGL LOG][Proc: 0]p: update_local_matrix_data: 149.894 [ms]
[OGL LOG][Proc: 0]p: update_non_local_matrix_data: 2.462 [ms]
[OGL LOG][Proc: 0]p_matrix: call_update: 4.819 [ms]
[OGL LOG][Proc: 0]p_rhs: call_update: 9.696999999999999 [ms]
[OGL LOG][Preconditioner.H:271] Generate preconditioner GISAI SparsityPower 1
[OGL LOG][Proc: 0]p: init_precond: 462.499 [ms]
[OGL LOG][StoppingCriterion.H:239] Creating stopping criterion with minIter 601 frequency 10
[OGL LOG][Proc: 0]p: generate_solver: 0.017 [ms]
[OGL LOG][Proc: 0]p: solve: 5493.322 [ms]
[OGL LOG][Proc: 0]p: copy_x_back: 11.384 [ms]
[OGL LOG][lduLduBase.H:330] 
Statistics:
	Time per iteration: 5487 [mu s]
	Time per residual norm calculation: 1316.000000 [mu s]
	Time per iteration and DOF: 0.108746 [ns]
	Retrieve results bandwidth 2.642000 [GByte/s]
[OGL LOG][Proc: 0]p: solve_multi_gpu: 6004.19 [ms]
GISAIcudaGKOCG:  Solving for p, Initial residual = 0.9999999997105492, Final residual = 0.9999999997146795, No Iterations 1001
time step continuity errors : sum local = 349.1405248907053, global = -0.008988280690182244, cumulative = -0.09467753754262577
smoothSolver:  Solving for nuTilda, Initial residual = 0.2158865788444455, Final residual = 0.01318226214626966, No Iterations 4
ExecutionTime = 627.67 s  ClockTime = 632 s

Time = 19

velocityDampingConstraint velocityDamping damped 371692 (0.74%) of cells, with max limit 300
smoothSolver:  Solving for Ux, Initial residual = 0.5796264897715517, Final residual = 0.02234126499307405, No Iterations 1
smoothSolver:  Solving for Uy, Initial residual = 0.5272906177893146, Final residual = 0.03936392270704087, No Iterations 2
smoothSolver:  Solving for Uz, Initial residual = 0.5755303109546686, Final residual = 0.05103730575021416, No Iterations 1
[OGL LOG][Proc: 0]: global_index_init: 0.019 [ms]
[OGL LOG][Proc: 0]p_local_coeffs: call_update: 0 [ms]
[OGL LOG][Proc: 0]p_non_local_coeffs: call_update: 0 [ms]
[OGL LOG][Proc: 0]p: update_local_matrix_data: 153.129 [ms]
[OGL LOG][Proc: 0]p: update_non_local_matrix_data: 2.392 [ms]
[OGL LOG][Proc: 0]p_matrix: call_update: 5.053 [ms]
[OGL LOG][Proc: 0]p_rhs: call_update: 8.558999999999999 [ms]
[OGL LOG][Preconditioner.H:271] Generate preconditioner GISAI SparsityPower 1
[OGL LOG][Proc: 0]p: init_precond: 481.271 [ms]
[OGL LOG][StoppingCriterion.H:239] Creating stopping criterion with minIter 600 frequency 10
[OGL LOG][Proc: 0]p: generate_solver: 0.016 [ms]
[OGL LOG][Proc: 0]p: solve: 5505.162 [ms]
[OGL LOG][Proc: 0]p: copy_x_back: 11.34 [ms]
[OGL LOG][lduLduBase.H:330] 
Statistics:
	Time per iteration: 5499 [mu s]
	Time per residual norm calculation: 1453.000000 [mu s]
	Time per iteration and DOF: 0.108984 [ns]
	Retrieve results bandwidth 2.652000 [GByte/s]
[OGL LOG][Proc: 0]p: solve_multi_gpu: 6031.996 [ms]
GISAIcudaGKOCG:  Solving for p, Initial residual = 0.9999999995713134, Final residual = 0.9999999995324078, No Iterations 1001
time step continuity errors : sum local = 404.153896318566, global = -0.009272976555482799, cumulative = -0.1039505140981086
smoothSolver:  Solving for nuTilda, Initial residual = 0.2546170909148035, Final residual = 0.01978035575221039, No Iterations 5
ExecutionTime = 650.2 s  ClockTime = 654 s

Time = 20

velocityDampingConstraint velocityDamping damped 364714 (0.72%) of cells, with max limit 300
smoothSolver:  Solving for Ux, Initial residual = 0.4989719264681235, Final residual = 0.01175756829667939, No Iterations 2
smoothSolver:  Solving for Uy, Initial residual = 0.5350442454803057, Final residual = 0.01816646661320673, No Iterations 2
smoothSolver:  Solving for Uz, Initial residual = 0.5270623271108024, Final residual = 0.01085793994041392, No Iterations 3
[OGL LOG][Proc: 0]: global_index_init: 0.02 [ms]
[OGL LOG][Proc: 0]p_local_coeffs: call_update: 0 [ms]
[OGL LOG][Proc: 0]p_non_local_coeffs: call_update: 0 [ms]
[OGL LOG][Proc: 0]p: update_local_matrix_data: 153.311 [ms]
[OGL LOG][Proc: 0]p: update_non_local_matrix_data: 2.478 [ms]
[OGL LOG][Proc: 0]p_matrix: call_update: 4.661 [ms]
[OGL LOG][Proc: 0]p_rhs: call_update: 9.449 [ms]
[OGL LOG][Preconditioner.H:271] Generate preconditioner GISAI SparsityPower 1
[OGL LOG][Proc: 0]p: init_precond: 471.839 [ms]
[OGL LOG][StoppingCriterion.H:239] Creating stopping criterion with minIter 600 frequency 11
[OGL LOG][Proc: 0]p: generate_solver: 0.02 [ms]
[OGL LOG][Proc: 0]p: solve: 5476.28 [ms]
[OGL LOG][Proc: 0]p: copy_x_back: 11.208 [ms]
[OGL LOG][lduLduBase.H:330] 
Statistics:
	Time per iteration: 5465 [mu s]
	Time per residual norm calculation: 1321.000000 [mu s]
	Time per iteration and DOF: 0.108310 [ns]
	Retrieve results bandwidth 2.683000 [GByte/s]
[OGL LOG][Proc: 0]p: solve_multi_gpu: 5991.413 [ms]
GISAIcudaGKOCG:  Solving for p, Initial residual = 0.9999999995610042, Final residual = 0.9999999995319148, No Iterations 1002
time step continuity errors : sum local = 400.2160705601647, global = -0.009667209432642463, cumulative = -0.113617723530751
smoothSolver:  Solving for nuTilda, Initial residual = 0.3212557814703607, Final residual = 0.03027520310826462, No Iterations 3
bounding nuTilda, min: -8.119072488162703e-05 max: 145.3736649041621 average: 0.006562570365506238
ExecutionTime = 672.97 s  ClockTime = 677 s

Time = 21

velocityDampingConstraint velocityDamping damped 360871 (0.72%) of cells, with max limit 300
smoothSolver:  Solving for Ux, Initial residual = 0.5614625957606296, Final residual = 0.0559078397485756, No Iterations 1
smoothSolver:  Solving for Uy, Initial residual = 0.5550042273882267, Final residual = 0.0118276754711917, No Iterations 3
smoothSolver:  Solving for Uz, Initial residual = 0.6012896567023707, Final residual = 0.02403338074911827, No Iterations 1
[OGL LOG][Proc: 0]: global_index_init: 0.058 [ms]
[OGL LOG][Proc: 0]p_local_coeffs: call_update: 0 [ms]
[OGL LOG][Proc: 0]p_non_local_coeffs: call_update: 0 [ms]
[OGL LOG][Proc: 0]p: update_local_matrix_data: 149.247 [ms]
[OGL LOG][Proc: 0]p: update_non_local_matrix_data: 2.418 [ms]
[OGL LOG][Proc: 0]p_matrix: call_update: 4.804 [ms]
[OGL LOG][Proc: 0]p_rhs: call_update: 8.053000000000001 [ms]
[OGL LOG][Preconditioner.H:271] Generate preconditioner GISAI SparsityPower 1
[OGL LOG][Proc: 0]p: init_precond: 486.079 [ms]
[OGL LOG][StoppingCriterion.H:239] Creating stopping criterion with minIter 601 frequency 10
[OGL LOG][Proc: 0]p: generate_solver: 0.021 [ms]
[OGL LOG][Proc: 0]p: solve: 5741.892 [ms]
[OGL LOG][Proc: 0]p: copy_x_back: 11.407 [ms]
[OGL LOG][lduLduBase.H:330] 
Statistics:
	Time per iteration: 5736 [mu s]
	Time per residual norm calculation: 1462.000000 [mu s]
	Time per iteration and DOF: 0.113681 [ns]
	Retrieve results bandwidth 2.637000 [GByte/s]
[OGL LOG][Proc: 0]p: solve_multi_gpu: 6278.171 [ms]
GISAIcudaGKOCG:  Solving for p, Initial residual = 0.9999999996292049, Final residual = 0.9999999995572478, No Iterations 1001
time step continuity errors : sum local = 511.4210096531448, global = -0.009947283887737534, cumulative = -0.1235650074184886
smoothSolver:  Solving for nuTilda, Initial residual = 0.2302835942014348, Final residual = 0.02297679356258566, No Iterations 4
ExecutionTime = 695.7 s  ClockTime = 700 s

Time = 22

velocityDampingConstraint velocityDamping damped 357548 (0.71%) of cells, with max limit 300
smoothSolver:  Solving for Ux, Initial residual = 0.4862293976373283, Final residual = 0.03656254965411963, No Iterations 2
smoothSolver:  Solving for Uy, Initial residual = 0.52842850855172, Final residual = 0.0208809211431833, No Iterations 2
smoothSolver:  Solving for Uz, Initial residual = 0.4916599474532939, Final residual = 0.03776449593674922, No Iterations 2
[OGL LOG][Proc: 0]: global_index_init: 0.023 [ms]
[OGL LOG][Proc: 0]p_local_coeffs: call_update: 0 [ms]
[OGL LOG][Proc: 0]p_non_local_coeffs: call_update: 0 [ms]
[OGL LOG][Proc: 0]p: update_local_matrix_data: 153.5 [ms]
[OGL LOG][Proc: 0]p: update_non_local_matrix_data: 2.362 [ms]
[OGL LOG][Proc: 0]p_matrix: call_update: 5.006 [ms]
[OGL LOG][Proc: 0]p_rhs: call_update: 9.087 [ms]
[OGL LOG][Preconditioner.H:271] Generate preconditioner GISAI SparsityPower 1
[OGL LOG][Proc: 0]p: init_precond: 480.441 [ms]
[OGL LOG][StoppingCriterion.H:239] Creating stopping criterion with minIter 600 frequency 11
[OGL LOG][Proc: 0]p: generate_solver: 0.017 [ms]
[OGL LOG][Proc: 0]p: solve: 5508.006 [ms]
[OGL LOG][Proc: 0]p: copy_x_back: 11.243 [ms]
[OGL LOG][lduLduBase.H:330] 
Statistics:
	Time per iteration: 5497 [mu s]
	Time per residual norm calculation: 1314.000000 [mu s]
	Time per iteration and DOF: 0.108944 [ns]
	Retrieve results bandwidth 2.675000 [GByte/s]
[OGL LOG][Proc: 0]p: solve_multi_gpu: 6034.165 [ms]
GISAIcudaGKOCG:  Solving for p, Initial residual = 0.999999999356438, Final residual = 0.9999999996047299, No Iterations 1002
time step continuity errors : sum local = 412.4455790975658, global = -0.01033323722609576, cumulative = -0.1338982446445843
smoothSolver:  Solving for nuTilda, Initial residual = 0.1959548878516357, Final residual = 0.01155192804044618, No Iterations 4
ExecutionTime = 718.29 s  ClockTime = 722 s

Time = 23

velocityDampingConstraint velocityDamping damped 359126 (0.71%) of cells, with max limit 300
smoothSolver:  Solving for Ux, Initial residual = 0.5751360448426058, Final residual = 0.03946028337085152, No Iterations 1
smoothSolver:  Solving for Uy, Initial residual = 0.549351628638673, Final residual = 0.03360026627342372, No Iterations 2
smoothSolver:  Solving for Uz, Initial residual = 0.5464681376957862, Final residual = 0.02093830040844892, No Iterations 1
[OGL LOG][Proc: 0]: global_index_init: 0.022 [ms]
[OGL LOG][Proc: 0]p_local_coeffs: call_update: 0 [ms]
[OGL LOG][Proc: 0]p_non_local_coeffs: call_update: 0 [ms]
[OGL LOG][Proc: 0]p: update_local_matrix_data: 152.966 [ms]
[OGL LOG][Proc: 0]p: update_non_local_matrix_data: 2.39 [ms]
[OGL LOG][Proc: 0]p_matrix: call_update: 4.655 [ms]
[OGL LOG][Proc: 0]p_rhs: call_update: 7.495 [ms]
[OGL LOG][Preconditioner.H:271] Generate preconditioner GISAI SparsityPower 1
[OGL LOG][Proc: 0]p: init_precond: 464.967 [ms]
[OGL LOG][StoppingCriterion.H:239] Creating stopping criterion with minIter 601 frequency 10
[OGL LOG][Proc: 0]p: generate_solver: 0.015 [ms]
[OGL LOG][Proc: 0]p: solve: 5507.727 [ms]
[OGL LOG][Proc: 0]p: copy_x_back: 11.347 [ms]
[OGL LOG][lduLduBase.H:330] 
Statistics:
	Time per iteration: 5502 [mu s]
	Time per residual norm calculation: 1313.000000 [mu s]
	Time per iteration and DOF: 0.109043 [ns]
	Retrieve results bandwidth 2.651000 [GByte/s]
[OGL LOG][Proc: 0]p: solve_multi_gpu: 6013.802 [ms]
GISAIcudaGKOCG:  Solving for p, Initial residual = 0.9999999992236911, Final residual = 0.9999999993663531, No Iterations 1001
time step continuity errors : sum local = 536.1068050937409, global = -0.01060070281484213, cumulative = -0.1444989474594265
smoothSolver:  Solving for nuTilda, Initial residual = 0.1998717033867207, Final residual = 0.01953369803001562, No Iterations 3
ExecutionTime = 740.53 s  ClockTime = 745 s

Time = 24

velocityDampingConstraint velocityDamping damped 357571 (0.71%) of cells, with max limit 300
smoothSolver:  Solving for Ux, Initial residual = 0.5008281427109623, Final residual = 0.01102477091734581, No Iterations 3
smoothSolver:  Solving for Uy, Initial residual = 0.4926719280257019, Final residual = 0.04257353532417373, No Iterations 2
smoothSolver:  Solving for Uz, Initial residual = 0.4915198574661389, Final residual = 0.04574603551322322, No Iterations 2
[OGL LOG][Proc: 0]: global_index_init: 0.327 [ms]
[OGL LOG][Proc: 0]p_local_coeffs: call_update: 0 [ms]
[OGL LOG][Proc: 0]p_non_local_coeffs: call_update: 0 [ms]
[OGL LOG][Proc: 0]p: update_local_matrix_data: 151.023 [ms]
[OGL LOG][Proc: 0]p: update_non_local_matrix_data: 2.376 [ms]
[OGL LOG][Proc: 0]p_matrix: call_update: 4.838 [ms]
[OGL LOG][Proc: 0]p_rhs: call_update: 9.645 [ms]
[OGL LOG][Preconditioner.H:271] Generate preconditioner GISAI SparsityPower 1
[OGL LOG][Proc: 0]p: init_precond: 481.26 [ms]
[OGL LOG][StoppingCriterion.H:239] Creating stopping criterion with minIter 600 frequency 10
[OGL LOG][Proc: 0]p: generate_solver: 0.017 [ms]
[OGL LOG][Proc: 0]p: solve: 5472.641 [ms]
[OGL LOG][Proc: 0]p: copy_x_back: 11.322 [ms]
[OGL LOG][lduLduBase.H:330] 
Statistics:
	Time per iteration: 5467 [mu s]
	Time per residual norm calculation: 1310.000000 [mu s]
	Time per iteration and DOF: 0.108349 [ns]
	Retrieve results bandwidth 2.656000 [GByte/s]
[OGL LOG][Proc: 0]p: solve_multi_gpu: 6002.855 [ms]
GISAIcudaGKOCG:  Solving for p, Initial residual = 0.999999999383104, Final residual = 0.999999999366965, No Iterations 1001
time step continuity errors : sum local = 734.3281620349057, global = -0.01102521968842318, cumulative = -0.1555241671478496
smoothSolver:  Solving for nuTilda, Initial residual = 0.2174248300623987, Final residual = 0.0203248119251952, No Iterations 3
ExecutionTime = 763.12 s  ClockTime = 767 s

Time = 25

velocityDampingConstraint velocityDamping damped 372504 (0.74%) of cells, with max limit 300
smoothSolver:  Solving for Ux, Initial residual = 0.5482478357761409, Final residual = 0.01239841394682013, No Iterations 3
smoothSolver:  Solving for Uy, Initial residual = 0.5852553696039258, Final residual = 0.01265708795468116, No Iterations 3
smoothSolver:  Solving for Uz, Initial residual = 0.6118726380192665, Final residual = 0.0315019199659711, No Iterations 2
[OGL LOG][Proc: 0]: global_index_init: 0.021 [ms]
[OGL LOG][Proc: 0]p_local_coeffs: call_update: 0 [ms]
[OGL LOG][Proc: 0]p_non_local_coeffs: call_update: 0 [ms]
[OGL LOG][Proc: 0]p: update_local_matrix_data: 152.417 [ms]
[OGL LOG][Proc: 0]p: update_non_local_matrix_data: 2.355 [ms]
[OGL LOG][Proc: 0]p_matrix: call_update: 4.605 [ms]
[OGL LOG][Proc: 0]p_rhs: call_update: 8.478 [ms]
[OGL LOG][Preconditioner.H:271] Generate preconditioner GISAI SparsityPower 1
[OGL LOG][Proc: 0]p: init_precond: 500.042 [ms]
[OGL LOG][StoppingCriterion.H:239] Creating stopping criterion with minIter 600 frequency 10
[OGL LOG][Proc: 0]p: generate_solver: 0.017 [ms]
[OGL LOG][Proc: 0]p: solve: 5826.849 [ms]
[OGL LOG][Proc: 0]p: copy_x_back: 13.684 [ms]
[OGL LOG][lduLduBase.H:330] 
Statistics:
	Time per iteration: 5821 [mu s]
	Time per residual norm calculation: 1313.000000 [mu s]
	Time per iteration and DOF: 0.115365 [ns]
	Retrieve results bandwidth 2.198000 [GByte/s]
[OGL LOG][Proc: 0]p: solve_multi_gpu: 6373.036 [ms]
GISAIcudaGKOCG:  Solving for p, Initial residual = 0.9999999995351417, Final residual = 1.000000000018673, No Iterations 1001
time step continuity errors : sum local = 684.2065322040633, global = -0.01140609405700668, cumulative = -0.1669302612048563
smoothSolver:  Solving for nuTilda, Initial residual = 0.160502362852048, Final residual = 0.01469344415251945, No Iterations 4
ExecutionTime = 786.39 s  ClockTime = 791 s

Time = 26

velocityDampingConstraint velocityDamping damped 367929 (0.73%) of cells, with max limit 300
smoothSolver:  Solving for Ux, Initial residual = 0.5262592862559554, Final residual = 0.04044453126027367, No Iterations 2
smoothSolver:  Solving for Uy, Initial residual = 0.5223315602614778, Final residual = 0.02688954356694902, No Iterations 2
smoothSolver:  Solving for Uz, Initial residual = 0.5062539668343575, Final residual = 0.02907096342331216, No Iterations 2
[OGL LOG][Proc: 0]: global_index_init: 0.02 [ms]
[OGL LOG][Proc: 0]p_local_coeffs: call_update: 0 [ms]
[OGL LOG][Proc: 0]p_non_local_coeffs: call_update: 0 [ms]
[OGL LOG][Proc: 0]p: update_local_matrix_data: 150.886 [ms]
[OGL LOG][Proc: 0]p: update_non_local_matrix_data: 2.378 [ms]
[OGL LOG][Proc: 0]p_matrix: call_update: 4.968 [ms]
[OGL LOG][Proc: 0]p_rhs: call_update: 9.167999999999999 [ms]
[OGL LOG][Preconditioner.H:271] Generate preconditioner GISAI SparsityPower 1
[OGL LOG][Proc: 0]p: init_precond: 483.999 [ms]
[OGL LOG][StoppingCriterion.H:239] Creating stopping criterion with minIter 600 frequency 10
[OGL LOG][Proc: 0]p: generate_solver: 0.017 [ms]
[OGL LOG][Proc: 0]p: solve: 5489.963 [ms]
[OGL LOG][Proc: 0]p: copy_x_back: 15.106 [ms]
[OGL LOG][lduLduBase.H:330] 
Statistics:
	Time per iteration: 5484 [mu s]
	Time per residual norm calculation: 1299.000000 [mu s]
	Time per iteration and DOF: 0.108686 [ns]
	Retrieve results bandwidth 1.991000 [GByte/s]
[OGL LOG][Proc: 0]p: solve_multi_gpu: 6026.936 [ms]
GISAIcudaGKOCG:  Solving for p, Initial residual = 0.9999999989487323, Final residual = 0.9999999993227385, No Iterations 1001
time step continuity errors : sum local = 539.3928775814499, global = -0.01175049110867717, cumulative = -0.1786807523135335
smoothSolver:  Solving for nuTilda, Initial residual = 0.1683100489253022, Final residual = 0.0143513786418032, No Iterations 3
ExecutionTime = 808.85 s  ClockTime = 813 s

Time = 27

velocityDampingConstraint velocityDamping damped 368814 (0.73%) of cells, with max limit 300
smoothSolver:  Solving for Ux, Initial residual = 0.4884703564893769, Final residual = 0.04877448953711896, No Iterations 2
smoothSolver:  Solving for Uy, Initial residual = 0.4888108526922765, Final residual = 0.01216603746740641, No Iterations 3
smoothSolver:  Solving for Uz, Initial residual = 0.497438174599976, Final residual = 0.04965878600656105, No Iterations 2
[OGL LOG][Proc: 0]: global_index_init: 0.089 [ms]
[OGL LOG][Proc: 0]p_local_coeffs: call_update: 0 [ms]
[OGL LOG][Proc: 0]p_non_local_coeffs: call_update: 0 [ms]
[OGL LOG][Proc: 0]p: update_local_matrix_data: 153.073 [ms]
[OGL LOG][Proc: 0]p: update_non_local_matrix_data: 2.448 [ms]
[OGL LOG][Proc: 0]p_matrix: call_update: 4.99 [ms]
[OGL LOG][Proc: 0]p_rhs: call_update: 7.918 [ms]
[OGL LOG][Preconditioner.H:271] Generate preconditioner GISAI SparsityPower 1
[OGL LOG][Proc: 0]p: init_precond: 464.519 [ms]
[OGL LOG][StoppingCriterion.H:239] Creating stopping criterion with minIter 600 frequency 10
[OGL LOG][Proc: 0]p: generate_solver: 0.019 [ms]
[OGL LOG][Proc: 0]p: solve: 5485.006 [ms]
[OGL LOG][Proc: 0]p: copy_x_back: 11.4 [ms]
[OGL LOG][lduLduBase.H:330] 
Statistics:
	Time per iteration: 5479 [mu s]
	Time per residual norm calculation: 1458.000000 [mu s]
	Time per iteration and DOF: 0.108587 [ns]
	Retrieve results bandwidth 2.638000 [GByte/s]
[OGL LOG][Proc: 0]p: solve_multi_gpu: 5995.667 [ms]
GISAIcudaGKOCG:  Solving for p, Initial residual = 0.9999999989513755, Final residual = 1.000000003827101, No Iterations 1001
time step continuity errors : sum local = 512.3467400918305, global = -0.01205991413137161, cumulative = -0.1907406664449051
smoothSolver:  Solving for nuTilda, Initial residual = 0.2513404877284747, Final residual = 0.01477075158340469, No Iterations 3
ExecutionTime = 831.39 s  ClockTime = 836 s

Time = 28

velocityDampingConstraint velocityDamping damped 373724 (0.74%) of cells, with max limit 300
smoothSolver:  Solving for Ux, Initial residual = 0.5775863850275926, Final residual = 0.03909117167534356, No Iterations 2
smoothSolver:  Solving for Uy, Initial residual = 0.5816047919211026, Final residual = 0.03279515602845066, No Iterations 2
smoothSolver:  Solving for Uz, Initial residual = 0.5299849245401622, Final residual = 0.01079335590162587, No Iterations 3
[OGL LOG][Proc: 0]: global_index_init: 0.02 [ms]
[OGL LOG][Proc: 0]p_local_coeffs: call_update: 0 [ms]
[OGL LOG][Proc: 0]p_non_local_coeffs: call_update: 0 [ms]
[OGL LOG][Proc: 0]p: update_local_matrix_data: 150.776 [ms]
[OGL LOG][Proc: 0]p: update_non_local_matrix_data: 2.42 [ms]
[OGL LOG][Proc: 0]p_matrix: call_update: 4.969 [ms]
[OGL LOG][Proc: 0]p_rhs: call_update: 8.776999999999999 [ms]
[OGL LOG][Preconditioner.H:271] Generate preconditioner GISAI SparsityPower 1
[OGL LOG][Proc: 0]p: init_precond: 489.202 [ms]
[OGL LOG][StoppingCriterion.H:239] Creating stopping criterion with minIter 600 frequency 11
[OGL LOG][Proc: 0]p: generate_solver: 0.015 [ms]
[OGL LOG][Proc: 0]p: solve: 5480.177 [ms]
[OGL LOG][Proc: 0]p: copy_x_back: 11.434 [ms]
[OGL LOG][lduLduBase.H:330] 
Statistics:
	Time per iteration: 5469 [mu s]
	Time per residual norm calculation: 1300.000000 [mu s]
	Time per iteration and DOF: 0.108389 [ns]
	Retrieve results bandwidth 2.630000 [GByte/s]
[OGL LOG][Proc: 0]p: solve_multi_gpu: 6014.864 [ms]
GISAIcudaGKOCG:  Solving for p, Initial residual = 0.9999999969795884, Final residual = 1.000000001148063, No Iterations 1002
time step continuity errors : sum local = 627.2362773857553, global = -0.01238981729302311, cumulative = -0.2031304837379282
smoothSolver:  Solving for nuTilda, Initial residual = 0.3315028794890471, Final residual = 0.02903879669474526, No Iterations 3
ExecutionTime = 853.99 s  ClockTime = 858 s

Time = 29

velocityDampingConstraint velocityDamping damped 378054 (0.75%) of cells, with max limit 300
smoothSolver:  Solving for Ux, Initial residual = 0.53871427818008, Final residual = 0.04437536216085982, No Iterations 2
smoothSolver:  Solving for Uy, Initial residual = 0.527867921361634, Final residual = 0.01094263834637182, No Iterations 3
smoothSolver:  Solving for Uz, Initial residual = 0.5687189127861257, Final residual = 0.01994822715030787, No Iterations 2
[OGL LOG][Proc: 0]: global_index_init: 0.02 [ms]
[OGL LOG][Proc: 0]p_local_coeffs: call_update: 0 [ms]
[OGL LOG][Proc: 0]p_non_local_coeffs: call_update: 0 [ms]
[OGL LOG][Proc: 0]p: update_local_matrix_data: 152.479 [ms]
[OGL LOG][Proc: 0]p: update_non_local_matrix_data: 2.294 [ms]
[OGL LOG][Proc: 0]p_matrix: call_update: 5.04 [ms]
[OGL LOG][Proc: 0]p_rhs: call_update: 9.135 [ms]
[OGL LOG][Preconditioner.H:271] Generate preconditioner GISAI SparsityPower 1
[OGL LOG][Proc: 0]p: init_precond: 474.486 [ms]
[OGL LOG][StoppingCriterion.H:239] Creating stopping criterion with minIter 601 frequency 10
[OGL LOG][Proc: 0]p: generate_solver: 0.019 [ms]
[OGL LOG][Proc: 0]p: solve: 5823.654 [ms]
[OGL LOG][Proc: 0]p: copy_x_back: 11.279 [ms]
[OGL LOG][lduLduBase.H:330] 
Statistics:
	Time per iteration: 5817 [mu s]
	Time per residual norm calculation: 1302.000000 [mu s]
	Time per iteration and DOF: 0.115286 [ns]
	Retrieve results bandwidth 2.667000 [GByte/s]
[OGL LOG][Proc: 0]p: solve_multi_gpu: 6345.228 [ms]
GISAIcudaGKOCG:  Solving for p, Initial residual = 0.9999999877301098, Final residual = 0.9999999884723895, No Iterations 1001
time step continuity errors : sum local = 564.0317750956602, global = -0.01267813560255007, cumulative = -0.2158086193404783
smoothSolver:  Solving for nuTilda, Initial residual = 0.2146215541656907, Final residual = 0.01919781601097646, No Iterations 3
ExecutionTime = 876.84 s  ClockTime = 881 s

Time = 30

velocityDampingConstraint velocityDamping damped 381922 (0.76%) of cells, with max limit 300
smoothSolver:  Solving for Ux, Initial residual = 0.5284444660929968, Final residual = 0.04359161834221406, No Iterations 2
smoothSolver:  Solving for Uy, Initial residual = 0.5289390756408886, Final residual = 0.03527222010407167, No Iterations 2
smoothSolver:  Solving for Uz, Initial residual = 0.4969754963314419, Final residual = 0.006503336225196394, No Iterations 3
[OGL LOG][Proc: 0]: global_index_init: 0.111 [ms]
[OGL LOG][Proc: 0]p_local_coeffs: call_update: 0 [ms]
[OGL LOG][Proc: 0]p_non_local_coeffs: call_update: 0 [ms]
[OGL LOG][Proc: 0]p: update_local_matrix_data: 150.836 [ms]
[OGL LOG][Proc: 0]p: update_non_local_matrix_data: 2.358 [ms]
[OGL LOG][Proc: 0]p_matrix: call_update: 5.015 [ms]
[OGL LOG][Proc: 0]p_rhs: call_update: 8.888 [ms]
[OGL LOG][Preconditioner.H:271] Generate preconditioner GISAI SparsityPower 1
[OGL LOG][Proc: 0]p: init_precond: 498.005 [ms]
[OGL LOG][StoppingCriterion.H:239] Creating stopping criterion with minIter 600 frequency 10
[OGL LOG][Proc: 0]p: generate_solver: 0.016 [ms]
[OGL LOG][Proc: 0]p: solve: 5494.404 [ms]
[OGL LOG][Proc: 0]p: copy_x_back: 11.463 [ms]
[OGL LOG][lduLduBase.H:330] 
Statistics:
	Time per iteration: 5488 [mu s]
	Time per residual norm calculation: 1441.000000 [mu s]
	Time per iteration and DOF: 0.108766 [ns]
	Retrieve results bandwidth 2.624000 [GByte/s]
[OGL LOG][Proc: 0]p: solve_multi_gpu: 6035.375 [ms]
GISAIcudaGKOCG:  Solving for p, Initial residual = 0.9999999902711108, Final residual = 0.9999999979207337, No Iterations 1001
time step continuity errors : sum local = 549.4796880668905, global = -0.0129850765389067, cumulative = -0.228793695879385
smoothSolver:  Solving for nuTilda, Initial residual = 0.2316076952663896, Final residual = 0.01404317704796688, No Iterations 5
ExecutionTime = 899.66 s  ClockTime = 904 s

Time = 31

velocityDampingConstraint velocityDamping damped 388184 (0.77%) of cells, with max limit 300
smoothSolver:  Solving for Ux, Initial residual = 0.5154992574964743, Final residual = 0.01544641707030824, No Iterations 3
smoothSolver:  Solving for Uy, Initial residual = 0.4998163174432568, Final residual = 0.01756642073140801, No Iterations 3
smoothSolver:  Solving for Uz, Initial residual = 0.5640885386938544, Final residual = 0.007861479923685423, No Iterations 3
[OGL LOG][Proc: 0]: global_index_init: 0.289 [ms]
[OGL LOG][Proc: 0]p_local_coeffs: call_update: 0 [ms]
[OGL LOG][Proc: 0]p_non_local_coeffs: call_update: 0 [ms]
[OGL LOG][Proc: 0]p: update_local_matrix_data: 157.407 [ms]
[OGL LOG][Proc: 0]p: update_non_local_matrix_data: 2.367 [ms]
[OGL LOG][Proc: 0]p_matrix: call_update: 4.822 [ms]
[OGL LOG][Proc: 0]p_rhs: call_update: 8.085000000000001 [ms]
[OGL LOG][Preconditioner.H:271] Generate preconditioner GISAI SparsityPower 1
[OGL LOG][Proc: 0]p: init_precond: 462.787 [ms]
[OGL LOG][StoppingCriterion.H:239] Creating stopping criterion with minIter 600 frequency 11
[OGL LOG][Proc: 0]p: generate_solver: 0.016 [ms]
[OGL LOG][Proc: 0]p: solve: 5503.041 [ms]
[OGL LOG][Proc: 0]p: copy_x_back: 11.424 [ms]
[OGL LOG][lduLduBase.H:330] 
Statistics:
	Time per iteration: 5492 [mu s]
	Time per residual norm calculation: 1319.000000 [mu s]
	Time per iteration and DOF: 0.108845 [ns]
	Retrieve results bandwidth 2.633000 [GByte/s]
[OGL LOG][Proc: 0]p: solve_multi_gpu: 6007.081 [ms]
GISAIcudaGKOCG:  Solving for p, Initial residual = 0.9999999881716556, Final residual = 0.9999999823847564, No Iterations 1002
time step continuity errors : sum local = 634.8267281229523, global = -0.01328827428613167, cumulative = -0.2420819701655166
smoothSolver:  Solving for nuTilda, Initial residual = 0.2237790403133012, Final residual = 0.01734800118663163, No Iterations 1
ExecutionTime = 922.3099999999999 s  ClockTime = 927 s


    From virtual bool Foam::regIOobject::readIfModified()
    in file db/regIOobject/regIOobjectRead.C at line 271
        Re-reading object fvSolution from file "/hkfs/work/workspace/scratch/eq4036-windsorbody_setup/workspace/0686c2d9ddcab2a30fd1a4b3793ac2a8/case/system/fvSolution"
Time = 32

velocityDampingConstraint velocityDamping damped 393067 (0.78%) of cells, with max limit 300
smoothSolver:  Solving for Ux, Initial residual = 0.5793909801372398, Final residual = 0.04145224381303707, No Iterations 1
smoothSolver:  Solving for Uy, Initial residual = 0.581064697311566, Final residual = 0.03711552340105073, No Iterations 1
smoothSolver:  Solving for Uz, Initial residual = 0.5500370817940053, Final residual = 0.01068886925901504, No Iterations 3
[OGL LOG][Proc: 0]: global_index_init: 0.02 [ms]
[OGL LOG][Proc: 0]p_local_coeffs: call_update: 0 [ms]
[OGL LOG][Proc: 0]p_non_local_coeffs: call_update: 0 [ms]
[OGL LOG][Proc: 0]p: update_local_matrix_data: 154.077 [ms]
[OGL LOG][Proc: 0]p: update_non_local_matrix_data: 2.303 [ms]
[OGL LOG][Proc: 0]p_matrix: call_update: 4.799 [ms]
[OGL LOG][Proc: 0]p_rhs: call_update: 8.393000000000001 [ms]
[OGL LOG][Preconditioner.H:271] Generate preconditioner GISAI SparsityPower 1
[OGL LOG][Proc: 0]p: init_precond: 490.339 [ms]
[OGL LOG][StoppingCriterion.H:239] Creating stopping criterion with minIter 601 frequency 10
[OGL LOG][Proc: 0]p: generate_solver: 0.017 [ms]
[OGL LOG][Proc: 0]p: solve: 5496.612 [ms]
[OGL LOG][Proc: 0]p: copy_x_back: 12.319 [ms]
[OGL LOG][lduLduBase.H:330] 
Statistics:
	Time per iteration: 5491 [mu s]
	Time per residual norm calculation: 1317.000000 [mu s]
	Time per iteration and DOF: 0.108825 [ns]
	Retrieve results bandwidth 2.441000 [GByte/s]
[OGL LOG][Proc: 0]p: solve_multi_gpu: 6029.782 [ms]
GISAIcudaGKOCG:  Solving for p, Initial residual = 0.9999999929402875, Final residual = 0.9999999985540601, No Iterations 1001
time step continuity errors : sum local = 930.4635118929764, global = -0.0135009283392475, cumulative = -0.2555828985047641
smoothSolver:  Solving for nuTilda, Initial residual = 0.2082148854825454, Final residual = 0.01702886372974827, No Iterations 7
ExecutionTime = 945.26 s  ClockTime = 950 s

Time = 33

velocityDampingConstraint velocityDamping damped 394794 (0.78%) of cells, with max limit 300
smoothSolver:  Solving for Ux, Initial residual = 0.4957737691336517, Final residual = 0.01276823909070166, No Iterations 4
smoothSolver:  Solving for Uy, Initial residual = 0.4946127310025485, Final residual = 0.0124592736481375, No Iterations 4
smoothSolver:  Solving for Uz, Initial residual = 0.548404563033964, Final residual = 0.007657032533561352, No Iterations 4
[OGL LOG][Proc: 0]: global_index_init: 0.326 [ms]
[OGL LOG][Proc: 0]p_local_coeffs: call_update: 0 [ms]
[OGL LOG][Proc: 0]p_non_local_coeffs: call_update: 0 [ms]
[OGL LOG][Proc: 0]p: update_local_matrix_data: 154.214 [ms]
[OGL LOG][Proc: 0]p: update_non_local_matrix_data: 2.402 [ms]
[OGL LOG][Proc: 0]p_matrix: call_update: 4.884 [ms]
[OGL LOG][Proc: 0]p_rhs: call_update: 7.832 [ms]
[OGL LOG][Preconditioner.H:271] Generate preconditioner GISAI SparsityPower 1
[OGL LOG][Proc: 0]p: init_precond: 471.606 [ms]
[OGL LOG][StoppingCriterion.H:239] Creating stopping criterion with minIter 600 frequency 10
[OGL LOG][Proc: 0]p: generate_solver: 0.015 [ms]
[OGL LOG][Proc: 0]p: solve: 5633.9 [ms]
[OGL LOG][Proc: 0]p: copy_x_back: 15.071 [ms]
[OGL LOG][lduLduBase.H:330] 
Statistics:
	Time per iteration: 5628 [mu s]
	Time per residual norm calculation: 1309.000000 [mu s]
	Time per iteration and DOF: 0.111540 [ns]
	Retrieve results bandwidth 1.996000 [GByte/s]
[OGL LOG][Proc: 0]p: solve_multi_gpu: 6154.193 [ms]
GISAIcudaGKOCG:  Solving for p, Initial residual = 0.9999999961060149, Final residual = 0.9999999962824944, No Iterations 1001
time step continuity errors : sum local = 1978.229341696397, global = -0.01380668464175084, cumulative = -0.269389583146515
smoothSolver:  Solving for nuTilda, Initial residual = 0.244924232189742, Final residual = 0.005079501251629009, No Iterations 1
ExecutionTime = 968.21 s  ClockTime = 973 s

Time = 34

velocityDampingConstraint velocityDamping damped 407858 (0.8100000000000001%) of cells, with max limit 300
smoothSolver:  Solving for Ux, Initial residual = 0.5891837650251563, Final residual = 0.001318352808798433, No Iterations 1
smoothSolver:  Solving for Uy, Initial residual = 0.5890665410452528, Final residual = 0.001332294648864128, No Iterations 1
smoothSolver:  Solving for Uz, Initial residual = 0.5890003897088328, Final residual = 0.003291523891539941, No Iterations 1
[OGL LOG][Proc: 0]: global_index_init: 0.027 [ms]
[OGL LOG][Proc: 0]p_local_coeffs: call_update: 0 [ms]
[OGL LOG][Proc: 0]p_non_local_coeffs: call_update: 0 [ms]
[OGL LOG][Proc: 0]p: update_local_matrix_data: 153.072 [ms]
[OGL LOG][Proc: 0]p: update_non_local_matrix_data: 2.429 [ms]
[OGL LOG][Proc: 0]p_matrix: call_update: 4.647 [ms]
[OGL LOG][Proc: 0]p_rhs: call_update: 9.231 [ms]
[OGL LOG][Preconditioner.H:271] Generate preconditioner GISAI SparsityPower 1
[OGL LOG][Proc: 0]p: init_precond: 464.451 [ms]
[OGL LOG][StoppingCriterion.H:239] Creating stopping criterion with minIter 600 frequency 10
[OGL LOG][Proc: 0]p: generate_solver: 0.021 [ms]
[OGL LOG][Proc: 0]p: solve: 5480.365 [ms]
[OGL LOG][Proc: 0]p: copy_x_back: 11.268 [ms]
[OGL LOG][lduLduBase.H:330] 
Statistics:
	Time per iteration: 5474 [mu s]
	Time per residual norm calculation: 1472.000000 [mu s]
	Time per iteration and DOF: 0.108488 [ns]
	Retrieve results bandwidth 2.669000 [GByte/s]
[OGL LOG][Proc: 0]p: solve_multi_gpu: 5988.627 [ms]
GISAIcudaGKOCG:  Solving for p, Initial residual = 0.9999999969478277, Final residual = 1.000000008687221, No Iterations 1001
time step continuity errors : sum local = 2066.321198428612, global = -0.01400399921510977, cumulative = -0.2833935823616247
smoothSolver:  Solving for nuTilda, Initial residual = 0.2293864075158613, Final residual = 0.01953835959871123, No Iterations 6
ExecutionTime = 990.54 s  ClockTime = 995 s

Time = 35

velocityDampingConstraint velocityDamping damped 407281 (0.8100000000000001%) of cells, with max limit 300
[...]
smoothSolver:  Solving for nuTilda, Initial residual = 0.3900942240749254, Final residual = 0.01279921379211151, No Iterations 1
bounding nuTilda, min: -4.881091584265008 max: 1109619282173.259 average: 2145053.240261493
ExecutionTime = 2253.53 s  ClockTime = 2261 s

Time = 91

velocityDampingConstraint velocityDamping damped 1697991 (3.37%) of cells, with max limit 300
smoothSolver:  Solving for Ux, Initial residual = 0.6693780382411341, Final residual = 0.02191625299139236, No Iterations 1
smoothSolver:  Solving for Uy, Initial residual = 0.6707280279078781, Final residual = 0.02234141878900824, No Iterations 1
smoothSolver:  Solving for Uz, Initial residual = 0.6630461567303386, Final residual = 0.02201151969743165, No Iterations 1
[OGL LOG][Proc: 0]: global_index_init: 1.83 [ms]
[OGL LOG][Proc: 0]p_local_coeffs: call_update: 0 [ms]
[OGL LOG][Proc: 0]p_non_local_coeffs: call_update: 0 [ms]
[OGL LOG][Proc: 0]p: update_local_matrix_data: 154.177 [ms]
[OGL LOG][Proc: 0]p: update_non_local_matrix_data: 2.501 [ms]
[OGL LOG][Proc: 0]p_matrix: call_update: 4.697 [ms]
[OGL LOG][Proc: 0]p_rhs: call_update: 8.503 [ms]
[OGL LOG][Preconditioner.H:271] Generate preconditioner GISAI SparsityPower 1
[OGL LOG][Proc: 0]p: init_precond: 479.781 [ms]
[OGL LOG][StoppingCriterion.H:239] Creating stopping criterion with minIter 600 frequency 10
[OGL LOG][Proc: 0]p: generate_solver: 0.017 [ms]
[OGL LOG][Proc: 0]p: solve: 5490.025 [ms]
[OGL LOG][Proc: 0]p: copy_x_back: 11.411 [ms]
[OGL LOG][lduLduBase.H:330] 
Statistics:
	Time per iteration: 5484 [mu s]
	Time per residual norm calculation: 1311.000000 [mu s]
	Time per iteration and DOF: 0.108686 [ns]
	Retrieve results bandwidth 2.636000 [GByte/s]
[OGL LOG][Proc: 0]p: solve_multi_gpu: 6011.635 [ms]
GISAIcudaGKOCG:  Solving for p, Initial residual = 0.1203576897727854, Final residual = 0.1203576899089915, No Iterations 1001
time step continuity errors : sum local = 101675728165.1376, global = -0.0216936652147141, cumulative = -1.33057619164593
smoothSolver:  Solving for nuTilda, Initial residual = 0.2265791759981371, Final residual = 0.01780412022022048, No Iterations 5
ExecutionTime = 2275.76 s  ClockTime = 2283 s

Time = 92

velocityDampingConstraint velocityDamping damped 1741235 (3.45%) of cells, with max limit 300
smoothSolver:  Solving for Ux, Initial residual = 0.6367884654303728, Final residual = 0.04877424334633385, No Iterations 2
smoothSolver:  Solving for Uy, Initial residual = 0.6499034188525304, Final residual = 0.05099415506651899, No Iterations 2
smoothSolver:  Solving for Uz, Initial residual = 0.6120662904706846, Final residual = 0.04361761155330904, No Iterations 2
[OGL LOG][Proc: 0]: global_index_init: 0.196 [ms]
[OGL LOG][Proc: 0]p_local_coeffs: call_update: 0 [ms]
[OGL LOG][Proc: 0]p_non_local_coeffs: call_update: 0 [ms]
[OGL LOG][Proc: 0]p: update_local_matrix_data: 150.515 [ms]
[OGL LOG][Proc: 0]p: update_non_local_matrix_data: 2.455 [ms]
[OGL LOG][Proc: 0]p_matrix: call_update: 4.799 [ms]
[OGL LOG][Proc: 0]p_rhs: call_update: 9.282999999999999 [ms]
[OGL LOG][Preconditioner.H:271] Generate preconditioner GISAI SparsityPower 1
[OGL LOG][Proc: 0]p: init_precond: 475.787 [ms]
[OGL LOG][StoppingCriterion.H:239] Creating stopping criterion with minIter 600 frequency 10
[OGL LOG][Proc: 0]p: generate_solver: 0.018 [ms]
[OGL LOG][Proc: 0]p: solve: 5485.87 [ms]
[OGL LOG][Proc: 0]p: copy_x_back: 15.192 [ms]
[OGL LOG][lduLduBase.H:330] 
Statistics:
	Time per iteration: 5480 [mu s]
	Time per residual norm calculation: 1440.000000 [mu s]
	Time per iteration and DOF: 0.108607 [ns]
	Retrieve results bandwidth 1.980000 [GByte/s]
[OGL LOG][Proc: 0]p: solve_multi_gpu: 6013.653 [ms]
GISAIcudaGKOCG:  Solving for p, Initial residual = 0.3238623356562982, Final residual = 0.3238623446593569, No Iterations 1001
time step continuity errors : sum local = 363533013142.8293, global = -0.02085276772578394, cumulative = -1.351428959371713
smoothSolver:  Solving for nuTilda, Initial residual = 0.396527859220854, Final residual = 0.01620872526400794, No Iterations 1
bounding nuTilda, min: -0.007062115160408045 max: 5047444312444.056 average: 6759002.859954379
ExecutionTime = 2298.03 s  ClockTime = 2306 s

Time = 93

velocityDampingConstraint velocityDamping damped 1813944 (3.6%) of cells, with max limit 300
smoothSolver:  Solving for Ux, Initial residual = 0.6682408953859821, Final residual = 0.02169143201691234, No Iterations 1
smoothSolver:  Solving for Uy, Initial residual = 0.6694848372987167, Final residual = 0.02199759639834545, No Iterations 1
smoothSolver:  Solving for Uz, Initial residual = 0.6559617807514835, Final residual = 0.02154918967983537, No Iterations 1
[OGL LOG][Proc: 0]: global_index_init: 0.025 [ms]
[OGL LOG][Proc: 0]p_local_coeffs: call_update: 0 [ms]
[OGL LOG][Proc: 0]p_non_local_coeffs: call_update: 0 [ms]
[OGL LOG][Proc: 0]p: update_local_matrix_data: 152.791 [ms]
[OGL LOG][Proc: 0]p: update_non_local_matrix_data: 2.394 [ms]
[OGL LOG][Proc: 0]p_matrix: call_update: 4.754 [ms]
[OGL LOG][Proc: 0]p_rhs: call_update: 8.811 [ms]
[OGL LOG][Preconditioner.H:271] Generate preconditioner GISAI SparsityPower 1
[OGL LOG][Proc: 0]p: init_precond: 501.125 [ms]
[OGL LOG][StoppingCriterion.H:239] Creating stopping criterion with minIter 600 frequency 11
[OGL LOG][Proc: 0]p: generate_solver: 0.017 [ms]
[OGL LOG][Proc: 0]p: solve: 5473.75 [ms]
[OGL LOG][Proc: 0]p: copy_x_back: 11.456 [ms]
[OGL LOG][lduLduBase.H:330] 
Statistics:
	Time per iteration: 5462 [mu s]
	Time per residual norm calculation: 1463.000000 [mu s]
	Time per iteration and DOF: 0.108250 [ns]
	Retrieve results bandwidth 2.625000 [GByte/s]
[OGL LOG][Proc: 0]p: solve_multi_gpu: 6018.465 [ms]
GISAIcudaGKOCG:  Solving for p, Initial residual = 0.02329822597826441, Final residual = 0.02329822636190443, No Iterations 1002
time step continuity errors : sum local = 250214902932.6817, global = -0.02149284530429755, cumulative = -1.372921804676011
smoothSolver:  Solving for nuTilda, Initial residual = 0.2258830982527878, Final residual = 0.0150093382939058, No Iterations 5
ExecutionTime = 2320.17 s  ClockTime = 2328 s

Time = 94

velocityDampingConstraint velocityDamping damped 1861363 (3.69%) of cells, with max limit 300
smoothSolver:  Solving for Ux, Initial residual = 0.6417182081207399, Final residual = 0.01968189037445432, No Iterations 3
smoothSolver:  Solving for Uy, Initial residual = 0.661975461126332, Final residual = 0.01994604808916361, No Iterations 3
smoothSolver:  Solving for Uz, Initial residual = 0.6168027581461043, Final residual = 0.0170383305145097, No Iterations 3
[OGL LOG][Proc: 0]: global_index_init: 0.207 [ms]
[OGL LOG][Proc: 0]p_local_coeffs: call_update: 0 [ms]
[OGL LOG][Proc: 0]p_non_local_coeffs: call_update: 0 [ms]
[OGL LOG][Proc: 0]p: update_local_matrix_data: 155.37 [ms]
[OGL LOG][Proc: 0]p: update_non_local_matrix_data: 2.49 [ms]
[OGL LOG][Proc: 0]p_matrix: call_update: 5.024 [ms]
[OGL LOG][Proc: 0]p_rhs: call_update: 8.318 [ms]
[OGL LOG][Preconditioner.H:271] Generate preconditioner GISAI SparsityPower 1
[OGL LOG][Proc: 0]p: init_precond: 482.668 [ms]
[OGL LOG][StoppingCriterion.H:239] Creating stopping criterion with minIter 601 frequency 11
[OGL LOG][Proc: 0]p: generate_solver: 0.016 [ms]
[OGL LOG][Proc: 0]p: solve: 5778.575 [ms]
[OGL LOG][Proc: 0]p: copy_x_back: 11.38 [ms]
[OGL LOG][lduLduBase.H:330] 
Statistics:
	Time per iteration: 5767 [mu s]
	Time per residual norm calculation: 1297.000000 [mu s]
	Time per iteration and DOF: 0.114295 [ns]
	Retrieve results bandwidth 2.643000 [GByte/s]
[OGL LOG][Proc: 0]p: solve_multi_gpu: 6303.966 [ms]
GISAIcudaGKOCG:  Solving for p, Initial residual = 0.1075107798536806, Final residual = 0.1075107800079508, No Iterations 1002
time step continuity errors : sum local = 1699728323837.702, global = -0.01983436641242703, cumulative = -1.392756171088438
smoothSolver:  Solving for nuTilda, Initial residual = 0.3983351405124682, Final residual = 0.01477202508487756, No Iterations 1
bounding nuTilda, min: -0.4840210189313586 max: 20547499536082.57 average: 22089113.08862197
ExecutionTime = 2343.02 s  ClockTime = 2351 s

Time = 95

velocityDampingConstraint velocityDamping damped 1956341 (3.88%) of cells, with max limit 300
smoothSolver:  Solving for Ux, Initial residual = 0.6694686702671656, Final residual = 0.02117379629848961, No Iterations 1
smoothSolver:  Solving for Uy, Initial residual = 0.670131049250722, Final residual = 0.02143543535163307, No Iterations 1
smoothSolver:  Solving for Uz, Initial residual = 0.663119627786913, Final residual = 0.02131156952409936, No Iterations 1
[OGL LOG][Proc: 0]: global_index_init: 0.021 [ms]
[OGL LOG][Proc: 0]p_local_coeffs: call_update: 0 [ms]
[OGL LOG][Proc: 0]p_non_local_coeffs: call_update: 0 [ms]
[OGL LOG][Proc: 0]p: update_local_matrix_data: 149.141 [ms]
[OGL LOG][Proc: 0]p: update_non_local_matrix_data: 2.424 [ms]
[OGL LOG][Proc: 0]p_matrix: call_update: 4.635 [ms]
[OGL LOG][Proc: 0]p_rhs: call_update: 9.853 [ms]
[OGL LOG][Preconditioner.H:271] Generate preconditioner GISAI SparsityPower 1
[OGL LOG][Proc: 0]p: init_precond: 500.531 [ms]
[OGL LOG][StoppingCriterion.H:239] Creating stopping criterion with minIter 601 frequency 10
[OGL LOG][Proc: 0]p: generate_solver: 0.017 [ms]
[OGL LOG][Proc: 0]p: solve: 5496.383 [ms]
[OGL LOG][Proc: 0]p: copy_x_back: 14.937 [ms]
[OGL LOG][lduLduBase.H:330] 
Statistics:
	Time per iteration: 5490 [mu s]
	Time per residual norm calculation: 1462.000000 [mu s]
	Time per iteration and DOF: 0.108805 [ns]
	Retrieve results bandwidth 2.013000 [GByte/s]
[OGL LOG][Proc: 0]p: solve_multi_gpu: 6048.467 [ms]
GISAIcudaGKOCG:  Solving for p, Initial residual = 0.02981153484887404, Final residual = 0.02981153504552641, No Iterations 1001
time step continuity errors : sum local = 1145697343326.111, global = -0.01966985065465303, cumulative = -1.412426021743091
smoothSolver:  Solving for nuTilda, Initial residual = 0.2304345156957593, Final residual = 0.01756951667121496, No Iterations 5
ExecutionTime = 2365.17 s  ClockTime = 2373 s

Time = 96

velocityDampingConstraint velocityDamping damped 2008842 (3.98%) of cells, with max limit 300
smoothSolver:  Solving for Ux, Initial residual = 0.6377869889895675, Final residual = 0.05083375209724475, No Iterations 2
smoothSolver:  Solving for Uy, Initial residual = 0.6588510782446416, Final residual = 0.05210269614756204, No Iterations 2
smoothSolver:  Solving for Uz, Initial residual = 0.6123771554956535, Final residual = 0.04505806769390302, No Iterations 2
[OGL LOG][Proc: 0]: global_index_init: 0.532 [ms]
[OGL LOG][Proc: 0]p_local_coeffs: call_update: 0 [ms]
[OGL LOG][Proc: 0]p_non_local_coeffs: call_update: 0 [ms]
[OGL LOG][Proc: 0]p: update_local_matrix_data: 155.832 [ms]
[OGL LOG][Proc: 0]p: update_non_local_matrix_data: 2.31 [ms]
[OGL LOG][Proc: 0]p_matrix: call_update: 4.931 [ms]
[OGL LOG][Proc: 0]p_rhs: call_update: 9.18 [ms]
[OGL LOG][Preconditioner.H:271] Generate preconditioner GISAI SparsityPower 1
[OGL LOG][Proc: 0]p: init_precond: 500.263 [ms]
[OGL LOG][StoppingCriterion.H:239] Creating stopping criterion with minIter 600 frequency 11
[OGL LOG][Proc: 0]p: generate_solver: 0.019 [ms]
[OGL LOG][Proc: 0]p: solve: 5478.726 [ms]
[OGL LOG][Proc: 0]p: copy_x_back: 11.39 [ms]
[OGL LOG][lduLduBase.H:330] 
Statistics:
	Time per iteration: 5467 [mu s]
	Time per residual norm calculation: 1316.000000 [mu s]
	Time per iteration and DOF: 0.108349 [ns]
	Retrieve results bandwidth 2.641000 [GByte/s]
[OGL LOG][Proc: 0]p: solve_multi_gpu: 6020.462 [ms]
GISAIcudaGKOCG:  Solving for p, Initial residual = 0.04342834281856199, Final residual = 0.04342834304347663, No Iterations 1002
time step continuity errors : sum local = 3857731131841.995, global = -0.01250297615519938, cumulative = -1.42492899789829
smoothSolver:  Solving for nuTilda, Initial residual = 0.4142487978612582, Final residual = 0.01881055359061965, No Iterations 1
bounding nuTilda, min: -0.01638723961416824 max: 85024920777948.75 average: 72427022.54191491
ExecutionTime = 2387.43 s  ClockTime = 2395 s

Time = 97

velocityDampingConstraint velocityDamping damped 2091710 (4.15%) of cells, with max limit 300
smoothSolver:  Solving for Ux, Initial residual = 0.6673902361214821, Final residual = 0.02118047080615384, No Iterations 1
smoothSolver:  Solving for Uy, Initial residual = 0.669028547461562, Final residual = 0.02244464005571409, No Iterations 1
smoothSolver:  Solving for Uz, Initial residual = 0.655254112424099, Final residual = 0.02109700710994043, No Iterations 1
[OGL LOG][Proc: 0]: global_index_init: 0.02 [ms]
[OGL LOG][Proc: 0]p_local_coeffs: call_update: 0 [ms]
[OGL LOG][Proc: 0]p_non_local_coeffs: call_update: 0 [ms]
[OGL LOG][Proc: 0]p: update_local_matrix_data: 154.064 [ms]
[OGL LOG][Proc: 0]p: update_non_local_matrix_data: 2.397 [ms]
[OGL LOG][Proc: 0]p_matrix: call_update: 4.518 [ms]
[OGL LOG][Proc: 0]p_rhs: call_update: 8.747 [ms]
[OGL LOG][Preconditioner.H:271] Generate preconditioner GISAI SparsityPower 1
[OGL LOG][Proc: 0]p: init_precond: 486.383 [ms]
[OGL LOG][StoppingCriterion.H:239] Creating stopping criterion with minIter 601 frequency 10
[OGL LOG][Proc: 0]p: generate_solver: 0.017 [ms]
[OGL LOG][Proc: 0]p: solve: 5469.613 [ms]
[OGL LOG][Proc: 0]p: copy_x_back: 14.919 [ms]
[OGL LOG][lduLduBase.H:330] 
Statistics:
	Time per iteration: 5464 [mu s]
	Time per residual norm calculation: 1318.000000 [mu s]
	Time per iteration and DOF: 0.108290 [ns]
	Retrieve results bandwidth 2.016000 [GByte/s]
[OGL LOG][Proc: 0]p: solve_multi_gpu: 6002.111 [ms]
GISAIcudaGKOCG:  Solving for p, Initial residual = 0.005406669927420746, Final residual = 0.005406670528118948, No Iterations 1001
time step continuity errors : sum local = 2967658075405.738, global = -0.01958119078938136, cumulative = -1.444510188687672
smoothSolver:  Solving for nuTilda, Initial residual = 0.234297630135201, Final residual = 0.01404355632358536, No Iterations 5
ExecutionTime = 2409.54 s  ClockTime = 2417 s

Time = 98

velocityDampingConstraint velocityDamping damped 2149810 (4.26%) of cells, with max limit 300
smoothSolver:  Solving for Ux, Initial residual = 0.6420682774911599, Final residual = 0.02060873838437948, No Iterations 3
smoothSolver:  Solving for Uy, Initial residual = 0.6686390822350802, Final residual = 0.02079744213814624, No Iterations 3
smoothSolver:  Solving for Uz, Initial residual = 0.6173729512953211, Final residual = 0.01756686334064249, No Iterations 3
[OGL LOG][Proc: 0]: global_index_init: 0.397 [ms]
[OGL LOG][Proc: 0]p_local_coeffs: call_update: 0 [ms]
[OGL LOG][Proc: 0]p_non_local_coeffs: call_update: 0 [ms]
[OGL LOG][Proc: 0]p: update_local_matrix_data: 155.47 [ms]
[OGL LOG][Proc: 0]p: update_non_local_matrix_data: 2.325 [ms]
[OGL LOG][Proc: 0]p_matrix: call_update: 4.949 [ms]
[OGL LOG][Proc: 0]p_rhs: call_update: 8.961 [ms]
[OGL LOG][Preconditioner.H:271] Generate preconditioner GISAI SparsityPower 1
[OGL LOG][Proc: 0]p: init_precond: 467.104 [ms]
[OGL LOG][StoppingCriterion.H:239] Creating stopping criterion with minIter 600 frequency 10
[OGL LOG][Proc: 0]p: generate_solver: 0.017 [ms]
[OGL LOG][Proc: 0]p: solve: 5824.118 [ms]
[OGL LOG][Proc: 0]p: copy_x_back: 11.843 [ms]
[OGL LOG][lduLduBase.H:330] 
Statistics:
	Time per iteration: 5818 [mu s]
	Time per residual norm calculation: 1464.000000 [mu s]
	Time per iteration and DOF: 0.115306 [ns]
	Retrieve results bandwidth 2.540000 [GByte/s]
[OGL LOG][Proc: 0]p: solve_multi_gpu: 6335.04 [ms]
GISAIcudaGKOCG:  Solving for p, Initial residual = 0.01475524698924784, Final residual = 0.01475524698640178, No Iterations 1001
time step continuity errors : sum local = 16412068722412.87, global = 0.01734337147334617, cumulative = -1.427166817214325
smoothSolver:  Solving for nuTilda, Initial residual = 0.3903246443860031, Final residual = 0.01612742183380216, No Iterations 1
bounding nuTilda, min: -0.1162910049897306 max: 315364192735425 average: 241986024.3533898
ExecutionTime = 2432.43 s  ClockTime = 2440 s

Time = 99

velocityDampingConstraint velocityDamping damped 2261073 (4.48%) of cells, with max limit 300
smoothSolver:  Solving for Ux, Initial residual = 0.670826762441142, Final residual = 0.02064420512502175, No Iterations 1
smoothSolver:  Solving for Uy, Initial residual = 0.6705563424239488, Final residual = 0.02047138989970522, No Iterations 1
smoothSolver:  Solving for Uz, Initial residual = 0.6642072707408969, Final residual = 0.02078500409721678, No Iterations 1
[OGL LOG][Proc: 0]: global_index_init: 0.026 [ms]
[OGL LOG][Proc: 0]p_local_coeffs: call_update: 0 [ms]
[OGL LOG][Proc: 0]p_non_local_coeffs: call_update: 0 [ms]
[OGL LOG][Proc: 0]p: update_local_matrix_data: 150.124 [ms]
[OGL LOG][Proc: 0]p: update_non_local_matrix_data: 2.486 [ms]
[OGL LOG][Proc: 0]p_matrix: call_update: 4.593 [ms]
[OGL LOG][Proc: 0]p_rhs: call_update: 8.846 [ms]
[OGL LOG][Preconditioner.H:271] Generate preconditioner GISAI SparsityPower 1
[OGL LOG][Proc: 0]p: init_precond: 471.634 [ms]
[OGL LOG][StoppingCriterion.H:239] Creating stopping criterion with minIter 600 frequency 11
[OGL LOG][Proc: 0]p: generate_solver: 0.02 [ms]
[OGL LOG][Proc: 0]p: solve: 5511.147 [ms]
[OGL LOG][Proc: 0]p: copy_x_back: 11.388 [ms]
[OGL LOG][lduLduBase.H:330] 
Statistics:
	Time per iteration: 5500 [mu s]
	Time per residual norm calculation: 1306.000000 [mu s]
	Time per iteration and DOF: 0.109004 [ns]
	Retrieve results bandwidth 2.641000 [GByte/s]
[OGL LOG][Proc: 0]p: solve_multi_gpu: 6029.325 [ms]
GISAIcudaGKOCG:  Solving for p, Initial residual = 0.002259730986213517, Final residual = 0.002259730993931271, No Iterations 1002
time step continuity errors : sum local = 10841253655036.12, global = 0.004874647419645665, cumulative = -1.42229216979468
smoothSolver:  Solving for nuTilda, Initial residual = 0.2327531161259419, Final residual = 0.01683504638566, No Iterations 5
ExecutionTime = 2454.57 s  ClockTime = 2462 s

Time = 100

velocityDampingConstraint velocityDamping damped 2325135 (4.61%) of cells, with max limit 300
smoothSolver:  Solving for Ux, Initial residual = 0.6386248407221939, Final residual = 0.05262337962923602, No Iterations 2
smoothSolver:  Solving for Uy, Initial residual = 0.6701704116665671, Final residual = 0.05707750707840195, No Iterations 2
smoothSolver:  Solving for Uz, Initial residual = 0.6120112839542879, Final residual = 0.04616104147548577, No Iterations 2
[OGL LOG][Proc: 0]: global_index_init: 0.381 [ms]
[OGL LOG][Proc: 0]p_local_coeffs: call_update: 0 [ms]
[OGL LOG][Proc: 0]p_non_local_coeffs: call_update: 0 [ms]
[OGL LOG][Proc: 0]p: update_local_matrix_data: 155.172 [ms]
[OGL LOG][Proc: 0]p: update_non_local_matrix_data: 2.393 [ms]
[OGL LOG][Proc: 0]p_matrix: call_update: 4.979 [ms]
[OGL LOG][Proc: 0]p_rhs: call_update: 9.173 [ms]
[OGL LOG][Preconditioner.H:271] Generate preconditioner GISAI SparsityPower 1
[OGL LOG][Proc: 0]p: init_precond: 470.092 [ms]
[OGL LOG][StoppingCriterion.H:239] Creating stopping criterion with minIter 601 frequency 10
[OGL LOG][Proc: 0]p: generate_solver: 0.016 [ms]
[OGL LOG][Proc: 0]p: solve: 5489.591 [ms]
[OGL LOG][Proc: 0]p: copy_x_back: 11.809 [ms]
[OGL LOG][lduLduBase.H:330] 
Statistics:
	Time per iteration: 5484 [mu s]
	Time per residual norm calculation: 1318.000000 [mu s]
	Time per iteration and DOF: 0.108686 [ns]
	Retrieve results bandwidth 2.547000 [GByte/s]
[OGL LOG][Proc: 0]p: solve_multi_gpu: 6002.529 [ms]
GISAIcudaGKOCG:  Solving for p, Initial residual = 0.005816196008566835, Final residual = 0.005816196186418284, No Iterations 1001
time step continuity errors : sum local = 36230023044695.48, global = 0.1433078837515624, cumulative = -1.278984286043117
smoothSolver:  Solving for nuTilda, Initial residual = 0.4217988104823206, Final residual = 0.02031958845928882, No Iterations 1
bounding nuTilda, min: -0.0002726878566608678 max: 1362832909128002 average: 812723990.0085133
ExecutionTime = 2476.83 s  ClockTime = 2485 s

End

Finalising parallel run
