/*---------------------------------------------------------------------------*\
| =========                 |                                                 |
| \\      /  F ield         | OpenFOAM: The Open Source CFD Toolbox           |
|  \\    /   O peration     | Version:  2306                                  |
|   \\  /    A nd           | Website:  www.openfoam.com                      |
|    \\/     M anipulation  |                                                 |
\*---------------------------------------------------------------------------*/
Build  : c423ebec-20231012 OPENFOAM=2306 version=v2306
Arch   : "LSB;label=32;scalar=64"
Exec   : simpleFoam -parallel -case /hkfs/work/workspace/scratch/eq4036-windsorbody_setup/workspace/5e8e4e119c4f345aba928eb0c37a0ebe/case
Date   : Feb 16 2024
Time   : 14:52:06
Host   : hkn0529.localdomain
PID    : 1162883
I/O    : uncollated
Case   : /hkfs/work/workspace/scratch/eq4036-windsorbody_setup/workspace/5e8e4e119c4f345aba928eb0c37a0ebe/case
nProcs : 12
Hosts  :
(
    (hkn0529.localdomain 6)
    (hkn0531.localdomain 6)
)
Pstream initialized with:
    floatTransfer      : false
    nProcsSimpleSum    : 0
    nonBlockingExchange: 0 (tuning: 0)
    exchange algorithm : -1
    commsType          : nonBlocking
    polling iterations : 0
trapFpe: Floating point exception trapping enabled (FOAM_SIGFPE).
fileModificationChecking : Monitoring run-time modified files using timeStampMaster (fileModificationSkew 5, maxFileModificationPolls 20)
allowSystemOperations : Allowing user-supplied system call operations

// * * * * * * * * * * * * * * * * * * * * * * * * * * * * * * * * * * * * * //
Create time

--> FOAM Warning : 
    From void* Foam::dlLibraryTable::openLibrary(const Foam::fileName&, bool)
    in file db/dynamicLibrary/dlLibraryTable/dlLibraryTable.C at line 188
    Could not load "libpetscFoam.so"
libpetscFoam.so: cannot open shared object file: No such file or directory
Create mesh for time = 0


SIMPLE: convergence criteria
    field p	 tolerance 1e-08
    field U	 tolerance 1e-08
    field k	 tolerance 1e-08
    field omega	 tolerance 1e-08
    field nuTilda	 tolerance 1e-08

Reading field p

Reading field U

Reading/calculating face flux field phi

Selecting incompressible transport model Newtonian
Selecting turbulence model type RAS
Selecting RAS turbulence model SpalartAllmaras
Selecting patchDistMethod meshWave
ft2 term: inactive
RAS
{
    RASModel        SpalartAllmaras;
    turbulence      on;
    printCoeffs     on;
    sigmaNut        0.66666;
    kappa           0.41;
    Cb1             0.1355;
    Cb2             0.622;
    Cw2             0.3;
    Cw3             2;
    Cv1             7.1;
    Cs              0.3;
    ck              0.07000000000000001;
    ft2             false;
    Ct3             1.2;
    Ct4             0.5;
}

No MRF models present

Creating finite volume options from "system/fvOptions"

Selecting finite volume options type velocityDampingConstraint
    Source: velocityDamping
    - selecting all cells
    - selected 12614272 cell(s) with volume 55.65166103212938

Starting time loop

--> FOAM Warning : 
    From bool Foam::functionObjectList::read()
    in file db/functionObjects/functionObjectList/functionObjectList.C at line 1035
    Reading "system/controlDict" at line 2 to 41
    Entry 'lref' is not a dictionary
--> FOAM Warning : 
    From bool Foam::functionObjectList::read()
    in file db/functionObjects/functionObjectList/functionObjectList.C at line 1035
    Reading "system/controlDict" at line 2 to 41
    Entry 'Aref' is not a dictionary
--> FOAM Warning : 
    From bool Foam::functionObjectList::read()
    in file db/functionObjects/functionObjectList/functionObjectList.C at line 1035
    Reading "system/controlDict" at line 2 to 41
    Entry 'yawAngle' is not a dictionary
--> FOAM Warning : 
    From bool Foam::functionObjectList::read()
    in file db/functionObjects/functionObjectList/functionObjectList.C at line 1035
    Reading "system/controlDict" at line 2 to 41
    Entry 'lDomain' is not a dictionary
--> FOAM Warning : 
    From bool Foam::functionObjectList::read()
    in file db/functionObjects/functionObjectList/functionObjectList.C at line 1035
    Reading "system/controlDict" at line 2 to 41
    Entry 'bDomain' is not a dictionary
--> FOAM Warning : 
    From bool Foam::functionObjectList::read()
    in file db/functionObjects/functionObjectList/functionObjectList.C at line 1035
    Reading "system/controlDict" at line 2 to 41
    Entry 'hDomain' is not a dictionary
--> FOAM Warning : 
    From bool Foam::functionObjectList::read()
    in file db/functionObjects/functionObjectList/functionObjectList.C at line 1035
    Reading "system/controlDict" at line 2 to 41
    Entry 'xCenter' is not a dictionary
--> FOAM Warning : 
    From bool Foam::functionObjectList::read()
    in file db/functionObjects/functionObjectList/functionObjectList.C at line 1035
    Reading "system/controlDict" at line 2 to 41
    Entry 'yCenter' is not a dictionary
--> FOAM Warning : 
    From bool Foam::functionObjectList::read()
    in file db/functionObjects/functionObjectList/functionObjectList.C at line 1035
    Reading "system/controlDict" at line 2 to 41
    Entry 'zCenter' is not a dictionary
--> FOAM Warning : 
    From bool Foam::functionObjectList::read()
    in file db/functionObjects/functionObjectList/functionObjectList.C at line 1035
    Reading "system/controlDict" at line 2 to 41
    Entry 'inletPatch' is not a dictionary
--> FOAM Warning : 
    From bool Foam::functionObjectList::read()
    in file db/functionObjects/functionObjectList/functionObjectList.C at line 1035
    Reading "system/controlDict" at line 2 to 41
    Entry 'outletPatch' is not a dictionary
--> FOAM Warning : 
    From bool Foam::functionObjectList::read()
    in file db/functionObjects/functionObjectList/functionObjectList.C at line 1035
    Reading "system/controlDict" at line 2 to 41
    Entry 'wallPatches' is not a dictionary
--> FOAM Warning : 
    From bool Foam::functionObjectList::read()
    in file db/functionObjects/functionObjectList/functionObjectList.C at line 1035
    Reading "system/controlDict" at line 2 to 41
    Entry 'forcesWallPatches' is not a dictionary
--> FOAM Warning : 
    From bool Foam::functionObjectList::read()
    in file db/functionObjects/functionObjectList/functionObjectList.C at line 1035
    Reading "system/controlDict" at line 2 to 41
    Entry 'symmPatches' is not a dictionary
--> FOAM Warning : 
    From bool Foam::functionObjectList::read()
    in file db/functionObjects/functionObjectList/functionObjectList.C at line 1035
    Reading "system/controlDict" at line 2 to 41
    Entry 'Uinf' is not a dictionary
--> FOAM Warning : 
    From bool Foam::functionObjectList::read()
    in file db/functionObjects/functionObjectList/functionObjectList.C at line 1035
    Reading "system/controlDict" at line 2 to 41
    Entry 'UinfMag' is not a dictionary
--> FOAM Warning : 
    From bool Foam::functionObjectList::read()
    in file db/functionObjects/functionObjectList/functionObjectList.C at line 1035
    Reading "system/controlDict" at line 2 to 41
    Entry 'nu' is not a dictionary
--> FOAM Warning : 
    From bool Foam::functionObjectList::read()
    in file db/functionObjects/functionObjectList/functionObjectList.C at line 1035
    Reading "system/controlDict" at line 2 to 41
    Entry 'pref' is not a dictionary
--> FOAM Warning : 
    From bool Foam::functionObjectList::read()
    in file db/functionObjects/functionObjectList/functionObjectList.C at line 1035
    Reading "system/controlDict" at line 2 to 41
    Entry 'viscRatio' is not a dictionary
--> FOAM Warning : 
    From bool Foam::functionObjectList::read()
    in file db/functionObjects/functionObjectList/functionObjectList.C at line 1035
    Reading "system/controlDict" at line 2 to 41
    Entry 'Tu' is not a dictionary
--> FOAM Warning : 
    From bool Foam::functionObjectList::read()
    in file db/functionObjects/functionObjectList/functionObjectList.C at line 1035
    Reading "system/controlDict" at line 2 to 41
    Entry 'LESturbModel' is not a dictionary
--> FOAM Warning : 
    From bool Foam::functionObjectList::read()
    in file db/functionObjects/functionObjectList/functionObjectList.C at line 1035
    Reading "system/controlDict" at line 2 to 41
    Entry 'RASturbModel' is not a dictionary
--> FOAM Warning : 
    From bool Foam::functionObjectList::read()
    in file db/functionObjects/functionObjectList/functionObjectList.C at line 1035
    Reading "system/controlDict" at line 2 to 41
    Entry 'deltaTurb' is not a dictionary
--> FOAM Warning : 
    From bool Foam::functionObjectList::read()
    in file db/functionObjects/functionObjectList/functionObjectList.C at line 1035
    Reading "system/controlDict" at line 2 to 41
    Entry 'dt' is not a dictionary
--> FOAM Warning : 
    From bool Foam::functionObjectList::read()
    in file db/functionObjects/functionObjectList/functionObjectList.C at line 1035
    Reading "system/controlDict" at line 2 to 41
    Entry 'tAvg' is not a dictionary
--> FOAM Warning : 
    From bool Foam::functionObjectList::read()
    in file db/functionObjects/functionObjectList/functionObjectList.C at line 1035
    Reading "system/controlDict" at line 2 to 41
    Entry 'tEnd' is not a dictionary
--> FOAM Warning : 
    From bool Foam::functionObjectList::read()
    in file db/functionObjects/functionObjectList/functionObjectList.C at line 1035
    Reading "system/controlDict" at line 2 to 41
    Entry 'writeInterval_' is not a dictionary
--> FOAM Warning : 
    From bool Foam::functionObjectList::read()
    in file db/functionObjects/functionObjectList/functionObjectList.C at line 1035
    Reading "system/controlDict" at line 2 to 41
    Entry 'nCores' is not a dictionary
--> FOAM Warning : 
    From bool Foam::functionObjectList::read()
    in file db/functionObjects/functionObjectList/functionObjectList.C at line 1035
    Reading "system/controlDict" at line 2 to 41
    Entry 'interpScheme' is not a dictionary
--> FOAM Warning : 
    From bool Foam::functionObjectList::read()
    in file db/functionObjects/functionObjectList/functionObjectList.C at line 1035
    Reading "system/controlDict" at line 2 to 41
    Entry 'probeField' is not a dictionary
wallShearStress wallShearStress:
    processing wall patches: 
        Windsor_Body
        CFDWT_Floor
        Windsor_Pins
        Windsor_Base
        Windsor_Body_2
        CFDWT_Floor_2
        Windsor_Pins_2
        Windsor_Base_2

pressure calc_cp:
    Operating mode: staticCoeff
    Not including hydrostatic effects

forceCoeffs forceCoeffsAll:
    rho: rhoInf
    Freestream density (rhoInf) set to 1
    Not including porosity effects
    magUInf: 40
    lRef   : 0.6375
    Aref   : 0.1124
    rhoInf : 1
    Selecting all coefficients
    - Drag force: Cd
    - Drag force front: Cd(f)
    - Drag force rear: Cd(r)
    - Lift force: Cl
    - Lift force front: Cl(f)
    - Lift force rear: Cl(r)
    - Pitch moment: CmPitch
    - Roll moment: CmRoll
    - Yaw moment: CmYaw
    - Side force: Cs
    - Side force front: Cs(f)
    - Side force rear: Cs(r)


forceCoeffs dragCoeffBase:
    rho: rhoInf
    Freestream density (rhoInf) set to 1
    Not including porosity effects
    magUInf: 40
    lRef   : 0.6375
    Aref   : 0.1124
    rhoInf : 1
    Selecting coefficients:
    - Drag force: Cd


Time = 1

velocityDampingConstraint velocityDamping damped 0 (0%) of cells, with max limit 300
smoothSolver:  Solving for Ux, Initial residual = 0.9999999999993295, Final residual = 0.08580598483249763, No Iterations 3
smoothSolver:  Solving for Uy, Initial residual = 1, Final residual = 0.06574249800820545, No Iterations 6
smoothSolver:  Solving for Uz, Initial residual = 1, Final residual = 0.01751034401663091, No Iterations 2
[OGL LOG][lduLduBase.H:119] Initialising OGL
	OGL commit:  e75313f+
	Branch: dev 
	Build type: Debug
	Ginkgo version: 1.8.0 ( develop)
	Ginkgo commit: sparse-communicator
	MPI is GPU aware: 1
	Forces host buffer based communication: 0
	CPU ranks per GPU: 1
	Matrix format: Coo
	End OGL_INFO
[OGL LOG][Proc: 0]: global_index_init: 98.075 [ms]
[OGL LOG][Proc: 0]p_local_cols: call_init: 1.054 [ms]
[OGL LOG][Proc: 0]p_local_rows: call_init: 0.265 [ms]
[OGL LOG][Proc: 0]p_local_ldu_map: call_init: 0.321 [ms]
[OGL LOG][Proc: 0]p_local_coeffs: call_init: 4.14 [ms]
[OGL LOG][Proc: 0]p_non_local_cols: call_init: 0.323 [ms]
[OGL LOG][Proc: 0]p_non_local_rows: call_init: 0.264 [ms]
[OGL LOG][Proc: 0]p_non_local_ldu_map: call_init: 0.271 [ms]
[OGL LOG][Proc: 0]p_non_local_coeffs: call_init: 0.3 [ms]
[OGL LOG][Proc: 0]p: init_local_sparsity_pattern: 28705.208 [ms]
[OGL LOG][Proc: 0]p: init_non_local_sparsity_pattern: 735.636 [ms]
[OGL LOG][Proc: 0]p: update_local_matrix_data: 73.55200000000001 [ms]
[OGL LOG][Proc: 0]p: update_non_local_matrix_data: 0.462 [ms]
[OGL LOG][Proc: 0]device_partition: call_init: 1.32 [ms]
[OGL LOG][Proc: 0]p_matrix: call_init: 91.88800000000001 [ms]
[OGL LOG][Proc: 0]p_rhs: call_init: 2.168 [ms]
[OGL LOG][Proc: 0]p_solution: call_init: 2.714 [ms]
[OGL LOG][Preconditioner.H:346] Generate preconditioner Multigrid MaxLevels 9 MinCoarseRows 10 ZeroGuess 1 Cycle v
[OGL LOG][Proc: 0]p: init_precond: 436.121 [ms]
[OGL LOG][StoppingCriterion.H:239] Creating stopping criterion with minIter 0 frequency 1
[OGL LOG][Proc: 0]p: generate_solver: 0.03 [ms]
[OGL LOG][Proc: 0]p: solve: 1219.739 [ms]
[OGL LOG][Proc: 0]p: copy_x_back: 2.758 [ms]
[OGL LOG][lduLduBase.H:330] 
Statistics:
	Time per iteration: 10794 [mu s]
	Time per residual norm calculation: 1440.000000 [mu s]
	Time per iteration and DOF: 0.855697 [ns]
	Retrieve results bandwidth 3.055000 [GByte/s]
[OGL LOG][Proc: 0]p: solve_multi_gpu: 3050.944 [ms]
MultigridcudaGKOCG:  Solving for p, Initial residual = 1.000000000000317, Final residual = 0.00958452256113277, No Iterations 113
time step continuity errors : sum local = 0.003483105859980803, global = 9.230886630566816e-05, cumulative = 9.230886630566816e-05
smoothSolver:  Solving for nuTilda, Initial residual = 0.9999999926946928, Final residual = 0.05290895539791641, No Iterations 3
ExecutionTime = 60.14 s  ClockTime = 61 s

--> FOAM Warning : 
    From virtual bool Foam::functionObjects::fieldSelection::checkSelection()
    in file functionObjects/fieldSelections/fieldSelection/fieldSelection.C at line 166
    Field k not found
--> FOAM Warning : 
    From virtual bool Foam::functionObjects::fieldSelection::checkSelection()
    in file functionObjects/fieldSelections/fieldSelection/fieldSelection.C at line 166
    Field gammaInt not found
--> FOAM Warning : 
    From virtual bool Foam::functionObjects::fieldSelection::checkSelection()
    in file functionObjects/fieldSelections/fieldSelection/fieldSelection.C at line 166
    Field omega not found
--> FOAM Warning : 
    From virtual bool Foam::functionObjects::fieldSelection::checkSelection()
    in file functionObjects/fieldSelections/fieldSelection/fieldSelection.C at line 166
    Field ReThetat not found
--> FOAM Warning : 
    From virtual bool Foam::functionObjects::fieldSelection::checkSelection()
    in file functionObjects/fieldSelections/fieldSelection/fieldSelection.C at line 166
    Field epsilon not found
--> FOAM Warning : 
    From virtual bool Foam::functionObjects::solverFieldSelection::updateSelection()
    in file functionObjects/fieldSelections/solverFieldSelection/solverFieldSelection.C at line 85
    Valid solver fields are: 3(U nuTilda p)Time = 2

velocityDampingConstraint velocityDamping damped 0 (0%) of cells, with max limit 300
smoothSolver:  Solving for Ux, Initial residual = 0.4348241794122374, Final residual = 0.0281611099717997, No Iterations 5
smoothSolver:  Solving for Uy, Initial residual = 0.5806998311336297, Final residual = 0.03778641063237639, No Iterations 5
smoothSolver:  Solving for Uz, Initial residual = 0.5439912822729751, Final residual = 0.03316280195359054, No Iterations 5
[OGL LOG][Proc: 0]: global_index_init: 0.299 [ms]
[OGL LOG][Proc: 0]p_local_coeffs: call_update: 0.001 [ms]
[OGL LOG][Proc: 0]p_non_local_coeffs: call_update: 0 [ms]
[OGL LOG][Proc: 0]p: update_local_matrix_data: 32.229 [ms]
[OGL LOG][Proc: 0]p: update_non_local_matrix_data: 0.36 [ms]
[OGL LOG][Proc: 0]p_matrix: call_update: 2.619 [ms]
[OGL LOG][Proc: 0]p_rhs: call_update: 1.193 [ms]
[OGL LOG][Preconditioner.H:346] Generate preconditioner Multigrid MaxLevels 9 MinCoarseRows 10 ZeroGuess 1 Cycle v
[OGL LOG][Proc: 0]p: init_precond: 329.214 [ms]
[OGL LOG][StoppingCriterion.H:239] Creating stopping criterion with minIter 67 frequency 2
[OGL LOG][Proc: 0]p: generate_solver: 0.008999999999999999 [ms]
[OGL LOG][Proc: 0]p: solve: 661.954 [ms]
[OGL LOG][Proc: 0]p: copy_x_back: 2.831 [ms]
[OGL LOG][lduLduBase.H:330] 
Statistics:
	Time per iteration: 9593 [mu s]
	Time per residual norm calculation: 977.000000 [mu s]
	Time per iteration and DOF: 0.760488 [ns]
	Retrieve results bandwidth 2.976000 [GByte/s]
[OGL LOG][Proc: 0]p: solve_multi_gpu: 1024.267 [ms]
MultigridcudaGKOCG:  Solving for p, Initial residual = 0.4317972119521664, Final residual = 0.003183458593203372, No Iterations 69
time step continuity errors : sum local = 0.06947281109746915, global = 0.0118858200297649, cumulative = 0.01197812889607057
smoothSolver:  Solving for nuTilda, Initial residual = 0.2987568471296814, Final residual = 0.02011464311271561, No Iterations 2
ExecutionTime = 65.45 s  ClockTime = 67 s

Time = 3

velocityDampingConstraint velocityDamping damped 9200 (0.07000000000000001%) of cells, with max limit 300
smoothSolver:  Solving for Ux, Initial residual = 0.2918905070021789, Final residual = 0.01833684200021165, No Iterations 2
smoothSolver:  Solving for Uy, Initial residual = 0.2821190902134894, Final residual = 0.02600347411567677, No Iterations 4
smoothSolver:  Solving for Uz, Initial residual = 0.2507959910528003, Final residual = 0.02176883953906016, No Iterations 4
[OGL LOG][Proc: 0]: global_index_init: 0.031 [ms]
[OGL LOG][Proc: 0]p_local_coeffs: call_update: 0 [ms]
[OGL LOG][Proc: 0]p_non_local_coeffs: call_update: 0 [ms]
[OGL LOG][Proc: 0]p: update_local_matrix_data: 32.116 [ms]
[OGL LOG][Proc: 0]p: update_non_local_matrix_data: 0.332 [ms]
[OGL LOG][Proc: 0]p_matrix: call_update: 2.647 [ms]
[OGL LOG][Proc: 0]p_rhs: call_update: 1.018 [ms]
[OGL LOG][Preconditioner.H:346] Generate preconditioner Multigrid MaxLevels 9 MinCoarseRows 10 ZeroGuess 1 Cycle v
[OGL LOG][Proc: 0]p: init_precond: 348.099 [ms]
[OGL LOG][StoppingCriterion.H:239] Creating stopping criterion with minIter 41 frequency 1
[OGL LOG][Proc: 0]p: generate_solver: 0.008999999999999999 [ms]
[OGL LOG][Proc: 0]p: solve: 977.393 [ms]
[OGL LOG][Proc: 0]p: copy_x_back: 2.809 [ms]
[OGL LOG][lduLduBase.H:330] 
Statistics:
	Time per iteration: 9872 [mu s]
	Time per residual norm calculation: 974.000000 [mu s]
	Time per iteration and DOF: 0.782606 [ns]
	Retrieve results bandwidth 2.999000 [GByte/s]
[OGL LOG][Proc: 0]p: solve_multi_gpu: 1355.663 [ms]
MultigridcudaGKOCG:  Solving for p, Initial residual = 0.3753830228769367, Final residual = 0.003411082196145911, No Iterations 99
time step continuity errors : sum local = 0.01943508424881957, global = 4.646804714711141e-05, cumulative = 0.01202459694321768
smoothSolver:  Solving for nuTilda, Initial residual = 0.3320262129559922, Final residual = 0.02768502247296098, No Iterations 1
ExecutionTime = 70.87 s  ClockTime = 72 s

Time = 4

velocityDampingConstraint velocityDamping damped 98 (0%) of cells, with max limit 300
smoothSolver:  Solving for Ux, Initial residual = 0.03683057677309608, Final residual = 0.00295091865213993, No Iterations 4
smoothSolver:  Solving for Uy, Initial residual = 0.05374598671960291, Final residual = 0.004686311609463264, No Iterations 4
smoothSolver:  Solving for Uz, Initial residual = 0.04957454363636641, Final residual = 0.004422816100507197, No Iterations 4
[OGL LOG][Proc: 0]: global_index_init: 0.03 [ms]
[OGL LOG][Proc: 0]p_local_coeffs: call_update: 0 [ms]
[OGL LOG][Proc: 0]p_non_local_coeffs: call_update: 0 [ms]
[OGL LOG][Proc: 0]p: update_local_matrix_data: 35.971 [ms]
[OGL LOG][Proc: 0]p: update_non_local_matrix_data: 0.361 [ms]
[OGL LOG][Proc: 0]p_matrix: call_update: 2.469 [ms]
[OGL LOG][Proc: 0]p_rhs: call_update: 1.003 [ms]
[OGL LOG][Preconditioner.H:346] Generate preconditioner Multigrid MaxLevels 9 MinCoarseRows 10 ZeroGuess 1 Cycle v
[OGL LOG][Proc: 0]p: init_precond: 335.2 [ms]
[OGL LOG][StoppingCriterion.H:239] Creating stopping criterion with minIter 59 frequency 1
[OGL LOG][Proc: 0]p: generate_solver: 0.008999999999999999 [ms]
[OGL LOG][Proc: 0]p: solve: 581.047 [ms]
[OGL LOG][Proc: 0]p: copy_x_back: 2.712 [ms]
[OGL LOG][lduLduBase.H:330] 
Statistics:
	Time per iteration: 9684 [mu s]
	Time per residual norm calculation: 1278.000000 [mu s]
	Time per iteration and DOF: 0.767702 [ns]
	Retrieve results bandwidth 3.106000 [GByte/s]
[OGL LOG][Proc: 0]p: solve_multi_gpu: 944.1849999999999 [ms]
MultigridcudaGKOCG:  Solving for p, Initial residual = 0.4813285087262636, Final residual = 0.002117373635582159, No Iterations 60
time step continuity errors : sum local = 0.02024917672759893, global = -0.003170705862734625, cumulative = 0.00885389108048306
smoothSolver:  Solving for nuTilda, Initial residual = 0.1524629992872819, Final residual = 0.00669894462748505, No Iterations 3
ExecutionTime = 76.03 s  ClockTime = 77 s

Time = 5

velocityDampingConstraint velocityDamping damped 2767 (0.02%) of cells, with max limit 300
smoothSolver:  Solving for Ux, Initial residual = 0.1879559133830128, Final residual = 0.01567358097541546, No Iterations 3
smoothSolver:  Solving for Uy, Initial residual = 0.2640363017951687, Final residual = 0.02140244347391698, No Iterations 4
smoothSolver:  Solving for Uz, Initial residual = 0.2207401087040163, Final residual = 0.01686971937249647, No Iterations 4
[OGL LOG][Proc: 0]: global_index_init: 0.018 [ms]
[OGL LOG][Proc: 0]p_local_coeffs: call_update: 0 [ms]
[OGL LOG][Proc: 0]p_non_local_coeffs: call_update: 0 [ms]
[OGL LOG][Proc: 0]p: update_local_matrix_data: 31.464 [ms]
[OGL LOG][Proc: 0]p: update_non_local_matrix_data: 0.412 [ms]
[OGL LOG][Proc: 0]p_matrix: call_update: 2.305 [ms]
[OGL LOG][Proc: 0]p_rhs: call_update: 1.531 [ms]
[OGL LOG][Preconditioner.H:346] Generate preconditioner Multigrid MaxLevels 9 MinCoarseRows 10 ZeroGuess 1 Cycle v
[OGL LOG][Proc: 0]p: init_precond: 415.139 [ms]
[OGL LOG][StoppingCriterion.H:239] Creating stopping criterion with minIter 36 frequency 1
[OGL LOG][Proc: 0]p: generate_solver: 0.008999999999999999 [ms]
[OGL LOG][Proc: 0]p: solve: 945.826 [ms]
[OGL LOG][Proc: 0]p: copy_x_back: 2.716 [ms]
[OGL LOG][lduLduBase.H:330] 
Statistics:
	Time per iteration: 10170 [mu s]
	Time per residual norm calculation: 1418.000000 [mu s]
	Time per iteration and DOF: 0.806230 [ns]
	Retrieve results bandwidth 3.102000 [GByte/s]
[OGL LOG][Proc: 0]p: solve_multi_gpu: 1389.673 [ms]
MultigridcudaGKOCG:  Solving for p, Initial residual = 0.3485168731613866, Final residual = 0.003466560594244803, No Iterations 93
time step continuity errors : sum local = 0.02946776412511932, global = -7.716829628683723e-05, cumulative = 0.008776722784196223
smoothSolver:  Solving for nuTilda, Initial residual = 0.1179038453863837, Final residual = 0.0104740926215112, No Iterations 2
ExecutionTime = 81.52 s  ClockTime = 83 s

Time = 6

velocityDampingConstraint velocityDamping damped 204 (0%) of cells, with max limit 300
smoothSolver:  Solving for Ux, Initial residual = 0.1354647530149823, Final residual = 0.01277342837636204, No Iterations 4
smoothSolver:  Solving for Uy, Initial residual = 0.2504305799265101, Final residual = 0.01521227467528099, No Iterations 5
smoothSolver:  Solving for Uz, Initial residual = 0.1961042025662142, Final residual = 0.01878232706382016, No Iterations 4
[OGL LOG][Proc: 0]: global_index_init: 0.111 [ms]
[OGL LOG][Proc: 0]p_local_coeffs: call_update: 0 [ms]
[OGL LOG][Proc: 0]p_non_local_coeffs: call_update: 0 [ms]
[OGL LOG][Proc: 0]p: update_local_matrix_data: 33.193 [ms]
[OGL LOG][Proc: 0]p: update_non_local_matrix_data: 0.357 [ms]
[OGL LOG][Proc: 0]p_matrix: call_update: 2.479 [ms]
[OGL LOG][Proc: 0]p_rhs: call_update: 4.995 [ms]
[OGL LOG][Preconditioner.H:346] Generate preconditioner Multigrid MaxLevels 9 MinCoarseRows 10 ZeroGuess 1 Cycle v
[OGL LOG][Proc: 0]p: init_precond: 347.132 [ms]
[OGL LOG][StoppingCriterion.H:239] Creating stopping criterion with minIter 55 frequency 2
[OGL LOG][Proc: 0]p: generate_solver: 0.008999999999999999 [ms]
[OGL LOG][Proc: 0]p: solve: 928.813 [ms]
[OGL LOG][Proc: 0]p: copy_x_back: 2.78 [ms]
[OGL LOG][lduLduBase.H:330] 
Statistics:
	Time per iteration: 9987 [mu s]
	Time per residual norm calculation: 1272.000000 [mu s]
	Time per iteration and DOF: 0.791722 [ns]
	Retrieve results bandwidth 3.030000 [GByte/s]
[OGL LOG][Proc: 0]p: solve_multi_gpu: 1320.109 [ms]
MultigridcudaGKOCG:  Solving for p, Initial residual = 0.3886107031012312, Final residual = 0.00310218220933564, No Iterations 93
time step continuity errors : sum local = 0.02351522083626257, global = -0.0002218032802619731, cumulative = 0.00855491950393425
smoothSolver:  Solving for nuTilda, Initial residual = 0.07907733658349422, Final residual = 0.004971445001525422, No Iterations 3
ExecutionTime = 87.12 s  ClockTime = 89 s

Time = 7

velocityDampingConstraint velocityDamping damped 916 (0.01%) of cells, with max limit 300
smoothSolver:  Solving for Ux, Initial residual = 0.1009801029915177, Final residual = 0.006105945655538768, No Iterations 4
smoothSolver:  Solving for Uy, Initial residual = 0.1113626893667225, Final residual = 0.008364000711725446, No Iterations 4
smoothSolver:  Solving for Uz, Initial residual = 0.1039866628614198, Final residual = 0.007875930018523844, No Iterations 4
[OGL LOG][Proc: 0]: global_index_init: 0.019 [ms]
[OGL LOG][Proc: 0]p_local_coeffs: call_update: 0 [ms]
[OGL LOG][Proc: 0]p_non_local_coeffs: call_update: 0 [ms]
[OGL LOG][Proc: 0]p: update_local_matrix_data: 31.111 [ms]
[OGL LOG][Proc: 0]p: update_non_local_matrix_data: 0.362 [ms]
[OGL LOG][Proc: 0]p_matrix: call_update: 2.311 [ms]
[OGL LOG][Proc: 0]p_rhs: call_update: 1.149 [ms]
[OGL LOG][Preconditioner.H:346] Generate preconditioner Multigrid MaxLevels 9 MinCoarseRows 10 ZeroGuess 1 Cycle v
[OGL LOG][Proc: 0]p: init_precond: 327.655 [ms]
[OGL LOG][StoppingCriterion.H:239] Creating stopping criterion with minIter 55 frequency 2
[OGL LOG][Proc: 0]p: generate_solver: 0.008999999999999999 [ms]
[OGL LOG][Proc: 0]p: solve: 756.702 [ms]
[OGL LOG][Proc: 0]p: copy_x_back: 2.794 [ms]
[OGL LOG][lduLduBase.H:330] 
Statistics:
	Time per iteration: 9578 [mu s]
	Time per residual norm calculation: 1279.000000 [mu s]
	Time per iteration and DOF: 0.759299 [ns]
	Retrieve results bandwidth 3.015000 [GByte/s]
[OGL LOG][Proc: 0]p: solve_multi_gpu: 1117.559 [ms]
MultigridcudaGKOCG:  Solving for p, Initial residual = 0.3596832593094298, Final residual = 0.003166304591772769, No Iterations 79
time step continuity errors : sum local = 0.01801894858619932, global = 0.0005437816397897385, cumulative = 0.009098701143723988
smoothSolver:  Solving for nuTilda, Initial residual = 0.06374287367712486, Final residual = 0.003991670493144811, No Iterations 3
ExecutionTime = 92.48 s  ClockTime = 94 s

Time = 8

velocityDampingConstraint velocityDamping damped 982 (0.01%) of cells, with max limit 300
smoothSolver:  Solving for Ux, Initial residual = 0.1222129721082568, Final residual = 0.009749873052425216, No Iterations 4
smoothSolver:  Solving for Uy, Initial residual = 0.1778117297242623, Final residual = 0.01602602297506271, No Iterations 4
smoothSolver:  Solving for Uz, Initial residual = 0.1657751687711611, Final residual = 0.01474277617077191, No Iterations 4
[OGL LOG][Proc: 0]: global_index_init: 0.076 [ms]
[OGL LOG][Proc: 0]p_local_coeffs: call_update: 0 [ms]
[OGL LOG][Proc: 0]p_non_local_coeffs: call_update: 0 [ms]
[OGL LOG][Proc: 0]p: update_local_matrix_data: 35.009 [ms]
[OGL LOG][Proc: 0]p: update_non_local_matrix_data: 0.35 [ms]
[OGL LOG][Proc: 0]p_matrix: call_update: 2.419 [ms]
[OGL LOG][Proc: 0]p_rhs: call_update: 1.557 [ms]
[OGL LOG][Preconditioner.H:346] Generate preconditioner Multigrid MaxLevels 9 MinCoarseRows 10 ZeroGuess 1 Cycle v
[OGL LOG][Proc: 0]p: init_precond: 331.816 [ms]
[OGL LOG][StoppingCriterion.H:239] Creating stopping criterion with minIter 47 frequency 2
[OGL LOG][Proc: 0]p: generate_solver: 0.008999999999999999 [ms]
[OGL LOG][Proc: 0]p: solve: 896.458 [ms]
[OGL LOG][Proc: 0]p: copy_x_back: 2.669 [ms]
[OGL LOG][lduLduBase.H:330] 
Statistics:
	Time per iteration: 9639 [mu s]
	Time per residual norm calculation: 1279.000000 [mu s]
	Time per iteration and DOF: 0.764134 [ns]
	Retrieve results bandwidth 3.156000 [GByte/s]
[OGL LOG][Proc: 0]p: solve_multi_gpu: 1257.451 [ms]
MultigridcudaGKOCG:  Solving for p, Initial residual = 0.268839985371025, Final residual = 0.002536999195038882, No Iterations 93
time step continuity errors : sum local = 0.01841619457304797, global = 0.000111381085169281, cumulative = 0.009210082228893269
smoothSolver:  Solving for nuTilda, Initial residual = 0.04900293558041703, Final residual = 0.003819519275929351, No Iterations 3
ExecutionTime = 97.98999999999999 s  ClockTime = 100 s

Time = 9

velocityDampingConstraint velocityDamping damped 43 (0%) of cells, with max limit 300
smoothSolver:  Solving for Ux, Initial residual = 0.06983368163673796, Final residual = 0.005871381311087192, No Iterations 4
smoothSolver:  Solving for Uy, Initial residual = 0.1077483435699765, Final residual = 0.01018770228490622, No Iterations 4
smoothSolver:  Solving for Uz, Initial residual = 0.09892323618786716, Final residual = 0.00898933824235177, No Iterations 4
[OGL LOG][Proc: 0]: global_index_init: 0.023 [ms]
[OGL LOG][Proc: 0]p_local_coeffs: call_update: 0 [ms]
[OGL LOG][Proc: 0]p_non_local_coeffs: call_update: 0 [ms]
[OGL LOG][Proc: 0]p: update_local_matrix_data: 30.66 [ms]
[OGL LOG][Proc: 0]p: update_non_local_matrix_data: 0.334 [ms]
[OGL LOG][Proc: 0]p_matrix: call_update: 2.9 [ms]
[OGL LOG][Proc: 0]p_rhs: call_update: 0.988 [ms]
[OGL LOG][Preconditioner.H:346] Generate preconditioner Multigrid MaxLevels 9 MinCoarseRows 10 ZeroGuess 1 Cycle v
[OGL LOG][Proc: 0]p: init_precond: 331.608 [ms]
[OGL LOG][StoppingCriterion.H:239] Creating stopping criterion with minIter 55 frequency 2
[OGL LOG][Proc: 0]p: generate_solver: 0.008999999999999999 [ms]
[OGL LOG][Proc: 0]p: solve: 590.092 [ms]
[OGL LOG][Proc: 0]p: copy_x_back: 2.832 [ms]
[OGL LOG][lduLduBase.H:330] 
Statistics:
	Time per iteration: 9673 [mu s]
	Time per residual norm calculation: 1419.000000 [mu s]
	Time per iteration and DOF: 0.766830 [ns]
	Retrieve results bandwidth 2.975000 [GByte/s]
[OGL LOG][Proc: 0]p: solve_multi_gpu: 954.523 [ms]
MultigridcudaGKOCG:  Solving for p, Initial residual = 0.3291805219402115, Final residual = 0.002881480668895175, No Iterations 61
time step continuity errors : sum local = 0.01817483619136698, global = 0.003291337469863035, cumulative = 0.0125014196987563
smoothSolver:  Solving for nuTilda, Initial residual = 0.04224765321037011, Final residual = 0.00319588555729113, No Iterations 3
ExecutionTime = 103.17 s  ClockTime = 105 s

Time = 10

velocityDampingConstraint velocityDamping damped 86 (0%) of cells, with max limit 300
smoothSolver:  Solving for Ux, Initial residual = 0.02839753644684826, Final residual = 0.002056608985974654, No Iterations 4
smoothSolver:  Solving for Uy, Initial residual = 0.06004333960042112, Final residual = 0.004493358630291826, No Iterations 4
smoothSolver:  Solving for Uz, Initial residual = 0.05806783792684332, Final residual = 0.004507844476238613, No Iterations 4
[OGL LOG][Proc: 0]: global_index_init: 0.051 [ms]
[OGL LOG][Proc: 0]p_local_coeffs: call_update: 0 [ms]
[OGL LOG][Proc: 0]p_non_local_coeffs: call_update: 0 [ms]
[OGL LOG][Proc: 0]p: update_local_matrix_data: 33.098 [ms]
[OGL LOG][Proc: 0]p: update_non_local_matrix_data: 0.326 [ms]
[OGL LOG][Proc: 0]p_matrix: call_update: 2.746 [ms]
[OGL LOG][Proc: 0]p_rhs: call_update: 0.962 [ms]
[OGL LOG][Preconditioner.H:346] Generate preconditioner Multigrid MaxLevels 9 MinCoarseRows 10 ZeroGuess 1 Cycle v
[OGL LOG][Proc: 0]p: init_precond: 336.34 [ms]
[OGL LOG][StoppingCriterion.H:239] Creating stopping criterion with minIter 36 frequency 2
[OGL LOG][Proc: 0]p: generate_solver: 0.008999999999999999 [ms]
[OGL LOG][Proc: 0]p: solve: 413.383 [ms]
[OGL LOG][Proc: 0]p: copy_x_back: 3.62 [ms]
[OGL LOG][lduLduBase.H:330] 
Statistics:
	Time per iteration: 10082 [mu s]
	Time per residual norm calculation: 1424.000000 [mu s]
	Time per iteration and DOF: 0.799253 [ns]
	Retrieve results bandwidth 2.327000 [GByte/s]
[OGL LOG][Proc: 0]p: solve_multi_gpu: 781.576 [ms]
MultigridcudaGKOCG:  Solving for p, Initial residual = 0.3543206903462468, Final residual = 0.003352388047061705, No Iterations 41
time step continuity errors : sum local = 0.01648067964914603, global = 0.0002103027696625791, cumulative = 0.01271172246841888
smoothSolver:  Solving for nuTilda, Initial residual = 0.03545901985380127, Final residual = 0.002991294942576278, No Iterations 3
ExecutionTime = 108.17 s  ClockTime = 110 s

Time = 11

velocityDampingConstraint velocityDamping damped 264 (0%) of cells, with max limit 300
smoothSolver:  Solving for Ux, Initial residual = 0.03972468236728285, Final residual = 0.003213221947207073, No Iterations 4
smoothSolver:  Solving for Uy, Initial residual = 0.1036029047013337, Final residual = 0.009130615586861549, No Iterations 4
smoothSolver:  Solving for Uz, Initial residual = 0.09472700336846578, Final residual = 0.008364980646361014, No Iterations 4
[OGL LOG][Proc: 0]: global_index_init: 0.018 [ms]
[OGL LOG][Proc: 0]p_local_coeffs: call_update: 0 [ms]
[OGL LOG][Proc: 0]p_non_local_coeffs: call_update: 0 [ms]
[OGL LOG][Proc: 0]p: update_local_matrix_data: 32.369 [ms]
[OGL LOG][Proc: 0]p: update_non_local_matrix_data: 0.347 [ms]
[OGL LOG][Proc: 0]p_matrix: call_update: 2.72 [ms]
[OGL LOG][Proc: 0]p_rhs: call_update: 1.047 [ms]
[OGL LOG][Preconditioner.H:346] Generate preconditioner Multigrid MaxLevels 9 MinCoarseRows 10 ZeroGuess 1 Cycle v
[OGL LOG][Proc: 0]p: init_precond: 342.347 [ms]
[OGL LOG][StoppingCriterion.H:239] Creating stopping criterion with minIter 24 frequency 1
[OGL LOG][Proc: 0]p: generate_solver: 0.011 [ms]
[OGL LOG][Proc: 0]p: solve: 916.218 [ms]
[OGL LOG][Proc: 0]p: copy_x_back: 2.843 [ms]
[OGL LOG][lduLduBase.H:330] 
Statistics:
	Time per iteration: 10068 [mu s]
	Time per residual norm calculation: 1119.000000 [mu s]
	Time per iteration and DOF: 0.798144 [ns]
	Retrieve results bandwidth 2.963000 [GByte/s]
[OGL LOG][Proc: 0]p: solve_multi_gpu: 1290.822 [ms]
MultigridcudaGKOCG:  Solving for p, Initial residual = 0.3870432036304605, Final residual = 0.003505448361264563, No Iterations 91
time step continuity errors : sum local = 0.0152089757469512, global = -7.886694692022639e-05, cumulative = 0.01263285552149866
smoothSolver:  Solving for nuTilda, Initial residual = 0.03219541794157744, Final residual = 0.002603043746120105, No Iterations 3
ExecutionTime = 113.67 s  ClockTime = 115 s

Time = 12

velocityDampingConstraint velocityDamping damped 25 (0%) of cells, with max limit 300
smoothSolver:  Solving for Ux, Initial residual = 0.03861541227960474, Final residual = 0.003377081858510099, No Iterations 4
smoothSolver:  Solving for Uy, Initial residual = 0.0801512808255862, Final residual = 0.007113100961924981, No Iterations 4
smoothSolver:  Solving for Uz, Initial residual = 0.0765496873237666, Final residual = 0.006584291538404527, No Iterations 4
[OGL LOG][Proc: 0]: global_index_init: 0.019 [ms]
[OGL LOG][Proc: 0]p_local_coeffs: call_update: 0 [ms]
[OGL LOG][Proc: 0]p_non_local_coeffs: call_update: 0 [ms]
[OGL LOG][Proc: 0]p: update_local_matrix_data: 34.831 [ms]
[OGL LOG][Proc: 0]p: update_non_local_matrix_data: 0.303 [ms]
[OGL LOG][Proc: 0]p_matrix: call_update: 2.04 [ms]
[OGL LOG][Proc: 0]p_rhs: call_update: 1.577 [ms]
[OGL LOG][Preconditioner.H:346] Generate preconditioner Multigrid MaxLevels 9 MinCoarseRows 10 ZeroGuess 1 Cycle v
[OGL LOG][Proc: 0]p: init_precond: 331.105 [ms]
[OGL LOG][StoppingCriterion.H:239] Creating stopping criterion with minIter 54 frequency 2
[OGL LOG][Proc: 0]p: generate_solver: 0.008999999999999999 [ms]
[OGL LOG][Proc: 0]p: solve: 827.37 [ms]
[OGL LOG][Proc: 0]p: copy_x_back: 2.737 [ms]
[OGL LOG][lduLduBase.H:330] 
Statistics:
	Time per iteration: 9510 [mu s]
	Time per residual norm calculation: 1416.000000 [mu s]
	Time per iteration and DOF: 0.753908 [ns]
	Retrieve results bandwidth 3.078000 [GByte/s]
[OGL LOG][Proc: 0]p: solve_multi_gpu: 1187.094 [ms]
MultigridcudaGKOCG:  Solving for p, Initial residual = 0.412071492604536, Final residual = 0.00389225744014652, No Iterations 87
time step continuity errors : sum local = 0.0141851514072242, global = -0.0003859952729552084, cumulative = 0.01224686024854345
smoothSolver:  Solving for nuTilda, Initial residual = 0.028659055646331, Final residual = 0.002543423925829869, No Iterations 3
ExecutionTime = 119.08 s  ClockTime = 121 s

Time = 13

velocityDampingConstraint velocityDamping damped 22 (0%) of cells, with max limit 300
smoothSolver:  Solving for Ux, Initial residual = 0.02961902958926232, Final residual = 0.002400138215197269, No Iterations 4
smoothSolver:  Solving for Uy, Initial residual = 0.05915738666291089, Final residual = 0.004808958934290385, No Iterations 4
smoothSolver:  Solving for Uz, Initial residual = 0.05831794479534442, Final residual = 0.004595052867651922, No Iterations 4
[OGL LOG][Proc: 0]: global_index_init: 0.018 [ms]
[OGL LOG][Proc: 0]p_local_coeffs: call_update: 0 [ms]
[OGL LOG][Proc: 0]p_non_local_coeffs: call_update: 0 [ms]
[OGL LOG][Proc: 0]p: update_local_matrix_data: 32.465 [ms]
[OGL LOG][Proc: 0]p: update_non_local_matrix_data: 0.363 [ms]
[OGL LOG][Proc: 0]p_matrix: call_update: 2.644 [ms]
[OGL LOG][Proc: 0]p_rhs: call_update: 1.072 [ms]
[OGL LOG][Preconditioner.H:346] Generate preconditioner Multigrid MaxLevels 9 MinCoarseRows 10 ZeroGuess 1 Cycle v
[OGL LOG][Proc: 0]p: init_precond: 336.822 [ms]
[OGL LOG][StoppingCriterion.H:239] Creating stopping criterion with minIter 52 frequency 2
[OGL LOG][Proc: 0]p: generate_solver: 0.008999999999999999 [ms]
[OGL LOG][Proc: 0]p: solve: 543.673 [ms]
[OGL LOG][Proc: 0]p: copy_x_back: 2.791 [ms]
[OGL LOG][lduLduBase.H:330] 
Statistics:
	Time per iteration: 9538 [mu s]
	Time per residual norm calculation: 1277.000000 [mu s]
	Time per iteration and DOF: 0.756128 [ns]
	Retrieve results bandwidth 3.018000 [GByte/s]
[OGL LOG][Proc: 0]p: solve_multi_gpu: 913.162 [ms]
MultigridcudaGKOCG:  Solving for p, Initial residual = 0.4491834558689481, Final residual = 0.004361524204710276, No Iterations 57
time step continuity errors : sum local = 0.01327056430962882, global = 0.002467463376590903, cumulative = 0.01471432362513435
smoothSolver:  Solving for nuTilda, Initial residual = 0.02777203673745414, Final residual = 0.002358447598198073, No Iterations 3
ExecutionTime = 124.21 s  ClockTime = 126 s

Time = 14

velocityDampingConstraint velocityDamping damped 122 (0%) of cells, with max limit 300
smoothSolver:  Solving for Ux, Initial residual = 0.03714650030553571, Final residual = 0.002997362106533426, No Iterations 4
smoothSolver:  Solving for Uy, Initial residual = 0.06939974385872243, Final residual = 0.006259752317058216, No Iterations 4
smoothSolver:  Solving for Uz, Initial residual = 0.06497283795329135, Final residual = 0.00573191519741751, No Iterations 4
[OGL LOG][Proc: 0]: global_index_init: 0.019 [ms]
[OGL LOG][Proc: 0]p_local_coeffs: call_update: 0 [ms]
[OGL LOG][Proc: 0]p_non_local_coeffs: call_update: 0 [ms]
[OGL LOG][Proc: 0]p: update_local_matrix_data: 34.692 [ms]
[OGL LOG][Proc: 0]p: update_non_local_matrix_data: 0.338 [ms]
[OGL LOG][Proc: 0]p_matrix: call_update: 2.521 [ms]
[OGL LOG][Proc: 0]p_rhs: call_update: 1.414 [ms]
[OGL LOG][Preconditioner.H:346] Generate preconditioner Multigrid MaxLevels 9 MinCoarseRows 10 ZeroGuess 1 Cycle v
[OGL LOG][Proc: 0]p: init_precond: 342.942 [ms]
[OGL LOG][StoppingCriterion.H:239] Creating stopping criterion with minIter 34 frequency 1
[OGL LOG][Proc: 0]p: generate_solver: 0.01 [ms]
[OGL LOG][Proc: 0]p: solve: 881.451 [ms]
[OGL LOG][Proc: 0]p: copy_x_back: 2.771 [ms]
[OGL LOG][lduLduBase.H:330] 
Statistics:
	Time per iteration: 9903 [mu s]
	Time per residual norm calculation: 1416.000000 [mu s]
	Time per iteration and DOF: 0.785063 [ns]
	Retrieve results bandwidth 3.040000 [GByte/s]
[OGL LOG][Proc: 0]p: solve_multi_gpu: 1254.135 [ms]
MultigridcudaGKOCG:  Solving for p, Initial residual = 0.3946334002816032, Final residual = 0.003888528092909303, No Iterations 89
time step continuity errors : sum local = 0.01093981447065178, global = 6.33001352497337e-05, cumulative = 0.01477762376038408
smoothSolver:  Solving for nuTilda, Initial residual = 0.0258529759260381, Final residual = 0.002383723201614556, No Iterations 3
ExecutionTime = 129.68 s  ClockTime = 131 s

Time = 15

velocityDampingConstraint velocityDamping damped 24 (0%) of cells, with max limit 300
smoothSolver:  Solving for Ux, Initial residual = 0.02702898841893661, Final residual = 0.002262014399042105, No Iterations 4
smoothSolver:  Solving for Uy, Initial residual = 0.04797337075914211, Final residual = 0.004191377276461883, No Iterations 4
smoothSolver:  Solving for Uz, Initial residual = 0.04566287108421706, Final residual = 0.003852436124065209, No Iterations 4
[OGL LOG][Proc: 0]: global_index_init: 0.032 [ms]
[OGL LOG][Proc: 0]p_local_coeffs: call_update: 0 [ms]
[OGL LOG][Proc: 0]p_non_local_coeffs: call_update: 0 [ms]
[OGL LOG][Proc: 0]p: update_local_matrix_data: 32.347 [ms]
[OGL LOG][Proc: 0]p: update_non_local_matrix_data: 0.342 [ms]
[OGL LOG][Proc: 0]p_matrix: call_update: 2.258 [ms]
[OGL LOG][Proc: 0]p_rhs: call_update: 1.196 [ms]
[OGL LOG][Preconditioner.H:346] Generate preconditioner Multigrid MaxLevels 9 MinCoarseRows 10 ZeroGuess 1 Cycle v
[OGL LOG][Proc: 0]p: init_precond: 342.245 [ms]
[OGL LOG][StoppingCriterion.H:239] Creating stopping criterion with minIter 53 frequency 2
[OGL LOG][Proc: 0]p: generate_solver: 0.008999999999999999 [ms]
[OGL LOG][Proc: 0]p: solve: 522.523 [ms]
[OGL LOG][Proc: 0]p: copy_x_back: 2.818 [ms]
[OGL LOG][lduLduBase.H:330] 
Statistics:
	Time per iteration: 9500 [mu s]
	Time per residual norm calculation: 1276.000000 [mu s]
	Time per iteration and DOF: 0.753115 [ns]
	Retrieve results bandwidth 2.990000 [GByte/s]
[OGL LOG][Proc: 0]p: solve_multi_gpu: 894.635 [ms]
MultigridcudaGKOCG:  Solving for p, Initial residual = 0.2483427792030825, Final residual = 0.002069347016548121, No Iterations 55
time step continuity errors : sum local = 0.008292808956586687, global = 0.0007859031690882658, cumulative = 0.01556352692947235
smoothSolver:  Solving for nuTilda, Initial residual = 0.02577299293068334, Final residual = 0.002227841364901295, No Iterations 3
ExecutionTime = 134.76 s  ClockTime = 136 s

Time = 16

velocityDampingConstraint velocityDamping damped 1 (0%) of cells, with max limit 300
smoothSolver:  Solving for Ux, Initial residual = 0.01850899176697067, Final residual = 0.001371327818064906, No Iterations 4
smoothSolver:  Solving for Uy, Initial residual = 0.0379022126211464, Final residual = 0.002879521970971499, No Iterations 4
smoothSolver:  Solving for Uz, Initial residual = 0.04141215214446228, Final residual = 0.003273564941688691, No Iterations 4
[OGL LOG][Proc: 0]: global_index_init: 0.027 [ms]
[OGL LOG][Proc: 0]p_local_coeffs: call_update: 0 [ms]
[OGL LOG][Proc: 0]p_non_local_coeffs: call_update: 0 [ms]
[OGL LOG][Proc: 0]p: update_local_matrix_data: 31.366 [ms]
[OGL LOG][Proc: 0]p: update_non_local_matrix_data: 0.333 [ms]
[OGL LOG][Proc: 0]p_matrix: call_update: 2.284 [ms]
[OGL LOG][Proc: 0]p_rhs: call_update: 1.311 [ms]
[OGL LOG][Preconditioner.H:346] Generate preconditioner Multigrid MaxLevels 9 MinCoarseRows 10 ZeroGuess 1 Cycle v
[OGL LOG][Proc: 0]p: init_precond: 337.54 [ms]
[OGL LOG][StoppingCriterion.H:239] Creating stopping criterion with minIter 33 frequency 1
[OGL LOG][Proc: 0]p: generate_solver: 0.008999999999999999 [ms]
[OGL LOG][Proc: 0]p: solve: 813.429 [ms]
[OGL LOG][Proc: 0]p: copy_x_back: 2.751 [ms]
[OGL LOG][lduLduBase.H:330] 
Statistics:
	Time per iteration: 10296 [mu s]
	Time per residual norm calculation: 1276.000000 [mu s]
	Time per iteration and DOF: 0.816218 [ns]
	Retrieve results bandwidth 3.062000 [GByte/s]
[OGL LOG][Proc: 0]p: solve_multi_gpu: 1183.846 [ms]
MultigridcudaGKOCG:  Solving for p, Initial residual = 0.3878734138563756, Final residual = 0.003852898599682182, No Iterations 79
time step continuity errors : sum local = 0.0101105623144689, global = -0.0005000448061736016, cumulative = 0.01506348212329875
smoothSolver:  Solving for nuTilda, Initial residual = 0.02366051954892247, Final residual = 0.002247867610262542, No Iterations 3
ExecutionTime = 140.14 s  ClockTime = 142 s

Time = 17

velocityDampingConstraint velocityDamping damped 14 (0%) of cells, with max limit 300
smoothSolver:  Solving for Ux, Initial residual = 0.01605722118234703, Final residual = 0.001163364894809469, No Iterations 4
smoothSolver:  Solving for Uy, Initial residual = 0.04301500473411152, Final residual = 0.003614008450787774, No Iterations 4
smoothSolver:  Solving for Uz, Initial residual = 0.04439026563750763, Final residual = 0.003780552212438874, No Iterations 4
[OGL LOG][Proc: 0]: global_index_init: 0.063 [ms]
[OGL LOG][Proc: 0]p_local_coeffs: call_update: 0 [ms]
[OGL LOG][Proc: 0]p_non_local_coeffs: call_update: 0 [ms]
[OGL LOG][Proc: 0]p: update_local_matrix_data: 30.512 [ms]
[OGL LOG][Proc: 0]p: update_non_local_matrix_data: 0.325 [ms]
[OGL LOG][Proc: 0]p_matrix: call_update: 2.728 [ms]
[OGL LOG][Proc: 0]p_rhs: call_update: 0.921 [ms]
[OGL LOG][Preconditioner.H:346] Generate preconditioner Multigrid MaxLevels 9 MinCoarseRows 10 ZeroGuess 1 Cycle v
[OGL LOG][Proc: 0]p: init_precond: 355.97 [ms]
[OGL LOG][StoppingCriterion.H:239] Creating stopping criterion with minIter 47 frequency 1
[OGL LOG][Proc: 0]p: generate_solver: 0.008999999999999999 [ms]
[OGL LOG][Proc: 0]p: solve: 842.174 [ms]
[OGL LOG][Proc: 0]p: copy_x_back: 2.71 [ms]
[OGL LOG][lduLduBase.H:330] 
Statistics:
	Time per iteration: 9570 [mu s]
	Time per residual norm calculation: 1406.000000 [mu s]
	Time per iteration and DOF: 0.758664 [ns]
	Retrieve results bandwidth 3.109000 [GByte/s]
[OGL LOG][Proc: 0]p: solve_multi_gpu: 1232.173 [ms]
MultigridcudaGKOCG:  Solving for p, Initial residual = 0.4257789350391132, Final residual = 0.003710516755818587, No Iterations 88
time step continuity errors : sum local = 0.007659159731620604, global = -6.392756472915103e-05, cumulative = 0.0149995545585696
smoothSolver:  Solving for nuTilda, Initial residual = 0.02477755653820283, Final residual = 0.002091610062640381, No Iterations 3
ExecutionTime = 145.57 s  ClockTime = 147 s

Time = 18

velocityDampingConstraint velocityDamping damped 57 (0%) of cells, with max limit 300
smoothSolver:  Solving for Ux, Initial residual = 0.01458269379089341, Final residual = 0.001219545270792579, No Iterations 4
smoothSolver:  Solving for Uy, Initial residual = 0.03648668098271828, Final residual = 0.002996494113089236, No Iterations 4
smoothSolver:  Solving for Uz, Initial residual = 0.03693500528029808, Final residual = 0.003027634017507925, No Iterations 4
[OGL LOG][Proc: 0]: global_index_init: 0.018 [ms]
[OGL LOG][Proc: 0]p_local_coeffs: call_update: 0 [ms]
[OGL LOG][Proc: 0]p_non_local_coeffs: call_update: 0 [ms]
[OGL LOG][Proc: 0]p: update_local_matrix_data: 31.096 [ms]
[OGL LOG][Proc: 0]p: update_non_local_matrix_data: 0.34 [ms]
[OGL LOG][Proc: 0]p_matrix: call_update: 2.699 [ms]
[OGL LOG][Proc: 0]p_rhs: call_update: 0.9340000000000001 [ms]
[OGL LOG][Preconditioner.H:346] Generate preconditioner Multigrid MaxLevels 9 MinCoarseRows 10 ZeroGuess 1 Cycle v
[OGL LOG][Proc: 0]p: init_precond: 358.289 [ms]
[OGL LOG][StoppingCriterion.H:239] Creating stopping criterion with minIter 52 frequency 2
[OGL LOG][Proc: 0]p: generate_solver: 0.008999999999999999 [ms]
[OGL LOG][Proc: 0]p: solve: 496.34 [ms]
[OGL LOG][Proc: 0]p: copy_x_back: 2.765 [ms]
[OGL LOG][lduLduBase.H:330] 
Statistics:
	Time per iteration: 9364 [mu s]
	Time per residual norm calculation: 1274.000000 [mu s]
	Time per iteration and DOF: 0.742334 [ns]
	Retrieve results bandwidth 3.047000 [GByte/s]
[OGL LOG][Proc: 0]p: solve_multi_gpu: 888.1559999999999 [ms]
MultigridcudaGKOCG:  Solving for p, Initial residual = 0.3201381221384716, Final residual = 0.002457446688149888, No Iterations 53
time step continuity errors : sum local = 0.005857767767475842, global = -0.000578490175496595, cumulative = 0.014421064383073
smoothSolver:  Solving for nuTilda, Initial residual = 0.02210680967093349, Final residual = 0.002132157168717568, No Iterations 3
ExecutionTime = 150.67 s  ClockTime = 152 s

Time = 19

velocityDampingConstraint velocityDamping damped 0 (0%) of cells, with max limit 300
smoothSolver:  Solving for Ux, Initial residual = 0.01473083022167814, Final residual = 0.00129657761654276, No Iterations 4
smoothSolver:  Solving for Uy, Initial residual = 0.03542412398953645, Final residual = 0.003031427569563271, No Iterations 4
smoothSolver:  Solving for Uz, Initial residual = 0.0347637906390568, Final residual = 0.002900947551699523, No Iterations 4
[OGL LOG][Proc: 0]: global_index_init: 0.125 [ms]
[OGL LOG][Proc: 0]p_local_coeffs: call_update: 0 [ms]
[OGL LOG][Proc: 0]p_non_local_coeffs: call_update: 0 [ms]
[OGL LOG][Proc: 0]p: update_local_matrix_data: 31.077 [ms]
[OGL LOG][Proc: 0]p: update_non_local_matrix_data: 0.34 [ms]
[OGL LOG][Proc: 0]p_matrix: call_update: 2.542 [ms]
[OGL LOG][Proc: 0]p_rhs: call_update: 1.04 [ms]
[OGL LOG][Preconditioner.H:346] Generate preconditioner Multigrid MaxLevels 9 MinCoarseRows 10 ZeroGuess 1 Cycle v
[OGL LOG][Proc: 0]p: init_precond: 361.098 [ms]
[OGL LOG][StoppingCriterion.H:239] Creating stopping criterion with minIter 31 frequency 1
[OGL LOG][Proc: 0]p: generate_solver: 0.008999999999999999 [ms]
[OGL LOG][Proc: 0]p: solve: 337.082 [ms]
[OGL LOG][Proc: 0]p: copy_x_back: 3.773 [ms]
[OGL LOG][lduLduBase.H:330] 
Statistics:
	Time per iteration: 9914 [mu s]
	Time per residual norm calculation: 1267.000000 [mu s]
	Time per iteration and DOF: 0.785935 [ns]
	Retrieve results bandwidth 2.233000 [GByte/s]
[OGL LOG][Proc: 0]p: solve_multi_gpu: 732.598 [ms]
MultigridcudaGKOCG:  Solving for p, Initial residual = 0.4414308573394498, Final residual = 0.004262011353766833, No Iterations 34
time step continuity errors : sum local = 0.00686376333732925, global = 0.001259746451876432, cumulative = 0.01568081083494943
smoothSolver:  Solving for nuTilda, Initial residual = 0.02556132365750002, Final residual = 0.001990918720463086, No Iterations 3
ExecutionTime = 155.61 s  ClockTime = 157 s

Time = 20

velocityDampingConstraint velocityDamping damped 0 (0%) of cells, with max limit 300
smoothSolver:  Solving for Ux, Initial residual = 0.01542882697371137, Final residual = 0.001294985908739206, No Iterations 4
smoothSolver:  Solving for Uy, Initial residual = 0.03329667164823625, Final residual = 0.003012131748349764, No Iterations 4
smoothSolver:  Solving for Uz, Initial residual = 0.03192360351595192, Final residual = 0.002796095813893707, No Iterations 4
[OGL LOG][Proc: 0]: global_index_init: 0.018 [ms]
[OGL LOG][Proc: 0]p_local_coeffs: call_update: 0 [ms]
[OGL LOG][Proc: 0]p_non_local_coeffs: call_update: 0 [ms]
[OGL LOG][Proc: 0]p: update_local_matrix_data: 32.993 [ms]
[OGL LOG][Proc: 0]p: update_non_local_matrix_data: 0.337 [ms]
[OGL LOG][Proc: 0]p_matrix: call_update: 2.743 [ms]
[OGL LOG][Proc: 0]p_rhs: call_update: 0.931 [ms]
[OGL LOG][Preconditioner.H:346] Generate preconditioner Multigrid MaxLevels 9 MinCoarseRows 10 ZeroGuess 1 Cycle v
[OGL LOG][Proc: 0]p: init_precond: 329.184 [ms]
[OGL LOG][StoppingCriterion.H:239] Creating stopping criterion with minIter 20 frequency 1
[OGL LOG][Proc: 0]p: generate_solver: 0.008999999999999999 [ms]
[OGL LOG][Proc: 0]p: solve: 875.011 [ms]
[OGL LOG][Proc: 0]p: copy_x_back: 2.891 [ms]
[OGL LOG][lduLduBase.H:330] 
Statistics:
	Time per iteration: 10294 [mu s]
	Time per residual norm calculation: 1269.000000 [mu s]
	Time per iteration and DOF: 0.816060 [ns]
	Retrieve results bandwidth 2.914000 [GByte/s]
[OGL LOG][Proc: 0]p: solve_multi_gpu: 1236.163 [ms]
MultigridcudaGKOCG:  Solving for p, Initial residual = 0.4221058171654324, Final residual = 0.004092724651966799, No Iterations 85
time step continuity errors : sum local = 0.006140939716583683, global = 5.560686971720353e-05, cumulative = 0.01573641770466664
smoothSolver:  Solving for nuTilda, Initial residual = 0.02103441220551597, Final residual = 0.002069856142218273, No Iterations 3
ExecutionTime = 161.03 s  ClockTime = 163 s

Time = 21

velocityDampingConstraint velocityDamping damped 30 (0%) of cells, with max limit 300
smoothSolver:  Solving for Ux, Initial residual = 0.01191855837039794, Final residual = 0.001023594366576706, No Iterations 4
smoothSolver:  Solving for Uy, Initial residual = 0.02577006979375491, Final residual = 0.002252049120028891, No Iterations 4
smoothSolver:  Solving for Uz, Initial residual = 0.02608873289613602, Final residual = 0.002182259908093078, No Iterations 4
[OGL LOG][Proc: 0]: global_index_init: 0.018 [ms]
[OGL LOG][Proc: 0]p_local_coeffs: call_update: 0 [ms]
[OGL LOG][Proc: 0]p_non_local_coeffs: call_update: 0 [ms]
[OGL LOG][Proc: 0]p: update_local_matrix_data: 31.282 [ms]
[OGL LOG][Proc: 0]p: update_non_local_matrix_data: 0.344 [ms]
[OGL LOG][Proc: 0]p_matrix: call_update: 2.596 [ms]
[OGL LOG][Proc: 0]p_rhs: call_update: 1.064 [ms]
[OGL LOG][Preconditioner.H:346] Generate preconditioner Multigrid MaxLevels 9 MinCoarseRows 10 ZeroGuess 1 Cycle v
[OGL LOG][Proc: 0]p: init_precond: 338.644 [ms]
[OGL LOG][StoppingCriterion.H:239] Creating stopping criterion with minIter 51 frequency 2
[OGL LOG][Proc: 0]p: generate_solver: 0.008999999999999999 [ms]
[OGL LOG][Proc: 0]p: solve: 510.496 [ms]
[OGL LOG][Proc: 0]p: copy_x_back: 2.966 [ms]
[OGL LOG][lduLduBase.H:330] 
Statistics:
	Time per iteration: 9632 [mu s]
	Time per residual norm calculation: 1415.000000 [mu s]
	Time per iteration and DOF: 0.763580 [ns]
	Retrieve results bandwidth 2.840000 [GByte/s]
[OGL LOG][Proc: 0]p: solve_multi_gpu: 880.2809999999999 [ms]
MultigridcudaGKOCG:  Solving for p, Initial residual = 0.2156501356313152, Final residual = 0.001240170202956244, No Iterations 53
time step continuity errors : sum local = 0.002946884367840879, global = 0.0002703468440817296, cumulative = 0.01600676454874837
smoothSolver:  Solving for nuTilda, Initial residual = 0.02886167069745425, Final residual = 0.001920026639116251, No Iterations 3
ExecutionTime = 166.1 s  ClockTime = 168 s

Time = 22

velocityDampingConstraint velocityDamping damped 4 (0%) of cells, with max limit 300
smoothSolver:  Solving for Ux, Initial residual = 0.01015242767538052, Final residual = 0.0008257720896926702, No Iterations 4
smoothSolver:  Solving for Uy, Initial residual = 0.02463733032593368, Final residual = 0.002001594794468045, No Iterations 4
smoothSolver:  Solving for Uz, Initial residual = 0.02674147946202253, Final residual = 0.002198186773343371, No Iterations 4
[OGL LOG][Proc: 0]: global_index_init: 0.168 [ms]
[OGL LOG][Proc: 0]p_local_coeffs: call_update: 0 [ms]
[OGL LOG][Proc: 0]p_non_local_coeffs: call_update: 0 [ms]
[OGL LOG][Proc: 0]p: update_local_matrix_data: 36.919 [ms]
[OGL LOG][Proc: 0]p: update_non_local_matrix_data: 0.409 [ms]
[OGL LOG][Proc: 0]p_matrix: call_update: 3.151 [ms]
[OGL LOG][Proc: 0]p_rhs: call_update: 0.98 [ms]
[OGL LOG][Preconditioner.H:346] Generate preconditioner Multigrid MaxLevels 9 MinCoarseRows 10 ZeroGuess 1 Cycle v
[OGL LOG][Proc: 0]p: init_precond: 471.78 [ms]
[OGL LOG][StoppingCriterion.H:239] Creating stopping criterion with minIter 31 frequency 1
[OGL LOG][Proc: 0]p: generate_solver: 0.008999999999999999 [ms]
[OGL LOG][Proc: 0]p: solve: 771.423 [ms]
[OGL LOG][Proc: 0]p: copy_x_back: 2.821 [ms]
[OGL LOG][lduLduBase.H:330] 
Statistics:
	Time per iteration: 10150 [mu s]
	Time per residual norm calculation: 1416.000000 [mu s]
	Time per iteration and DOF: 0.804644 [ns]
	Retrieve results bandwidth 2.986000 [GByte/s]
[OGL LOG][Proc: 0]p: solve_multi_gpu: 1275.087 [ms]
MultigridcudaGKOCG:  Solving for p, Initial residual = 0.2566125036354331, Final residual = 0.0025501080099703, No Iterations 76
time step continuity errors : sum local = 0.004869044852787177, global = -0.0003590410022735376, cumulative = 0.01564772354647483
smoothSolver:  Solving for nuTilda, Initial residual = 0.0200268911892769, Final residual = 0.0011352041771358, No Iterations 4
ExecutionTime = 171.43 s  ClockTime = 173 s

Time = 23

velocityDampingConstraint velocityDamping damped 0 (0%) of cells, with max limit 300
smoothSolver:  Solving for Ux, Initial residual = 0.009249366104477484, Final residual = 0.0007420732318538163, No Iterations 4
smoothSolver:  Solving for Uy, Initial residual = 0.02505562051879561, Final residual = 0.002111769891309135, No Iterations 4
smoothSolver:  Solving for Uz, Initial residual = 0.02607972606085046, Final residual = 0.00220580316097104, No Iterations 4
[OGL LOG][Proc: 0]: global_index_init: 0.018 [ms]
[OGL LOG][Proc: 0]p_local_coeffs: call_update: 0 [ms]
[OGL LOG][Proc: 0]p_non_local_coeffs: call_update: 0 [ms]
[OGL LOG][Proc: 0]p: update_local_matrix_data: 31.166 [ms]
[OGL LOG][Proc: 0]p: update_non_local_matrix_data: 0.333 [ms]
[OGL LOG][Proc: 0]p_matrix: call_update: 2.291 [ms]
[OGL LOG][Proc: 0]p_rhs: call_update: 5.063 [ms]
[OGL LOG][Preconditioner.H:346] Generate preconditioner Multigrid MaxLevels 9 MinCoarseRows 10 ZeroGuess 1 Cycle v
[OGL LOG][Proc: 0]p: init_precond: 344.368 [ms]
[OGL LOG][StoppingCriterion.H:239] Creating stopping criterion with minIter 45 frequency 2
[OGL LOG][Proc: 0]p: generate_solver: 0.008999999999999999 [ms]
[OGL LOG][Proc: 0]p: solve: 810.982 [ms]
[OGL LOG][Proc: 0]p: copy_x_back: 2.798 [ms]
[OGL LOG][lduLduBase.H:330] 
Statistics:
	Time per iteration: 9540 [mu s]
	Time per residual norm calculation: 1412.000000 [mu s]
	Time per iteration and DOF: 0.756286 [ns]
	Retrieve results bandwidth 3.011000 [GByte/s]
[OGL LOG][Proc: 0]p: solve_multi_gpu: 1200.304 [ms]
MultigridcudaGKOCG:  Solving for p, Initial residual = 0.319756490880142, Final residual = 0.002573219231248592, No Iterations 85
time step continuity errors : sum local = 0.003564786101788627, global = -5.45555596638047e-05, cumulative = 0.01559316798681103
smoothSolver:  Solving for nuTilda, Initial residual = 0.03168671254007065, Final residual = 0.001832897640141352, No Iterations 3
ExecutionTime = 176.8 s  ClockTime = 179 s

Time = 24

velocityDampingConstraint velocityDamping damped 0 (0%) of cells, with max limit 300
smoothSolver:  Solving for Ux, Initial residual = 0.008524435233932133, Final residual = 0.0007515836536631265, No Iterations 4
smoothSolver:  Solving for Uy, Initial residual = 0.02389375757969669, Final residual = 0.002062155477616657, No Iterations 4
smoothSolver:  Solving for Uz, Initial residual = 0.0240153145348166, Final residual = 0.002034437900959677, No Iterations 4
[OGL LOG][Proc: 0]: global_index_init: 0.3 [ms]
[OGL LOG][Proc: 0]p_local_coeffs: call_update: 0 [ms]
[OGL LOG][Proc: 0]p_non_local_coeffs: call_update: 0 [ms]
[OGL LOG][Proc: 0]p: update_local_matrix_data: 33.936 [ms]
[OGL LOG][Proc: 0]p: update_non_local_matrix_data: 0.325 [ms]
[OGL LOG][Proc: 0]p_matrix: call_update: 2.052 [ms]
[OGL LOG][Proc: 0]p_rhs: call_update: 1.436 [ms]
[OGL LOG][Preconditioner.H:346] Generate preconditioner Multigrid MaxLevels 9 MinCoarseRows 10 ZeroGuess 1 Cycle v
[OGL LOG][Proc: 0]p: init_precond: 332.439 [ms]
[OGL LOG][StoppingCriterion.H:239] Creating stopping criterion with minIter 51 frequency 2
[OGL LOG][Proc: 0]p: generate_solver: 0.008999999999999999 [ms]
[OGL LOG][Proc: 0]p: solve: 522.4829999999999 [ms]
[OGL LOG][Proc: 0]p: copy_x_back: 2.777 [ms]
[OGL LOG][lduLduBase.H:330] 
Statistics:
	Time per iteration: 9858 [mu s]
	Time per residual norm calculation: 1428.000000 [mu s]
	Time per iteration and DOF: 0.781496 [ns]
	Retrieve results bandwidth 3.034000 [GByte/s]
[OGL LOG][Proc: 0]p: solve_multi_gpu: 885.175 [ms]
MultigridcudaGKOCG:  Solving for p, Initial residual = 0.2941512523475894, Final residual = 0.001212002787980976, No Iterations 53
time step continuity errors : sum local = 0.0016195116222247, global = -0.0001133579517891096, cumulative = 0.01547981003502192
smoothSolver:  Solving for nuTilda, Initial residual = 0.01870071580520527, Final residual = 0.001096217875258832, No Iterations 4
ExecutionTime = 181.89 s  ClockTime = 184 s

Time = 25

velocityDampingConstraint velocityDamping damped 7 (0%) of cells, with max limit 300
smoothSolver:  Solving for Ux, Initial residual = 0.008762002505407658, Final residual = 0.0007840529435761529, No Iterations 4
smoothSolver:  Solving for Uy, Initial residual = 0.02327143015395083, Final residual = 0.002084559840945741, No Iterations 4
smoothSolver:  Solving for Uz, Initial residual = 0.02332726471108008, Final residual = 0.002021456545347067, No Iterations 4
[OGL LOG][Proc: 0]: global_index_init: 0.025 [ms]
[OGL LOG][Proc: 0]p_local_coeffs: call_update: 0 [ms]
[OGL LOG][Proc: 0]p_non_local_coeffs: call_update: 0 [ms]
[OGL LOG][Proc: 0]p: update_local_matrix_data: 36.013 [ms]
[OGL LOG][Proc: 0]p: update_non_local_matrix_data: 0.334 [ms]
[OGL LOG][Proc: 0]p_matrix: call_update: 2.526 [ms]
[OGL LOG][Proc: 0]p_rhs: call_update: 0.955 [ms]
[OGL LOG][Preconditioner.H:346] Generate preconditioner Multigrid MaxLevels 9 MinCoarseRows 10 ZeroGuess 1 Cycle v
[OGL LOG][Proc: 0]p: init_precond: 354.647 [ms]
[OGL LOG][StoppingCriterion.H:239] Creating stopping criterion with minIter 31 frequency 1
[OGL LOG][Proc: 0]p: generate_solver: 0.008999999999999999 [ms]
[OGL LOG][Proc: 0]p: solve: 659.822 [ms]
[OGL LOG][Proc: 0]p: copy_x_back: 2.729 [ms]
[OGL LOG][lduLduBase.H:330] 
Statistics:
	Time per iteration: 9848 [mu s]
	Time per residual norm calculation: 1417.000000 [mu s]
	Time per iteration and DOF: 0.780703 [ns]
	Retrieve results bandwidth 3.087000 [GByte/s]
[OGL LOG][Proc: 0]p: solve_multi_gpu: 1042.017 [ms]
MultigridcudaGKOCG:  Solving for p, Initial residual = 0.3289339115788511, Final residual = 0.003162177862655847, No Iterations 67
time step continuity errors : sum local = 0.003336730742848852, global = 0.0001565745619028716, cumulative = 0.01563638459692479
smoothSolver:  Solving for nuTilda, Initial residual = 0.03176731090100771, Final residual = 0.001755348481988242, No Iterations 3
ExecutionTime = 187.11 s  ClockTime = 189 s

Time = 26

velocityDampingConstraint velocityDamping damped 0 (0%) of cells, with max limit 300
smoothSolver:  Solving for Ux, Initial residual = 0.008483755270604328, Final residual = 0.0007693368096841123, No Iterations 4
smoothSolver:  Solving for Uy, Initial residual = 0.02107885854563018, Final residual = 0.00193340244137553, No Iterations 4
smoothSolver:  Solving for Uz, Initial residual = 0.02103815347720981, Final residual = 0.001870001299519623, No Iterations 4
[OGL LOG][Proc: 0]: global_index_init: 0.019 [ms]
[OGL LOG][Proc: 0]p_local_coeffs: call_update: 0 [ms]
[OGL LOG][Proc: 0]p_non_local_coeffs: call_update: 0 [ms]
[OGL LOG][Proc: 0]p: update_local_matrix_data: 30.55 [ms]
[OGL LOG][Proc: 0]p: update_non_local_matrix_data: 0.348 [ms]
[OGL LOG][Proc: 0]p_matrix: call_update: 2.118 [ms]
[OGL LOG][Proc: 0]p_rhs: call_update: 1.334 [ms]
[OGL LOG][Preconditioner.H:346] Generate preconditioner Multigrid MaxLevels 9 MinCoarseRows 10 ZeroGuess 1 Cycle v
[OGL LOG][Proc: 0]p: init_precond: 344.706 [ms]
[OGL LOG][StoppingCriterion.H:239] Creating stopping criterion with minIter 40 frequency 2
[OGL LOG][Proc: 0]p: generate_solver: 0.008999999999999999 [ms]
[OGL LOG][Proc: 0]p: solve: 783.158 [ms]
[OGL LOG][Proc: 0]p: copy_x_back: 2.702 [ms]
[OGL LOG][lduLduBase.H:330] 
Statistics:
	Time per iteration: 9435 [mu s]
	Time per residual norm calculation: 977.000000 [mu s]
	Time per iteration and DOF: 0.747962 [ns]
	Retrieve results bandwidth 3.118000 [GByte/s]
[OGL LOG][Proc: 0]p: solve_multi_gpu: 1161.574 [ms]
MultigridcudaGKOCG:  Solving for p, Initial residual = 0.2623989584678911, Final residual = 0.002359864498466626, No Iterations 83
time step continuity errors : sum local = 0.002738039517082817, global = 5.762740158248125e-05, cumulative = 0.01569401199850727
smoothSolver:  Solving for nuTilda, Initial residual = 0.017354472912787, Final residual = 0.001057765288541192, No Iterations 4
ExecutionTime = 192.47 s  ClockTime = 194 s

Time = 27

velocityDampingConstraint velocityDamping damped 0 (0%) of cells, with max limit 300
smoothSolver:  Solving for Ux, Initial residual = 0.00760901725174752, Final residual = 0.0006682021006635862, No Iterations 4
smoothSolver:  Solving for Uy, Initial residual = 0.01899097784543919, Final residual = 0.001727688597829515, No Iterations 4
smoothSolver:  Solving for Uz, Initial residual = 0.01931902401921387, Final residual = 0.001689621230224748, No Iterations 4
[OGL LOG][Proc: 0]: global_index_init: 0.14 [ms]
[OGL LOG][Proc: 0]p_local_coeffs: call_update: 0 [ms]
[OGL LOG][Proc: 0]p_non_local_coeffs: call_update: 0 [ms]
[OGL LOG][Proc: 0]p: update_local_matrix_data: 31.176 [ms]
[OGL LOG][Proc: 0]p: update_non_local_matrix_data: 0.36 [ms]
[OGL LOG][Proc: 0]p_matrix: call_update: 2.75 [ms]
[OGL LOG][Proc: 0]p_rhs: call_update: 0.9340000000000001 [ms]
[OGL LOG][Preconditioner.H:346] Generate preconditioner Multigrid MaxLevels 9 MinCoarseRows 10 ZeroGuess 1 Cycle v
[OGL LOG][Proc: 0]p: init_precond: 330.144 [ms]
[OGL LOG][StoppingCriterion.H:239] Creating stopping criterion with minIter 49 frequency 1
[OGL LOG][Proc: 0]p: generate_solver: 0.008999999999999999 [ms]
[OGL LOG][Proc: 0]p: solve: 501.396 [ms]
[OGL LOG][Proc: 0]p: copy_x_back: 2.72 [ms]
[OGL LOG][lduLduBase.H:330] 
Statistics:
	Time per iteration: 10027 [mu s]
	Time per residual norm calculation: 1259.000000 [mu s]
	Time per iteration and DOF: 0.794893 [ns]
	Retrieve results bandwidth 3.097000 [GByte/s]
[OGL LOG][Proc: 0]p: solve_multi_gpu: 865.057 [ms]
MultigridcudaGKOCG:  Solving for p, Initial residual = 0.1996768167868601, Final residual = 0.0006772359291729679, No Iterations 50
time step continuity errors : sum local = 0.0009409931256644822, global = 2.118326840078669e-05, cumulative = 0.01571519526690805
smoothSolver:  Solving for nuTilda, Initial residual = 0.03063640777684229, Final residual = 0.001684262239074341, No Iterations 3
ExecutionTime = 197.52 s  ClockTime = 199 s

Time = 28

velocityDampingConstraint velocityDamping damped 0 (0%) of cells, with max limit 300
smoothSolver:  Solving for Ux, Initial residual = 0.006903768753781967, Final residual = 0.0005998838557842619, No Iterations 4
smoothSolver:  Solving for Uy, Initial residual = 0.01881123051048498, Final residual = 0.001694843733034871, No Iterations 4
smoothSolver:  Solving for Uz, Initial residual = 0.01945245235486589, Final residual = 0.001693883392018643, No Iterations 4
[OGL LOG][Proc: 0]: global_index_init: 0.027 [ms]
[OGL LOG][Proc: 0]p_local_coeffs: call_update: 0 [ms]
[OGL LOG][Proc: 0]p_non_local_coeffs: call_update: 0 [ms]
[OGL LOG][Proc: 0]p: update_local_matrix_data: 32.022 [ms]
[OGL LOG][Proc: 0]p: update_non_local_matrix_data: 0.325 [ms]
[OGL LOG][Proc: 0]p_matrix: call_update: 2.08 [ms]
[OGL LOG][Proc: 0]p_rhs: call_update: 1.393 [ms]
[OGL LOG][Preconditioner.H:346] Generate preconditioner Multigrid MaxLevels 9 MinCoarseRows 10 ZeroGuess 1 Cycle v
[OGL LOG][Proc: 0]p: init_precond: 327.609 [ms]
[OGL LOG][StoppingCriterion.H:239] Creating stopping criterion with minIter 30 frequency 1
[OGL LOG][Proc: 0]p: generate_solver: 0.008999999999999999 [ms]
[OGL LOG][Proc: 0]p: solve: 679.7859999999999 [ms]
[OGL LOG][Proc: 0]p: copy_x_back: 2.781 [ms]
[OGL LOG][lduLduBase.H:330] 
Statistics:
	Time per iteration: 10146 [mu s]
	Time per residual norm calculation: 1274.000000 [mu s]
	Time per iteration and DOF: 0.804327 [ns]
	Retrieve results bandwidth 3.029000 [GByte/s]
[OGL LOG][Proc: 0]p: solve_multi_gpu: 1039.837 [ms]
MultigridcudaGKOCG:  Solving for p, Initial residual = 0.1989137175116534, Final residual = 0.001831509307497061, No Iterations 67
time step continuity errors : sum local = 0.002240358574075855, global = 1.078016703920953e-05, cumulative = 0.01572597543394726
smoothSolver:  Solving for nuTilda, Initial residual = 0.01603801256968932, Final residual = 0.001014846414039382, No Iterations 4
ExecutionTime = 202.77 s  ClockTime = 205 s

Time = 29

velocityDampingConstraint velocityDamping damped 0 (0%) of cells, with max limit 300
smoothSolver:  Solving for Ux, Initial residual = 0.006641334857626064, Final residual = 0.0005809343615410962, No Iterations 4
smoothSolver:  Solving for Uy, Initial residual = 0.01898589678217254, Final residual = 0.001711917086175453, No Iterations 4
smoothSolver:  Solving for Uz, Initial residual = 0.01932337651611785, Final residual = 0.00169158584504819, No Iterations 4
[OGL LOG][Proc: 0]: global_index_init: 0.07099999999999999 [ms]
[OGL LOG][Proc: 0]p_local_coeffs: call_update: 0 [ms]
[OGL LOG][Proc: 0]p_non_local_coeffs: call_update: 0 [ms]
[OGL LOG][Proc: 0]p: update_local_matrix_data: 31.301 [ms]
[OGL LOG][Proc: 0]p: update_non_local_matrix_data: 0.337 [ms]
[OGL LOG][Proc: 0]p_matrix: call_update: 2.712 [ms]
[OGL LOG][Proc: 0]p_rhs: call_update: 0.9370000000000001 [ms]
[OGL LOG][Preconditioner.H:346] Generate preconditioner Multigrid MaxLevels 9 MinCoarseRows 10 ZeroGuess 1 Cycle v
[OGL LOG][Proc: 0]p: init_precond: 328.461 [ms]
[OGL LOG][StoppingCriterion.H:239] Creating stopping criterion with minIter 40 frequency 1
[OGL LOG][Proc: 0]p: generate_solver: 0.008999999999999999 [ms]
[OGL LOG][Proc: 0]p: solve: 819.247 [ms]
[OGL LOG][Proc: 0]p: copy_x_back: 2.733 [ms]
[OGL LOG][lduLduBase.H:330] 
Statistics:
	Time per iteration: 9990 [mu s]
	Time per residual norm calculation: 1413.000000 [mu s]
	Time per iteration and DOF: 0.791960 [ns]
	Retrieve results bandwidth 3.083000 [GByte/s]
[OGL LOG][Proc: 0]p: solve_multi_gpu: 1181.282 [ms]
MultigridcudaGKOCG:  Solving for p, Initial residual = 0.2336804493427871, Final residual = 0.002150523551394069, No Iterations 82
time step continuity errors : sum local = 0.002039453540520942, global = -4.76548990674793e-05, cumulative = 0.01567832053487979
smoothSolver:  Solving for nuTilda, Initial residual = 0.0285643251529354, Final residual = 0.001616236079347423, No Iterations 3
ExecutionTime = 208.13 s  ClockTime = 210 s

Time = 30

velocityDampingConstraint velocityDamping damped 0 (0%) of cells, with max limit 300
smoothSolver:  Solving for Ux, Initial residual = 0.006467497238039505, Final residual = 0.0005761008538410947, No Iterations 4
smoothSolver:  Solving for Uy, Initial residual = 0.01882482713546414, Final residual = 0.001706811655782633, No Iterations 4
smoothSolver:  Solving for Uz, Initial residual = 0.0188111199907927, Final residual = 0.001641810457845168, No Iterations 4
[OGL LOG][Proc: 0]: global_index_init: 0.065 [ms]
[OGL LOG][Proc: 0]p_local_coeffs: call_update: 0 [ms]
[OGL LOG][Proc: 0]p_non_local_coeffs: call_update: 0 [ms]
[OGL LOG][Proc: 0]p: update_local_matrix_data: 33.082 [ms]
[OGL LOG][Proc: 0]p: update_non_local_matrix_data: 0.305 [ms]
[OGL LOG][Proc: 0]p_matrix: call_update: 2.057 [ms]
[OGL LOG][Proc: 0]p_rhs: call_update: 1.277 [ms]
[OGL LOG][Preconditioner.H:346] Generate preconditioner Multigrid MaxLevels 9 MinCoarseRows 10 ZeroGuess 1 Cycle v
[OGL LOG][Proc: 0]p: init_precond: 337.953 [ms]
[OGL LOG][StoppingCriterion.H:239] Creating stopping criterion with minIter 49 frequency 2
[OGL LOG][Proc: 0]p: generate_solver: 0.008 [ms]
[OGL LOG][Proc: 0]p: solve: 492.62 [ms]
[OGL LOG][Proc: 0]p: copy_x_back: 2.838 [ms]
[OGL LOG][lduLduBase.H:330] 
Statistics:
	Time per iteration: 9659 [mu s]
	Time per residual norm calculation: 1276.000000 [mu s]
	Time per iteration and DOF: 0.765720 [ns]
	Retrieve results bandwidth 2.968000 [GByte/s]
[OGL LOG][Proc: 0]p: solve_multi_gpu: 863.054 [ms]
MultigridcudaGKOCG:  Solving for p, Initial residual = 0.258154747029073, Final residual = 0.0006731981392331308, No Iterations 51
time step continuity errors : sum local = 0.0005221300633890203, global = 3.330057389050357e-05, cumulative = 0.01571162110877029
smoothSolver:  Solving for nuTilda, Initial residual = 0.01488493887901488, Final residual = 0.0009717710619861063, No Iterations 4
ExecutionTime = 213.2 s  ClockTime = 215 s

Time = 31

velocityDampingConstraint velocityDamping damped 0 (0%) of cells, with max limit 300
smoothSolver:  Solving for Ux, Initial residual = 0.006401124931695624, Final residual = 0.0005697866885485887, No Iterations 4
smoothSolver:  Solving for Uy, Initial residual = 0.01808510091564538, Final residual = 0.001658349106550768, No Iterations 4
smoothSolver:  Solving for Uz, Initial residual = 0.01811449829997975, Final residual = 0.001605416366469962, No Iterations 4
[OGL LOG][Proc: 0]: global_index_init: 0.039 [ms]
[OGL LOG][Proc: 0]p_local_coeffs: call_update: 0 [ms]
[OGL LOG][Proc: 0]p_non_local_coeffs: call_update: 0 [ms]
[OGL LOG][Proc: 0]p: update_local_matrix_data: 31.639 [ms]
[OGL LOG][Proc: 0]p: update_non_local_matrix_data: 0.323 [ms]
[OGL LOG][Proc: 0]p_matrix: call_update: 2.754 [ms]
[OGL LOG][Proc: 0]p_rhs: call_update: 0.9320000000000001 [ms]
[OGL LOG][Preconditioner.H:346] Generate preconditioner Multigrid MaxLevels 9 MinCoarseRows 10 ZeroGuess 1 Cycle v
[OGL LOG][Proc: 0]p: init_precond: 342.154 [ms]
[OGL LOG][StoppingCriterion.H:239] Creating stopping criterion with minIter 30 frequency 1
[OGL LOG][Proc: 0]p: generate_solver: 0.008999999999999999 [ms]
[OGL LOG][Proc: 0]p: solve: 642.84 [ms]
[OGL LOG][Proc: 0]p: copy_x_back: 2.851 [ms]
[OGL LOG][lduLduBase.H:330] 
Statistics:
	Time per iteration: 10044 [mu s]
	Time per residual norm calculation: 976.000000 [mu s]
	Time per iteration and DOF: 0.796241 [ns]
	Retrieve results bandwidth 2.955000 [GByte/s]
[OGL LOG][Proc: 0]p: solve_multi_gpu: 1018.335 [ms]
MultigridcudaGKOCG:  Solving for p, Initial residual = 0.2257622320424062, Final residual = 0.002118029931765512, No Iterations 64
time step continuity errors : sum local = 0.001691240453495516, global = 7.43399514588506e-06, cumulative = 0.01571905510391617
smoothSolver:  Solving for nuTilda, Initial residual = 0.026652189154301, Final residual = 0.001553450728203068, No Iterations 3
ExecutionTime = 218.39 s  ClockTime = 220 s

Time = 32

velocityDampingConstraint velocityDamping damped 0 (0%) of cells, with max limit 300
smoothSolver:  Solving for Ux, Initial residual = 0.006209553516846448, Final residual = 0.0005533006004076077, No Iterations 4
smoothSolver:  Solving for Uy, Initial residual = 0.01708499098495061, Final residual = 0.001564582747188968, No Iterations 4
smoothSolver:  Solving for Uz, Initial residual = 0.01711112913051497, Final residual = 0.00154362621182693, No Iterations 4
[OGL LOG][Proc: 0]: global_index_init: 0.389 [ms]
[OGL LOG][Proc: 0]p_local_coeffs: call_update: 0 [ms]
[OGL LOG][Proc: 0]p_non_local_coeffs: call_update: 0 [ms]
[OGL LOG][Proc: 0]p: update_local_matrix_data: 34.08 [ms]
[OGL LOG][Proc: 0]p: update_non_local_matrix_data: 0.327 [ms]
[OGL LOG][Proc: 0]p_matrix: call_update: 2.453 [ms]
[OGL LOG][Proc: 0]p_rhs: call_update: 1.135 [ms]
[OGL LOG][Preconditioner.H:346] Generate preconditioner Multigrid MaxLevels 9 MinCoarseRows 10 ZeroGuess 1 Cycle v
[OGL LOG][Proc: 0]p: init_precond: 339.272 [ms]
[OGL LOG][StoppingCriterion.H:239] Creating stopping criterion with minIter 38 frequency 1
[OGL LOG][Proc: 0]p: generate_solver: 0.008999999999999999 [ms]
[OGL LOG][Proc: 0]p: solve: 769.942 [ms]
[OGL LOG][Proc: 0]p: copy_x_back: 2.791 [ms]
[OGL LOG][lduLduBase.H:330] 
Statistics:
	Time per iteration: 9871 [mu s]
	Time per residual norm calculation: 968.000000 [mu s]
	Time per iteration and DOF: 0.782526 [ns]
	Retrieve results bandwidth 3.018000 [GByte/s]
[OGL LOG][Proc: 0]p: solve_multi_gpu: 1140.158 [ms]
MultigridcudaGKOCG:  Solving for p, Initial residual = 0.1792828635100651, Final residual = 0.001756020209342194, No Iterations 78
time step continuity errors : sum local = 0.001629272941637003, global = 8.43562615589112e-05, cumulative = 0.01580341136547508
smoothSolver:  Solving for nuTilda, Initial residual = 0.01391576671691175, Final residual = 0.0009327141535223531, No Iterations 4
ExecutionTime = 223.72 s  ClockTime = 226 s

Time = 33

velocityDampingConstraint velocityDamping damped 0 (0%) of cells, with max limit 300
smoothSolver:  Solving for Ux, Initial residual = 0.005877927644460491, Final residual = 0.000518300175501096, No Iterations 4
smoothSolver:  Solving for Uy, Initial residual = 0.01645781056619756, Final residual = 0.001497918103333351, No Iterations 4
smoothSolver:  Solving for Uz, Initial residual = 0.01651148101505021, Final residual = 0.001491917590827849, No Iterations 4
[OGL LOG][Proc: 0]: global_index_init: 0.07099999999999999 [ms]
[OGL LOG][Proc: 0]p_local_coeffs: call_update: 0 [ms]
[OGL LOG][Proc: 0]p_non_local_coeffs: call_update: 0 [ms]
[OGL LOG][Proc: 0]p: update_local_matrix_data: 30.812 [ms]
[OGL LOG][Proc: 0]p: update_non_local_matrix_data: 0.381 [ms]
[OGL LOG][Proc: 0]p_matrix: call_update: 2.757 [ms]
[OGL LOG][Proc: 0]p_rhs: call_update: 0.91 [ms]
[OGL LOG][Preconditioner.H:346] Generate preconditioner Multigrid MaxLevels 9 MinCoarseRows 10 ZeroGuess 1 Cycle v
[OGL LOG][Proc: 0]p: init_precond: 327.488 [ms]
[OGL LOG][StoppingCriterion.H:239] Creating stopping criterion with minIter 46 frequency 1
[OGL LOG][Proc: 0]p: generate_solver: 0.008 [ms]
[OGL LOG][Proc: 0]p: solve: 481.739 [ms]
[OGL LOG][Proc: 0]p: copy_x_back: 2.74 [ms]
[OGL LOG][lduLduBase.H:330] 
Statistics:
	Time per iteration: 10249 [mu s]
	Time per residual norm calculation: 1273.000000 [mu s]
	Time per iteration and DOF: 0.812492 [ns]
	Retrieve results bandwidth 3.075000 [GByte/s]
[OGL LOG][Proc: 0]p: solve_multi_gpu: 843.472 [ms]
MultigridcudaGKOCG:  Solving for p, Initial residual = 0.1561697541213149, Final residual = 0.0003654171319786597, No Iterations 47
time step continuity errors : sum local = 0.0003538425822877928, global = -3.940513101168419e-05, cumulative = 0.0157640062344634
smoothSolver:  Solving for nuTilda, Initial residual = 0.02497672749036318, Final residual = 0.00149580118230365, No Iterations 3
ExecutionTime = 228.72 s  ClockTime = 231 s

Time = 34

velocityDampingConstraint velocityDamping damped 0 (0%) of cells, with max limit 300
smoothSolver:  Solving for Ux, Initial residual = 0.005536815338154771, Final residual = 0.000491939047235134, No Iterations 4
smoothSolver:  Solving for Uy, Initial residual = 0.01636462930026029, Final residual = 0.001495197144047101, No Iterations 4
smoothSolver:  Solving for Uz, Initial residual = 0.0164692825226726, Final residual = 0.001495711043124221, No Iterations 4
[OGL LOG][Proc: 0]: global_index_init: 0.128 [ms]
[OGL LOG][Proc: 0]p_local_coeffs: call_update: 0 [ms]
[OGL LOG][Proc: 0]p_non_local_coeffs: call_update: 0 [ms]
[OGL LOG][Proc: 0]p: update_local_matrix_data: 32.862 [ms]
[OGL LOG][Proc: 0]p: update_non_local_matrix_data: 0.321 [ms]
[OGL LOG][Proc: 0]p_matrix: call_update: 2.467 [ms]
[OGL LOG][Proc: 0]p_rhs: call_update: 0.98 [ms]
[OGL LOG][Preconditioner.H:346] Generate preconditioner Multigrid MaxLevels 9 MinCoarseRows 10 ZeroGuess 1 Cycle v
[OGL LOG][Proc: 0]p: init_precond: 332.923 [ms]
[OGL LOG][StoppingCriterion.H:239] Creating stopping criterion with minIter 28 frequency 1
[OGL LOG][Proc: 0]p: generate_solver: 0.008999999999999999 [ms]
[OGL LOG][Proc: 0]p: solve: 638.438 [ms]
[OGL LOG][Proc: 0]p: copy_x_back: 2.792 [ms]
[OGL LOG][lduLduBase.H:330] 
Statistics:
	Time per iteration: 10297 [mu s]
[...]
smoothSolver:  Solving for nuTilda, Initial residual = 0.006457810549035908, Final residual = 0.0004792089433066549, No Iterations 4
ExecutionTime = 513.1900000000001 s  ClockTime = 516 s

Time = 91

velocityDampingConstraint velocityDamping damped 0 (0%) of cells, with max limit 300
smoothSolver:  Solving for Ux, Initial residual = 0.002845454748445849, Final residual = 0.0002803314981616175, No Iterations 4
smoothSolver:  Solving for Uy, Initial residual = 0.01178094406015863, Final residual = 0.001171399006523166, No Iterations 4
smoothSolver:  Solving for Uz, Initial residual = 0.01317892701915377, Final residual = 0.0007880249022087787, No Iterations 5
[OGL LOG][Proc: 0]: global_index_init: 0.079 [ms]
[OGL LOG][Proc: 0]p_local_coeffs: call_update: 0 [ms]
[OGL LOG][Proc: 0]p_non_local_coeffs: call_update: 0 [ms]
[OGL LOG][Proc: 0]p: update_local_matrix_data: 31.578 [ms]
[OGL LOG][Proc: 0]p: update_non_local_matrix_data: 0.336 [ms]
[OGL LOG][Proc: 0]p_matrix: call_update: 2.586 [ms]
[OGL LOG][Proc: 0]p_rhs: call_update: 1.042 [ms]
[OGL LOG][Preconditioner.H:346] Generate preconditioner Multigrid MaxLevels 9 MinCoarseRows 10 ZeroGuess 1 Cycle v
[OGL LOG][Proc: 0]p: init_precond: 341.873 [ms]
[OGL LOG][StoppingCriterion.H:239] Creating stopping criterion with minIter 21 frequency 1
[OGL LOG][Proc: 0]p: generate_solver: 0.014 [ms]
[OGL LOG][Proc: 0]p: solve: 357.77 [ms]
[OGL LOG][Proc: 0]p: copy_x_back: 2.701 [ms]
[OGL LOG][lduLduBase.H:330] 
Statistics:
	Time per iteration: 10222 [mu s]
	Time per residual norm calculation: 1410.000000 [mu s]
	Time per iteration and DOF: 0.810352 [ns]
	Retrieve results bandwidth 3.119000 [GByte/s]
[OGL LOG][Proc: 0]p: solve_multi_gpu: 732.843 [ms]
MultigridcudaGKOCG:  Solving for p, Initial residual = 0.04499840427273704, Final residual = 0.0004315133992964023, No Iterations 35
time step continuity errors : sum local = 0.000331677655202046, global = -7.095254119195041e-05, cumulative = 0.0153147118194603
smoothSolver:  Solving for nuTilda, Initial residual = 0.00953658450000156, Final residual = 0.0008345443743295753, No Iterations 3
ExecutionTime = 518.08 s  ClockTime = 521 s

Time = 92

velocityDampingConstraint velocityDamping damped 0 (0%) of cells, with max limit 300
smoothSolver:  Solving for Ux, Initial residual = 0.002806832599555718, Final residual = 0.0002781442209857589, No Iterations 4
smoothSolver:  Solving for Uy, Initial residual = 0.01181345041891899, Final residual = 0.001173713658110557, No Iterations 4
smoothSolver:  Solving for Uz, Initial residual = 0.01318536381878774, Final residual = 0.001317450037960609, No Iterations 4
[OGL LOG][Proc: 0]: global_index_init: 0.056 [ms]
[OGL LOG][Proc: 0]p_local_coeffs: call_update: 0 [ms]
[OGL LOG][Proc: 0]p_non_local_coeffs: call_update: 0 [ms]
[OGL LOG][Proc: 0]p: update_local_matrix_data: 33.557 [ms]
[OGL LOG][Proc: 0]p: update_non_local_matrix_data: 0.333 [ms]
[OGL LOG][Proc: 0]p_matrix: call_update: 2.17 [ms]
[OGL LOG][Proc: 0]p_rhs: call_update: 1.194 [ms]
[OGL LOG][Preconditioner.H:346] Generate preconditioner Multigrid MaxLevels 9 MinCoarseRows 10 ZeroGuess 1 Cycle v
[OGL LOG][Proc: 0]p: init_precond: 334.074 [ms]
[OGL LOG][StoppingCriterion.H:239] Creating stopping criterion with minIter 21 frequency 1
[OGL LOG][Proc: 0]p: generate_solver: 0.008999999999999999 [ms]
[OGL LOG][Proc: 0]p: solve: 667.6319999999999 [ms]
[OGL LOG][Proc: 0]p: copy_x_back: 2.798 [ms]
[OGL LOG][lduLduBase.H:330] 
Statistics:
	Time per iteration: 10431 [mu s]
	Time per residual norm calculation: 976.000000 [mu s]
	Time per iteration and DOF: 0.826920 [ns]
	Retrieve results bandwidth 3.011000 [GByte/s]
[OGL LOG][Proc: 0]p: solve_multi_gpu: 1032.656 [ms]
MultigridcudaGKOCG:  Solving for p, Initial residual = 0.04583919012156817, Final residual = 0.0004337966414890135, No Iterations 64
time step continuity errors : sum local = 0.0003267293365861202, global = -1.611555557125737e-05, cumulative = 0.01529859626388905
smoothSolver:  Solving for nuTilda, Initial residual = 0.006400513760268231, Final residual = 0.0004764663298792313, No Iterations 4
ExecutionTime = 523.29 s  ClockTime = 526 s

Time = 93

velocityDampingConstraint velocityDamping damped 0 (0%) of cells, with max limit 300
smoothSolver:  Solving for Ux, Initial residual = 0.002813557731912918, Final residual = 0.0002780355895055997, No Iterations 4
smoothSolver:  Solving for Uy, Initial residual = 0.01182086446323862, Final residual = 0.00117281878885573, No Iterations 4
smoothSolver:  Solving for Uz, Initial residual = 0.01331102336504592, Final residual = 0.001330363357472048, No Iterations 4
[OGL LOG][Proc: 0]: global_index_init: 0.018 [ms]
[OGL LOG][Proc: 0]p_local_coeffs: call_update: 0 [ms]
[OGL LOG][Proc: 0]p_non_local_coeffs: call_update: 0 [ms]
[OGL LOG][Proc: 0]p: update_local_matrix_data: 31.26 [ms]
[OGL LOG][Proc: 0]p: update_non_local_matrix_data: 0.376 [ms]
[OGL LOG][Proc: 0]p_matrix: call_update: 2.754 [ms]
[OGL LOG][Proc: 0]p_rhs: call_update: 0.966 [ms]
[OGL LOG][Preconditioner.H:346] Generate preconditioner Multigrid MaxLevels 9 MinCoarseRows 10 ZeroGuess 1 Cycle v
[OGL LOG][Proc: 0]p: init_precond: 363.109 [ms]
[OGL LOG][StoppingCriterion.H:239] Creating stopping criterion with minIter 38 frequency 1
[OGL LOG][Proc: 0]p: generate_solver: 0.008999999999999999 [ms]
[OGL LOG][Proc: 0]p: solve: 384.011 [ms]
[OGL LOG][Proc: 0]p: copy_x_back: 2.728 [ms]
[OGL LOG][lduLduBase.H:330] 
Statistics:
	Time per iteration: 9846 [mu s]
	Time per residual norm calculation: 1279.000000 [mu s]
	Time per iteration and DOF: 0.780544 [ns]
	Retrieve results bandwidth 3.088000 [GByte/s]
[OGL LOG][Proc: 0]p: solve_multi_gpu: 780.409 [ms]
MultigridcudaGKOCG:  Solving for p, Initial residual = 0.04822002096071797, Final residual = 0.0003438162839649083, No Iterations 39
time step continuity errors : sum local = 0.0002402837471188646, global = 4.136859488967213e-05, cumulative = 0.01533996485877872
smoothSolver:  Solving for nuTilda, Initial residual = 0.009332218987770504, Final residual = 0.0008310166456064164, No Iterations 3
ExecutionTime = 528.2 s  ClockTime = 531 s

Time = 94

velocityDampingConstraint velocityDamping damped 0 (0%) of cells, with max limit 300
smoothSolver:  Solving for Ux, Initial residual = 0.002802223379723059, Final residual = 0.0002772107543782688, No Iterations 4
smoothSolver:  Solving for Uy, Initial residual = 0.01184143905226867, Final residual = 0.001172399824802823, No Iterations 4
smoothSolver:  Solving for Uz, Initial residual = 0.01341776127202963, Final residual = 0.001340028082034522, No Iterations 4
[OGL LOG][Proc: 0]: global_index_init: 0.022 [ms]
[OGL LOG][Proc: 0]p_local_coeffs: call_update: 0 [ms]
[OGL LOG][Proc: 0]p_non_local_coeffs: call_update: 0 [ms]
[OGL LOG][Proc: 0]p: update_local_matrix_data: 32.547 [ms]
[OGL LOG][Proc: 0]p: update_non_local_matrix_data: 0.393 [ms]
[OGL LOG][Proc: 0]p_matrix: call_update: 2.555 [ms]
[OGL LOG][Proc: 0]p_rhs: call_update: 0.927 [ms]
[OGL LOG][Preconditioner.H:346] Generate preconditioner Multigrid MaxLevels 9 MinCoarseRows 10 ZeroGuess 1 Cycle v
[OGL LOG][Proc: 0]p: init_precond: 357.234 [ms]
[OGL LOG][StoppingCriterion.H:239] Creating stopping criterion with minIter 23 frequency 1
[OGL LOG][Proc: 0]p: generate_solver: 0.008999999999999999 [ms]
[OGL LOG][Proc: 0]p: solve: 546.605 [ms]
[OGL LOG][Proc: 0]p: copy_x_back: 2.649 [ms]
[OGL LOG][lduLduBase.H:330] 
Statistics:
	Time per iteration: 10122 [mu s]
	Time per residual norm calculation: 1265.000000 [mu s]
	Time per iteration and DOF: 0.802424 [ns]
	Retrieve results bandwidth 3.180000 [GByte/s]
[OGL LOG][Proc: 0]p: solve_multi_gpu: 935.463 [ms]
MultigridcudaGKOCG:  Solving for p, Initial residual = 0.04754463151206256, Final residual = 0.0004748493655446939, No Iterations 54
time step continuity errors : sum local = 0.0003341767001413446, global = -1.331344237198141e-05, cumulative = 0.01532665141640674
smoothSolver:  Solving for nuTilda, Initial residual = 0.006344020121806379, Final residual = 0.0004736943173301355, No Iterations 4
ExecutionTime = 533.33 s  ClockTime = 536 s

Time = 95

velocityDampingConstraint velocityDamping damped 0 (0%) of cells, with max limit 300
smoothSolver:  Solving for Ux, Initial residual = 0.002802893733586685, Final residual = 0.0002759297793995659, No Iterations 4
smoothSolver:  Solving for Uy, Initial residual = 0.01186817034021395, Final residual = 0.001173835213727662, No Iterations 4
smoothSolver:  Solving for Uz, Initial residual = 0.01342540385090752, Final residual = 0.001339067133733443, No Iterations 4
[OGL LOG][Proc: 0]: global_index_init: 0.019 [ms]
[OGL LOG][Proc: 0]p_local_coeffs: call_update: 0 [ms]
[OGL LOG][Proc: 0]p_non_local_coeffs: call_update: 0 [ms]
[OGL LOG][Proc: 0]p: update_local_matrix_data: 31.284 [ms]
[OGL LOG][Proc: 0]p: update_non_local_matrix_data: 0.327 [ms]
[OGL LOG][Proc: 0]p_matrix: call_update: 2.36 [ms]
[OGL LOG][Proc: 0]p_rhs: call_update: 1.121 [ms]
[OGL LOG][Preconditioner.H:346] Generate preconditioner Multigrid MaxLevels 9 MinCoarseRows 10 ZeroGuess 1 Cycle v
[OGL LOG][Proc: 0]p: init_precond: 341.642 [ms]
[OGL LOG][StoppingCriterion.H:239] Creating stopping criterion with minIter 32 frequency 1
[OGL LOG][Proc: 0]p: generate_solver: 0.008999999999999999 [ms]
[OGL LOG][Proc: 0]p: solve: 347.563 [ms]
[OGL LOG][Proc: 0]p: copy_x_back: 2.736 [ms]
[OGL LOG][lduLduBase.H:330] 
Statistics:
	Time per iteration: 9930 [mu s]
	Time per residual norm calculation: 1418.000000 [mu s]
	Time per iteration and DOF: 0.787204 [ns]
	Retrieve results bandwidth 3.079000 [GByte/s]
[OGL LOG][Proc: 0]p: solve_multi_gpu: 722.968 [ms]
MultigridcudaGKOCG:  Solving for p, Initial residual = 0.04363585565241668, Final residual = 0.0004151764766876504, No Iterations 35
time step continuity errors : sum local = 0.0003150932370709724, global = 6.612415126186136e-05, cumulative = 0.0153927755676686
smoothSolver:  Solving for nuTilda, Initial residual = 0.009137222435209718, Final residual = 0.0008279430366743134, No Iterations 3
ExecutionTime = 538.2 s  ClockTime = 541 s

Time = 96

velocityDampingConstraint velocityDamping damped 0 (0%) of cells, with max limit 300
smoothSolver:  Solving for Ux, Initial residual = 0.002756238051312595, Final residual = 0.0002730959802184191, No Iterations 4
smoothSolver:  Solving for Uy, Initial residual = 0.01190348765699276, Final residual = 0.001176556810104703, No Iterations 4
smoothSolver:  Solving for Uz, Initial residual = 0.01339631363387136, Final residual = 0.001333168516457401, No Iterations 4
[OGL LOG][Proc: 0]: global_index_init: 0.167 [ms]
[OGL LOG][Proc: 0]p_local_coeffs: call_update: 0 [ms]
[OGL LOG][Proc: 0]p_non_local_coeffs: call_update: 0 [ms]
[OGL LOG][Proc: 0]p: update_local_matrix_data: 33.381 [ms]
[OGL LOG][Proc: 0]p: update_non_local_matrix_data: 0.329 [ms]
[OGL LOG][Proc: 0]p_matrix: call_update: 2.58 [ms]
[OGL LOG][Proc: 0]p_rhs: call_update: 0.875 [ms]
[OGL LOG][Preconditioner.H:346] Generate preconditioner Multigrid MaxLevels 9 MinCoarseRows 10 ZeroGuess 1 Cycle v
[OGL LOG][Proc: 0]p: init_precond: 361.13 [ms]
[OGL LOG][StoppingCriterion.H:239] Creating stopping criterion with minIter 21 frequency 1
[OGL LOG][Proc: 0]p: generate_solver: 0.008999999999999999 [ms]
[OGL LOG][Proc: 0]p: solve: 230.79 [ms]
[OGL LOG][Proc: 0]p: copy_x_back: 2.871 [ms]
[OGL LOG][lduLduBase.H:330] 
Statistics:
	Time per iteration: 10490 [mu s]
	Time per residual norm calculation: 1422.000000 [mu s]
	Time per iteration and DOF: 0.831598 [ns]
	Retrieve results bandwidth 2.934000 [GByte/s]
[OGL LOG][Proc: 0]p: solve_multi_gpu: 623.544 [ms]
MultigridcudaGKOCG:  Solving for p, Initial residual = 0.04361977138757375, Final residual = 0.0001857331782484271, No Iterations 22
time step continuity errors : sum local = 0.0001398520465799986, global = 2.625113811135228e-05, cumulative = 0.01541902670577995
smoothSolver:  Solving for nuTilda, Initial residual = 0.00628766567669852, Final residual = 0.0004714612700270841, No Iterations 4
ExecutionTime = 542.99 s  ClockTime = 546 s

Time = 97

velocityDampingConstraint velocityDamping damped 0 (0%) of cells, with max limit 300
smoothSolver:  Solving for Ux, Initial residual = 0.002758608455544467, Final residual = 0.0002716844752032669, No Iterations 4
smoothSolver:  Solving for Uy, Initial residual = 0.01194816176885673, Final residual = 0.001179814346198938, No Iterations 4
smoothSolver:  Solving for Uz, Initial residual = 0.01336744756617077, Final residual = 0.001326976098275778, No Iterations 4
[OGL LOG][Proc: 0]: global_index_init: 0.078 [ms]
[OGL LOG][Proc: 0]p_local_coeffs: call_update: 0 [ms]
[OGL LOG][Proc: 0]p_non_local_coeffs: call_update: 0 [ms]
[OGL LOG][Proc: 0]p: update_local_matrix_data: 32.003 [ms]
[OGL LOG][Proc: 0]p: update_non_local_matrix_data: 0.337 [ms]
[OGL LOG][Proc: 0]p_matrix: call_update: 2.701 [ms]
[OGL LOG][Proc: 0]p_rhs: call_update: 0.91 [ms]
[OGL LOG][Preconditioner.H:346] Generate preconditioner Multigrid MaxLevels 9 MinCoarseRows 10 ZeroGuess 1 Cycle v
[OGL LOG][Proc: 0]p: init_precond: 336.752 [ms]
[OGL LOG][StoppingCriterion.H:239] Creating stopping criterion with minIter 13 frequency 1
[OGL LOG][Proc: 0]p: generate_solver: 0.008 [ms]
[OGL LOG][Proc: 0]p: solve: 203.324 [ms]
[OGL LOG][Proc: 0]p: copy_x_back: 2.735 [ms]
[OGL LOG][lduLduBase.H:330] 
Statistics:
	Time per iteration: 11960 [mu s]
	Time per residual norm calculation: 1426.000000 [mu s]
	Time per iteration and DOF: 0.948132 [ns]
	Retrieve results bandwidth 3.080000 [GByte/s]
[OGL LOG][Proc: 0]p: solve_multi_gpu: 573.194 [ms]
MultigridcudaGKOCG:  Solving for p, Initial residual = 0.04306768844213323, Final residual = 0.0004252364669773387, No Iterations 17
time step continuity errors : sum local = 0.0003199764183893358, global = -3.326135973631903e-05, cumulative = 0.01538576534604363
smoothSolver:  Solving for nuTilda, Initial residual = 0.008950776648766133, Final residual = 0.0008254710665580609, No Iterations 3
ExecutionTime = 547.71 s  ClockTime = 550 s

Time = 98

velocityDampingConstraint velocityDamping damped 0 (0%) of cells, with max limit 300
smoothSolver:  Solving for Ux, Initial residual = 0.00272836544025761, Final residual = 0.0002697213002159818, No Iterations 4
smoothSolver:  Solving for Uy, Initial residual = 0.01199504384393659, Final residual = 0.001183676190729879, No Iterations 4
smoothSolver:  Solving for Uz, Initial residual = 0.01337232140481492, Final residual = 0.00132556710713986, No Iterations 4
[OGL LOG][Proc: 0]: global_index_init: 0.053 [ms]
[OGL LOG][Proc: 0]p_local_coeffs: call_update: 0 [ms]
[OGL LOG][Proc: 0]p_non_local_coeffs: call_update: 0 [ms]
[OGL LOG][Proc: 0]p: update_local_matrix_data: 32.118 [ms]
[OGL LOG][Proc: 0]p: update_non_local_matrix_data: 0.331 [ms]
[OGL LOG][Proc: 0]p_matrix: call_update: 2.495 [ms]
[OGL LOG][Proc: 0]p_rhs: call_update: 0.968 [ms]
[OGL LOG][Preconditioner.H:346] Generate preconditioner Multigrid MaxLevels 9 MinCoarseRows 10 ZeroGuess 1 Cycle v
[OGL LOG][Proc: 0]p: init_precond: 349.636 [ms]
[OGL LOG][StoppingCriterion.H:239] Creating stopping criterion with minIter 10 frequency 1
[OGL LOG][Proc: 0]p: generate_solver: 0.008999999999999999 [ms]
[OGL LOG][Proc: 0]p: solve: 713.1180000000001 [ms]
[OGL LOG][Proc: 0]p: copy_x_back: 2.795 [ms]
[OGL LOG][lduLduBase.H:330] 
Statistics:
	Time per iteration: 10187 [mu s]
	Time per residual norm calculation: 1420.000000 [mu s]
	Time per iteration and DOF: 0.807577 [ns]
	Retrieve results bandwidth 3.014000 [GByte/s]
[OGL LOG][Proc: 0]p: solve_multi_gpu: 1096.378 [ms]
MultigridcudaGKOCG:  Solving for p, Initial residual = 0.04282396231935145, Final residual = 0.000409073968112224, No Iterations 70
time step continuity errors : sum local = 0.0003074404002075205, global = -6.202985360230676e-06, cumulative = 0.0153795623606834
smoothSolver:  Solving for nuTilda, Initial residual = 0.006230006990212035, Final residual = 0.0004697716575693572, No Iterations 4
ExecutionTime = 553 s  ClockTime = 556 s

Time = 99

velocityDampingConstraint velocityDamping damped 0 (0%) of cells, with max limit 300
smoothSolver:  Solving for Ux, Initial residual = 0.002744577275318255, Final residual = 0.0002700076044503764, No Iterations 4
smoothSolver:  Solving for Uy, Initial residual = 0.0120368078587, Final residual = 0.001187384224479852, No Iterations 4
smoothSolver:  Solving for Uz, Initial residual = 0.01339861365193307, Final residual = 0.001326800226417341, No Iterations 4
[OGL LOG][Proc: 0]: global_index_init: 0.052 [ms]
[OGL LOG][Proc: 0]p_local_coeffs: call_update: 0 [ms]
[OGL LOG][Proc: 0]p_non_local_coeffs: call_update: 0 [ms]
[OGL LOG][Proc: 0]p: update_local_matrix_data: 30.922 [ms]
[OGL LOG][Proc: 0]p: update_non_local_matrix_data: 0.292 [ms]
[OGL LOG][Proc: 0]p_matrix: call_update: 2.461 [ms]
[OGL LOG][Proc: 0]p_rhs: call_update: 1.001 [ms]
[OGL LOG][Preconditioner.H:346] Generate preconditioner Multigrid MaxLevels 9 MinCoarseRows 10 ZeroGuess 1 Cycle v
[OGL LOG][Proc: 0]p: init_precond: 355.699 [ms]
[OGL LOG][StoppingCriterion.H:239] Creating stopping criterion with minIter 42 frequency 2
[OGL LOG][Proc: 0]p: generate_solver: 0.008999999999999999 [ms]
[OGL LOG][Proc: 0]p: solve: 415.238 [ms]
[OGL LOG][Proc: 0]p: copy_x_back: 2.664 [ms]
[OGL LOG][lduLduBase.H:330] 
Statistics:
	Time per iteration: 9656 [mu s]
	Time per residual norm calculation: 1275.000000 [mu s]
	Time per iteration and DOF: 0.765482 [ns]
	Retrieve results bandwidth 3.162000 [GByte/s]
[OGL LOG][Proc: 0]p: solve_multi_gpu: 804.884 [ms]
MultigridcudaGKOCG:  Solving for p, Initial residual = 0.04489791541111574, Final residual = 9.782216239175248e-05, No Iterations 43
time step continuity errors : sum local = 6.922474859089262e-05, global = 8.141529172259801e-06, cumulative = 0.01538770388985566
smoothSolver:  Solving for nuTilda, Initial residual = 0.008769398996922089, Final residual = 0.0008234315255498282, No Iterations 3
ExecutionTime = 557.9299999999999 s  ClockTime = 561 s

Time = 100

velocityDampingConstraint velocityDamping damped 0 (0%) of cells, with max limit 300
smoothSolver:  Solving for Ux, Initial residual = 0.002733852651062672, Final residual = 0.0002693322313075053, No Iterations 4
smoothSolver:  Solving for Uy, Initial residual = 0.01208586998185403, Final residual = 0.001192560434770594, No Iterations 4
smoothSolver:  Solving for Uz, Initial residual = 0.01341667068484988, Final residual = 0.001329038359640599, No Iterations 4
[OGL LOG][Proc: 0]: global_index_init: 0.321 [ms]
[OGL LOG][Proc: 0]p_local_coeffs: call_update: 0 [ms]
[OGL LOG][Proc: 0]p_non_local_coeffs: call_update: 0 [ms]
[OGL LOG][Proc: 0]p: update_local_matrix_data: 34.116 [ms]
[OGL LOG][Proc: 0]p: update_non_local_matrix_data: 0.344 [ms]
[OGL LOG][Proc: 0]p_matrix: call_update: 2.471 [ms]
[OGL LOG][Proc: 0]p_rhs: call_update: 0.968 [ms]
[OGL LOG][Preconditioner.H:346] Generate preconditioner Multigrid MaxLevels 9 MinCoarseRows 10 ZeroGuess 1 Cycle v
[OGL LOG][Proc: 0]p: init_precond: 330.767 [ms]
[OGL LOG][StoppingCriterion.H:239] Creating stopping criterion with minIter 25 frequency 1
[OGL LOG][Proc: 0]p: generate_solver: 0.008999999999999999 [ms]
[OGL LOG][Proc: 0]p: solve: 555.268 [ms]
[OGL LOG][Proc: 0]p: copy_x_back: 2.786 [ms]
[OGL LOG][lduLduBase.H:330] 
Statistics:
	Time per iteration: 10678 [mu s]
	Time per residual norm calculation: 1421.000000 [mu s]
	Time per iteration and DOF: 0.846501 [ns]
	Retrieve results bandwidth 3.024000 [GByte/s]
[OGL LOG][Proc: 0]p: solve_multi_gpu: 914.658 [ms]
MultigridcudaGKOCG:  Solving for p, Initial residual = 0.04450846396591091, Final residual = 0.0004424833329987968, No Iterations 52
time step continuity errors : sum local = 0.0003112126958397767, global = 2.121491257613185e-05, cumulative = 0.01540891880243179
smoothSolver:  Solving for nuTilda, Initial residual = 0.006168941611780113, Final residual = 0.0004686651667675526, No Iterations 4
ExecutionTime = 563.02 s  ClockTime = 566 s

End

Finalising parallel run
