/*---------------------------------------------------------------------------*\
| =========                 |                                                 |
| \\      /  F ield         | OpenFOAM: The Open Source CFD Toolbox           |
|  \\    /   O peration     | Version:  2306                                  |
|   \\  /    A nd           | Website:  www.openfoam.com                      |
|    \\/     M anipulation  |                                                 |
\*---------------------------------------------------------------------------*/
Build  : c423ebec-20231012 OPENFOAM=2306 version=v2306
Arch   : "LSB;label=32;scalar=64"
Exec   : icoFoam -parallel -case /hkfs/work/workspace/scratch/eq4036-l3d/workspace/05c724deb94a0327bbb1a0e811eb9920/case
Date   : Dec 30 2023
Time   : 09:52:45
Host   : hkn0810.localdomain
PID    : 1179103
I/O    : uncollated
Case   : /hkfs/work/workspace/scratch/eq4036-l3d/workspace/05c724deb94a0327bbb1a0e811eb9920/case
nProcs : 16
Hosts  :
(
    (hkn0810.localdomain 16)
)
Pstream initialized with:
    floatTransfer      : false
    nProcsSimpleSum    : 0
    nonBlockingExchange: 0 (tuning: 0)
    exchange algorithm : -1
    commsType          : nonBlocking
    polling iterations : 0
trapFpe: Floating point exception trapping enabled (FOAM_SIGFPE).
fileModificationChecking : Monitoring run-time modified files using timeStampMaster (fileModificationSkew 5, maxFileModificationPolls 20)
allowSystemOperations : Allowing user-supplied system call operations

// * * * * * * * * * * * * * * * * * * * * * * * * * * * * * * * * * * * * * //
Create time

--> FOAM Warning : 
    From void* Foam::dlLibraryTable::openLibrary(const Foam::fileName&, bool)
    in file db/dynamicLibrary/dlLibraryTable/dlLibraryTable.C at line 188
    Could not load "libpetscFoam.so"
libpetscFoam.so: cannot open shared object file: No such file or directory
Create mesh for time = 0


PISO: Operating solver in PISO mode

Reading transportProperties

Reading field p

Reading field U

Reading/calculating face flux field phi


Starting time loop

Time = 0.0005

Courant Number mean: 8.62851e-18 max: 8.67362e-15
[INFO] MatrixAssemblyU: 17.657 [ms]
DILUPBiCGStab:  Solving for Ux, Initial residual = 1, Final residual = 0.00283431, No Iterations 5
DILUPBiCGStab:  Solving for Uy:  solution singularity
DILUPBiCGStab:  Solving for Uz:  solution singularity
[INFO] MomentumPredictor: 51.926 [ms]
[INFO] MatrixAssemblyPI: 13.167 [ms]
[INFO] AdjustPhi: 0.74 [ms]
[INFO] ConstrainPressure: 0.004 [ms]
[INFO] MatrixAssemblyPII: 4.104 [ms]
[OGL LOG][lduLduBase.H:119] Initialising OGL
	OGL commit:  a2fc0ff+
	Branch: feat/on_device_permute 
	Build type: Release
	Ginkgo version: 1.7.0 ( develop)
	Ginkgo commit: sparse-communicator
	MPI is GPU aware: 1
	Forces host buffer based communication: 0
	CPU ranks per GPU: 1
	Matrix format: Ell
	End OGL_INFO
[OGL LOG][Proc: 0]: global_index_init: 0.497 [ms]
[OGL LOG][Proc: 0]p_local_cols: call_init: 1.194 [ms]
[OGL LOG][Proc: 0]p_local_rows: call_init: 0.499 [ms]
[OGL LOG][Proc: 0]p_local_ldu_map: call_init: 0.357 [ms]
[OGL LOG][Proc: 0]p_local_coeffs: call_init: 4.191 [ms]
[OGL LOG][Proc: 0]p_non_local_cols: call_init: 0.326 [ms]
[OGL LOG][Proc: 0]p_non_local_rows: call_init: 0.303 [ms]
[OGL LOG][Proc: 0]p_non_local_ldu_map: call_init: 0.256 [ms]
[OGL LOG][Proc: 0]p_non_local_coeffs: call_init: 0.126 [ms]
[OGL LOG][Proc: 0]p: init_local_sparsity_pattern: 18.472 [ms]
[OGL LOG][Proc: 0]p: init_non_local_sparsity_pattern: 0.389 [ms]
[OGL LOG][Proc: 0]p: update_local_matrix_data: 65.807 [ms]
[OGL LOG][Proc: 0]p: update_non_local_matrix_data: 0.063 [ms]
[OGL LOG][Proc: 0]device_partition: call_init: 0.066 [ms]
[OGL LOG][Proc: 0]p_matrix: call_init: 11.935 [ms]
[OGL LOG][Proc: 0]p_rhs: call_init: 0.51 [ms]
[OGL LOG][Proc: 0]p_solution: call_init: 0.687 [ms]
[OGL LOG][Preconditioner.H:271] Generate preconditioner GISAI SparsityPower 1
[OGL LOG][Proc: 0]p: init_precond: 59.599 [ms]
[OGL LOG][StoppingCriterion.H:237] Creating stopping criterion with minIter 0 frequency 1
[OGL LOG][Proc: 0]p: generate_solver: 0.011 [ms]
[OGL LOG][Proc: 0]p: solve: 4666.12 [ms]
[OGL LOG][Proc: 0]p: copy_x_back: 0.318 [ms]
[OGL LOG][lduLduBase.H:330] 
Statistics:
	Time per iteration: 10556 [mu s]
	Time per residual norm calculation: 5428.000000 [mu s]
	Time per iteration and DOF: 10.556000 [ns]
	Retrieve results bandwidth 1.572000 [GByte/s]
[OGL LOG][Proc: 0]p: solve_multi_gpu: 4739.97 [ms]
GISAIcudaGKOCG:  Solving for p, Initial residual = 1, Final residual = 9.04944e-05, No Iterations 442
[INFO] SolveP: 7877.77 [ms]
time step continuity errors : sum local = 1.94434e-08, global = -1.11425e-21, cumulative = -1.11425e-21
[INFO] ContinuityError: 2.082 [ms]
[INFO] CorrectBoundary: 0.187 [ms]
[INFO] PISOStep: 7904.73 [ms]
[INFO] MatrixAssemblyPI: 13.857 [ms]
[INFO] AdjustPhi: 0.499 [ms]
[INFO] ConstrainPressure: 0.002 [ms]
[INFO] MatrixAssemblyPII: 4.201 [ms]
[OGL LOG][Proc: 0]: global_index_init: 0.019 [ms]
[OGL LOG][Proc: 0]p_local_coeffs: call_update: 0.001 [ms]
[OGL LOG][Proc: 0]p_non_local_coeffs: call_update: 0 [ms]
[OGL LOG][Proc: 0]p: update_local_matrix_data: 5.549 [ms]
[OGL LOG][Proc: 0]p: update_non_local_matrix_data: 0.047 [ms]
[OGL LOG][Proc: 0]p: regenerate_distributed_matrix: 14.767 [ms]
[OGL LOG][Proc: 0]p_matrix: call_update: 15.972 [ms]
[OGL LOG][Proc: 0]p_rhs: call_update: 0.082 [ms]
[OGL LOG][Preconditioner.H:271] Generate preconditioner GISAI SparsityPower 1
[OGL LOG][Proc: 0]p: init_precond: 18.455 [ms]
[OGL LOG][StoppingCriterion.H:237] Creating stopping criterion with minIter 265 frequency 13
[OGL LOG][Proc: 0]p: generate_solver: 0.002 [ms]
[OGL LOG][Proc: 0]p: solve: 3559.15 [ms]
[OGL LOG][Proc: 0]p: copy_x_back: 0.367 [ms]
[OGL LOG][lduLduBase.H:330] 
Statistics:
	Time per iteration: 8034 [mu s]
	Time per residual norm calculation: 2149.000000 [mu s]
	Time per iteration and DOF: 8.034000 [ns]
	Retrieve results bandwidth 1.362000 [GByte/s]
[OGL LOG][Proc: 0]p: solve_multi_gpu: 3596.69 [ms]
GISAIcudaGKOCG:  Solving for p, Initial residual = 0.731153, Final residual = 6.98172e-05, No Iterations 443
[INFO] SolveP: 3603.32 [ms]
time step continuity errors : sum local = 1.98071e-08, global = 1.2766e-21, cumulative = 1.62347e-22
[INFO] ContinuityError: 1.504 [ms]
[INFO] CorrectBoundary: 0.088 [ms]
[INFO] PISOStep: 3630.68 [ms]
[INFO] TimeStep: 11607.4 [ms]
ExecutionTime = 9.55 s  ClockTime = 11 s

Time = 0.001

Courant Number mean: 0.0215183 max: 0.377124
[INFO] MatrixAssemblyU: 13.296 [ms]
DILUPBiCGStab:  Solving for Ux, Initial residual = 0.150307, Final residual = 0.00127596, No Iterations 5
DILUPBiCGStab:  Solving for Uy, Initial residual = 0.36827, Final residual = 0.00250957, No Iterations 5
DILUPBiCGStab:  Solving for Uz, Initial residual = 0.986408, Final residual = 0.00613377, No Iterations 5
[INFO] MomentumPredictor: 90.731 [ms]
[INFO] MatrixAssemblyPI: 12.855 [ms]
[INFO] AdjustPhi: 0.49 [ms]
[INFO] ConstrainPressure: 0.001 [ms]
[INFO] MatrixAssemblyPII: 3.991 [ms]
[OGL LOG][Proc: 0]: global_index_init: 0.012 [ms]
[OGL LOG][Proc: 0]p_local_coeffs: call_update: 0 [ms]
[OGL LOG][Proc: 0]p_non_local_coeffs: call_update: 0 [ms]
[OGL LOG][Proc: 0]p: update_local_matrix_data: 4.729 [ms]
[OGL LOG][Proc: 0]p: update_non_local_matrix_data: 0.052 [ms]
[OGL LOG][Proc: 0]p: regenerate_distributed_matrix: 11.407 [ms]
[OGL LOG][Proc: 0]p_matrix: call_update: 12.303 [ms]
[OGL LOG][Proc: 0]p_rhs: call_update: 0.428 [ms]
[OGL LOG][Preconditioner.H:271] Generate preconditioner GISAI SparsityPower 1
[OGL LOG][Proc: 0]p: init_precond: 18.314 [ms]
[OGL LOG][StoppingCriterion.H:237] Creating stopping criterion with minIter 265 frequency 7
[OGL LOG][Proc: 0]p: generate_solver: 0.001 [ms]
[OGL LOG][Proc: 0]p: solve: 3580.01 [ms]
[OGL LOG][Proc: 0]p: copy_x_back: 0.31 [ms]
[OGL LOG][lduLduBase.H:330] 
Statistics:
	Time per iteration: 8099 [mu s]
	Time per residual norm calculation: 2447.000000 [mu s]
	Time per iteration and DOF: 8.099000 [ns]
	Retrieve results bandwidth 1.612000 [GByte/s]
[OGL LOG][Proc: 0]p: solve_multi_gpu: 3614.93 [ms]
GISAIcudaGKOCG:  Solving for p, Initial residual = 0.691541, Final residual = 5.85552e-05, No Iterations 442
[INFO] SolveP: 3620.58 [ms]
time step continuity errors : sum local = 1.86351e-08, global = 3.16629e-21, cumulative = 3.32864e-21
[INFO] ContinuityError: 1.586 [ms]
[INFO] CorrectBoundary: 0.079 [ms]
[INFO] PISOStep: 3646.86 [ms]
[INFO] MatrixAssemblyPI: 13.067 [ms]
[INFO] AdjustPhi: 0.65 [ms]
[INFO] ConstrainPressure: 0.002 [ms]
[INFO] MatrixAssemblyPII: 4.443 [ms]
[OGL LOG][Proc: 0]: global_index_init: 0.013 [ms]
[OGL LOG][Proc: 0]p_local_coeffs: call_update: 0 [ms]
[OGL LOG][Proc: 0]p_non_local_coeffs: call_update: 0 [ms]
[OGL LOG][Proc: 0]p: update_local_matrix_data: 3.853 [ms]
[OGL LOG][Proc: 0]p: update_non_local_matrix_data: 0.054 [ms]
[OGL LOG][Proc: 0]p: regenerate_distributed_matrix: 11.311 [ms]
[OGL LOG][Proc: 0]p_matrix: call_update: 11.837 [ms]
[OGL LOG][Proc: 0]p_rhs: call_update: 1.075 [ms]
[OGL LOG][Preconditioner.H:271] Generate preconditioner GISAI SparsityPower 1
[OGL LOG][Proc: 0]p: init_precond: 18.288 [ms]
[OGL LOG][StoppingCriterion.H:237] Creating stopping criterion with minIter 265 frequency 7
[OGL LOG][Proc: 0]p: generate_solver: 0.001 [ms]
[OGL LOG][Proc: 0]p: solve: 3578.52 [ms]
[OGL LOG][Proc: 0]p: copy_x_back: 0.357 [ms]
[OGL LOG][lduLduBase.H:330] 
Statistics:
	Time per iteration: 8096 [mu s]
	Time per residual norm calculation: 2447.000000 [mu s]
	Time per iteration and DOF: 8.096000 [ns]
	Retrieve results bandwidth 1.400000 [GByte/s]
[OGL LOG][Proc: 0]p: solve_multi_gpu: 3614.39 [ms]
GISAIcudaGKOCG:  Solving for p, Initial residual = 0.620723, Final residual = 4.80779e-05, No Iterations 442
[INFO] SolveP: 3619.17 [ms]
time step continuity errors : sum local = 1.56056e-08, global = 1.17523e-21, cumulative = 4.50387e-21
[INFO] ContinuityError: 1.909 [ms]
[INFO] CorrectBoundary: 0.081 [ms]
[INFO] PISOStep: 3646.41 [ms]
[INFO] TimeStep: 7399.3 [ms]
ExecutionTime = 16.93 s  ClockTime = 19 s

Time = 0.0015

Courant Number mean: 0.0324765 max: 0.441238
[INFO] MatrixAssemblyU: 13.446 [ms]
DILUPBiCGStab:  Solving for Ux, Initial residual = 0.0531236, Final residual = 0.000379596, No Iterations 5
DILUPBiCGStab:  Solving for Uy, Initial residual = 0.124767, Final residual = 0.000649533, No Iterations 5
DILUPBiCGStab:  Solving for Uz, Initial residual = 0.580429, Final residual = 0.00342725, No Iterations 5
[INFO] MomentumPredictor: 90.895 [ms]
[INFO] MatrixAssemblyPI: 12.769 [ms]
[INFO] AdjustPhi: 0.552 [ms]
[INFO] ConstrainPressure: 0.002 [ms]
[INFO] MatrixAssemblyPII: 4.098 [ms]
[OGL LOG][Proc: 0]: global_index_init: 0.028 [ms]
[OGL LOG][Proc: 0]p_local_coeffs: call_update: 0 [ms]
[OGL LOG][Proc: 0]p_non_local_coeffs: call_update: 0 [ms]
[OGL LOG][Proc: 0]p: update_local_matrix_data: 5.312 [ms]
[OGL LOG][Proc: 0]p: update_non_local_matrix_data: 0.051 [ms]
[OGL LOG][Proc: 0]p: regenerate_distributed_matrix: 12.468 [ms]
[OGL LOG][Proc: 0]p_matrix: call_update: 13.447 [ms]
[OGL LOG][Proc: 0]p_rhs: call_update: 0.148 [ms]
[OGL LOG][Preconditioner.H:271] Generate preconditioner GISAI SparsityPower 1
[OGL LOG][Proc: 0]p: init_precond: 18.03 [ms]
[OGL LOG][StoppingCriterion.H:237] Creating stopping criterion with minIter 265 frequency 7
[OGL LOG][Proc: 0]p: generate_solver: 0.001 [ms]
[OGL LOG][Proc: 0]p: solve: 3512.22 [ms]
[OGL LOG][Proc: 0]p: copy_x_back: 0.349 [ms]
[OGL LOG][lduLduBase.H:330] 
Statistics:
	Time per iteration: 8074 [mu s]
	Time per residual norm calculation: 2748.000000 [mu s]
	Time per iteration and DOF: 8.074000 [ns]
	Retrieve results bandwidth 1.432000 [GByte/s]
[OGL LOG][Proc: 0]p: solve_multi_gpu: 3547.22 [ms]
GISAIcudaGKOCG:  Solving for p, Initial residual = 0.633175, Final residual = 7.85468e-05, No Iterations 435
[INFO] SolveP: 3553.47 [ms]
time step continuity errors : sum local = 1.80238e-08, global = 6.60226e-21, cumulative = 1.11061e-20
[INFO] ContinuityError: 1.977 [ms]
[INFO] CorrectBoundary: 0.167 [ms]
[INFO] PISOStep: 3579.97 [ms]
[INFO] MatrixAssemblyPI: 13.323 [ms]
[INFO] AdjustPhi: 0.6 [ms]
[INFO] ConstrainPressure: 0.002 [ms]
[INFO] MatrixAssemblyPII: 4.476 [ms]
[OGL LOG][Proc: 0]: global_index_init: 0.012 [ms]
[OGL LOG][Proc: 0]p_local_coeffs: call_update: 0 [ms]
[OGL LOG][Proc: 0]p_non_local_coeffs: call_update: 0 [ms]
[OGL LOG][Proc: 0]p: update_local_matrix_data: 4.68 [ms]
[OGL LOG][Proc: 0]p: update_non_local_matrix_data: 0.051 [ms]
[OGL LOG][Proc: 0]p: regenerate_distributed_matrix: 12.826 [ms]
[OGL LOG][Proc: 0]p_matrix: call_update: 14.069 [ms]
[OGL LOG][Proc: 0]p_rhs: call_update: 0.079 [ms]
[OGL LOG][Preconditioner.H:271] Generate preconditioner GISAI SparsityPower 1
[OGL LOG][Proc: 0]p: init_precond: 18.478 [ms]
[OGL LOG][StoppingCriterion.H:237] Creating stopping criterion with minIter 261 frequency 9
[OGL LOG][Proc: 0]p: generate_solver: 0.001 [ms]
[OGL LOG][Proc: 0]p: solve: 3484.65 [ms]
[OGL LOG][Proc: 0]p: copy_x_back: 0.405 [ms]
[OGL LOG][lduLduBase.H:330] 
Statistics:
	Time per iteration: 8047 [mu s]
	Time per residual norm calculation: 2162.000000 [mu s]
	Time per iteration and DOF: 8.047000 [ns]
	Retrieve results bandwidth 1.234000 [GByte/s]
[OGL LOG][Proc: 0]p: solve_multi_gpu: 3521.15 [ms]
GISAIcudaGKOCG:  Solving for p, Initial residual = 0.580489, Final residual = 9.29792e-05, No Iterations 433
[INFO] SolveP: 3526.8 [ms]
time step continuity errors : sum local = 2.07698e-08, global = 2.45775e-21, cumulative = 1.35639e-20
[INFO] ContinuityError: 2.143 [ms]
[INFO] CorrectBoundary: 0.079 [ms]
[INFO] PISOStep: 3554.65 [ms]
[INFO] TimeStep: 7240.88 [ms]
ExecutionTime = 24.16 s  ClockTime = 26 s

Time = 0.002

Courant Number mean: 0.0388747 max: 0.452918
[INFO] MatrixAssemblyU: 13.964 [ms]
DILUPBiCGStab:  Solving for Ux, Initial residual = 0.0319118, Final residual = 0.000197606, No Iterations 5
DILUPBiCGStab:  Solving for Uy, Initial residual = 0.0814152, Final residual = 0.00042916, No Iterations 5
DILUPBiCGStab:  Solving for Uz, Initial residual = 0.278851, Final residual = 0.00130067, No Iterations 5
[INFO] MomentumPredictor: 96.713 [ms]
[INFO] MatrixAssemblyPI: 12.734 [ms]
[INFO] AdjustPhi: 2.417 [ms]
[INFO] ConstrainPressure: 0.002 [ms]
[INFO] MatrixAssemblyPII: 4.05 [ms]
[OGL LOG][Proc: 0]: global_index_init: 0.022 [ms]
[OGL LOG][Proc: 0]p_local_coeffs: call_update: 0 [ms]
[OGL LOG][Proc: 0]p_non_local_coeffs: call_update: 0 [ms]
[OGL LOG][Proc: 0]p: update_local_matrix_data: 3.86 [ms]
[OGL LOG][Proc: 0]p: update_non_local_matrix_data: 0.053 [ms]
[OGL LOG][Proc: 0]p: regenerate_distributed_matrix: 13.553 [ms]
[OGL LOG][Proc: 0]p_matrix: call_update: 14.582 [ms]
[OGL LOG][Proc: 0]p_rhs: call_update: 0.41 [ms]
[OGL LOG][Preconditioner.H:271] Generate preconditioner GISAI SparsityPower 1
[OGL LOG][Proc: 0]p: init_precond: 18.235 [ms]
[OGL LOG][StoppingCriterion.H:237] Creating stopping criterion with minIter 259 frequency 7
[OGL LOG][Proc: 0]p: generate_solver: 0.001 [ms]
[OGL LOG][Proc: 0]p: solve: 3447.8 [ms]
[OGL LOG][Proc: 0]p: copy_x_back: 0.164 [ms]
[OGL LOG][lduLduBase.H:330] 
Statistics:
	Time per iteration: 8055 [mu s]
	Time per residual norm calculation: 2752.000000 [mu s]
	Time per iteration and DOF: 8.055000 [ns]
	Retrieve results bandwidth 3.048000 [GByte/s]
[OGL LOG][Proc: 0]p: solve_multi_gpu: 3485.64 [ms]
GISAIcudaGKOCG:  Solving for p, Initial residual = 0.413239, Final residual = 9.93461e-05, No Iterations 428
[INFO] SolveP: 3490.63 [ms]
time step continuity errors : sum local = 1.94577e-08, global = 1.0312e-21, cumulative = 1.45951e-20
[INFO] ContinuityError: 2.47 [ms]
[INFO] CorrectBoundary: 0.473 [ms]
[INFO] PISOStep: 3518.44 [ms]
[INFO] MatrixAssemblyPI: 12.798 [ms]
[INFO] AdjustPhi: 1.034 [ms]
[INFO] ConstrainPressure: 0.002 [ms]
[INFO] MatrixAssemblyPII: 3.777 [ms]
[OGL LOG][Proc: 0]: global_index_init: 0.019 [ms]
[OGL LOG][Proc: 0]p_local_coeffs: call_update: 0 [ms]
[OGL LOG][Proc: 0]p_non_local_coeffs: call_update: 0 [ms]
[OGL LOG][Proc: 0]p: update_local_matrix_data: 3.211 [ms]
[OGL LOG][Proc: 0]p: update_non_local_matrix_data: 0.036 [ms]
[OGL LOG][Proc: 0]p: regenerate_distributed_matrix: 11.053 [ms]
[OGL LOG][Proc: 0]p_matrix: call_update: 11.945 [ms]
[OGL LOG][Proc: 0]p_rhs: call_update: 0.438 [ms]
[OGL LOG][Preconditioner.H:271] Generate preconditioner GISAI SparsityPower 1
[OGL LOG][Proc: 0]p: init_precond: 18.442 [ms]
[OGL LOG][StoppingCriterion.H:237] Creating stopping criterion with minIter 256 frequency 9
[OGL LOG][Proc: 0]p: generate_solver: 0.001 [ms]
[OGL LOG][Proc: 0]p: solve: 3411.09 [ms]
[OGL LOG][Proc: 0]p: copy_x_back: 0.364 [ms]
[OGL LOG][lduLduBase.H:330] 
Statistics:
	Time per iteration: 8045 [mu s]
	Time per residual norm calculation: 2744.000000 [mu s]
	Time per iteration and DOF: 8.045000 [ns]
	Retrieve results bandwidth 1.373000 [GByte/s]
[OGL LOG][Proc: 0]p: solve_multi_gpu: 3447.22 [ms]
GISAIcudaGKOCG:  Solving for p, Initial residual = 0.351329, Final residual = 8.74307e-05, No Iterations 424
[INFO] SolveP: 3451.35 [ms]
time step continuity errors : sum local = 1.72949e-08, global = -2.27056e-21, cumulative = 1.23245e-20
[INFO] ContinuityError: 2.417 [ms]
[INFO] CorrectBoundary: 0.08 [ms]
[INFO] PISOStep: 3479.24 [ms]
[INFO] TimeStep: 7110.37 [ms]
ExecutionTime = 31.26 s  ClockTime = 33 s

Time = 0.0025

Courant Number mean: 0.0439263 max: 0.459604
[INFO] MatrixAssemblyU: 13.182 [ms]
DILUPBiCGStab:  Solving for Ux, Initial residual = 0.0235193, Final residual = 0.000127014, No Iterations 5
DILUPBiCGStab:  Solving for Uy, Initial residual = 0.051557, Final residual = 0.00025919, No Iterations 5
DILUPBiCGStab:  Solving for Uz, Initial residual = 0.0998147, Final residual = 0.000509731, No Iterations 5
[INFO] MomentumPredictor: 92.287 [ms]
[INFO] MatrixAssemblyPI: 12.665 [ms]
[INFO] AdjustPhi: 0.681 [ms]
[INFO] ConstrainPressure: 0.001 [ms]
[INFO] MatrixAssemblyPII: 3.949 [ms]
[OGL LOG][Proc: 0]: global_index_init: 0.022 [ms]
[OGL LOG][Proc: 0]p_local_coeffs: call_update: 0 [ms]
[OGL LOG][Proc: 0]p_non_local_coeffs: call_update: 0 [ms]
[OGL LOG][Proc: 0]p: update_local_matrix_data: 4.894 [ms]
[OGL LOG][Proc: 0]p: update_non_local_matrix_data: 0.05 [ms]
[OGL LOG][Proc: 0]p: regenerate_distributed_matrix: 12.456 [ms]
[OGL LOG][Proc: 0]p_matrix: call_update: 13.361 [ms]
[OGL LOG][Proc: 0]p_rhs: call_update: 0.458 [ms]
[OGL LOG][Preconditioner.H:271] Generate preconditioner GISAI SparsityPower 1
[OGL LOG][Proc: 0]p: init_precond: 18.476 [ms]
[OGL LOG][StoppingCriterion.H:237] Creating stopping criterion with minIter 254 frequency 9
[OGL LOG][Proc: 0]p: generate_solver: 0.001 [ms]
[OGL LOG][Proc: 0]p: solve: 3338.02 [ms]
[OGL LOG][Proc: 0]p: copy_x_back: 0.162 [ms]
[OGL LOG][lduLduBase.H:330] 
Statistics:
	Time per iteration: 8043 [mu s]
	Time per residual norm calculation: 2433.000000 [mu s]
	Time per iteration and DOF: 8.043000 [ns]
	Retrieve results bandwidth 3.086000 [GByte/s]
[OGL LOG][Proc: 0]p: solve_multi_gpu: 3373.66 [ms]
GISAIcudaGKOCG:  Solving for p, Initial residual = 0.315479, Final residual = 7.3075e-05, No Iterations 415
[INFO] SolveP: 3379.3 [ms]
time step continuity errors : sum local = 1.18133e-08, global = 4.31645e-21, cumulative = 1.6641e-20
[INFO] ContinuityError: 2.722 [ms]
[INFO] CorrectBoundary: 0.827 [ms]
[INFO] PISOStep: 3405.05 [ms]
[INFO] MatrixAssemblyPI: 12.06 [ms]
[INFO] AdjustPhi: 1.814 [ms]
[INFO] ConstrainPressure: 0.002 [ms]
[INFO] MatrixAssemblyPII: 3.775 [ms]
[OGL LOG][Proc: 0]: global_index_init: 0.008 [ms]
[OGL LOG][Proc: 0]p_local_coeffs: call_update: 0 [ms]
[OGL LOG][Proc: 0]p_non_local_coeffs: call_update: 0 [ms]
[OGL LOG][Proc: 0]p: update_local_matrix_data: 4.936 [ms]
[OGL LOG][Proc: 0]p: update_non_local_matrix_data: 0.041 [ms]
[OGL LOG][Proc: 0]p: regenerate_distributed_matrix: 10.831 [ms]
[OGL LOG][Proc: 0]p_matrix: call_update: 12.092 [ms]
[OGL LOG][Proc: 0]p_rhs: call_update: 0.236 [ms]
[OGL LOG][Preconditioner.H:271] Generate preconditioner GISAI SparsityPower 1
[OGL LOG][Proc: 0]p: init_precond: 16.403 [ms]
[OGL LOG][StoppingCriterion.H:237] Creating stopping criterion with minIter 249 frequency 7
[OGL LOG][Proc: 0]p: generate_solver: 0.001 [ms]
[OGL LOG][Proc: 0]p: solve: 3356.08 [ms]
[OGL LOG][Proc: 0]p: copy_x_back: 0.174 [ms]
[OGL LOG][lduLduBase.H:330] 
Statistics:
	Time per iteration: 8106 [mu s]
	Time per residual norm calculation: 2150.000000 [mu s]
	Time per iteration and DOF: 8.106000 [ns]
	Retrieve results bandwidth 2.873000 [GByte/s]
[OGL LOG][Proc: 0]p: solve_multi_gpu: 3387.29 [ms]
GISAIcudaGKOCG:  Solving for p, Initial residual = 0.269914, Final residual = 7.92442e-05, No Iterations 414
[INFO] SolveP: 3393.26 [ms]
time step continuity errors : sum local = 1.27151e-08, global = -4.74336e-22, cumulative = 1.61666e-20
[INFO] ContinuityError: 3.307 [ms]
[INFO] CorrectBoundary: 0.975 [ms]
[INFO] PISOStep: 3421.25 [ms]
[INFO] TimeStep: 6935.02 [ms]
ExecutionTime = 38.18 s  ClockTime = 40 s

Time = 0.003

Courant Number mean: 0.0479663 max: 0.463844
[INFO] MatrixAssemblyU: 11.522 [ms]
DILUPBiCGStab:  Solving for Ux, Initial residual = 0.017899, Final residual = 9.39215e-05, No Iterations 5
DILUPBiCGStab:  Solving for Uy, Initial residual = 0.040157, Final residual = 0.000138746, No Iterations 5
DILUPBiCGStab:  Solving for Uz, Initial residual = 0.0868494, Final residual = 0.000417404, No Iterations 5
[INFO] MomentumPredictor: 93.025 [ms]
[INFO] MatrixAssemblyPI: 12.585 [ms]
[INFO] AdjustPhi: 0.594 [ms]
[INFO] ConstrainPressure: 0.002 [ms]
[INFO] MatrixAssemblyPII: 3.921 [ms]
[OGL LOG][Proc: 0]: global_index_init: 0.04 [ms]
[OGL LOG][Proc: 0]p_local_coeffs: call_update: 0 [ms]
[OGL LOG][Proc: 0]p_non_local_coeffs: call_update: 0 [ms]
[OGL LOG][Proc: 0]p: update_local_matrix_data: 4.381 [ms]
[OGL LOG][Proc: 0]p: update_non_local_matrix_data: 0.036 [ms]
[OGL LOG][Proc: 0]p: regenerate_distributed_matrix: 12.533 [ms]
[OGL LOG][Proc: 0]p_matrix: call_update: 13.499 [ms]
[OGL LOG][Proc: 0]p_rhs: call_update: 0.283 [ms]
[OGL LOG][Preconditioner.H:271] Generate preconditioner GISAI SparsityPower 1
[OGL LOG][Proc: 0]p: init_precond: 18.483 [ms]
[OGL LOG][StoppingCriterion.H:237] Creating stopping criterion with minIter 248 frequency 7
[OGL LOG][Proc: 0]p: generate_solver: 0.001 [ms]
[OGL LOG][Proc: 0]p: solve: 3291.49 [ms]
[OGL LOG][Proc: 0]p: copy_x_back: 0.165 [ms]
[OGL LOG][lduLduBase.H:330] 
Statistics:
	Time per iteration: 8087 [mu s]
	Time per residual norm calculation: 2745.000000 [mu s]
	Time per iteration and DOF: 8.087000 [ns]
	Retrieve results bandwidth 3.030000 [GByte/s]
[OGL LOG][Proc: 0]p: solve_multi_gpu: 3327.26 [ms]
GISAIcudaGKOCG:  Solving for p, Initial residual = 0.197209, Final residual = 8.45548e-05, No Iterations 407
[INFO] SolveP: 3332.58 [ms]
time step continuity errors : sum local = 1.31907e-08, global = -8.63491e-21, cumulative = 7.53172e-21
[INFO] ContinuityError: 2.477 [ms]
[INFO] CorrectBoundary: 0.507 [ms]
[INFO] PISOStep: 3358.3 [ms]
[INFO] MatrixAssemblyPI: 12.573 [ms]
[INFO] AdjustPhi: 0.917 [ms]
[INFO] ConstrainPressure: 0.002 [ms]
[INFO] MatrixAssemblyPII: 3.861 [ms]
[OGL LOG][Proc: 0]: global_index_init: 0.033 [ms]
[OGL LOG][Proc: 0]p_local_coeffs: call_update: 0 [ms]
[OGL LOG][Proc: 0]p_non_local_coeffs: call_update: 0 [ms]
[OGL LOG][Proc: 0]p: update_local_matrix_data: 3.63 [ms]
[OGL LOG][Proc: 0]p: update_non_local_matrix_data: 0.037 [ms]
[OGL LOG][Proc: 0]p: regenerate_distributed_matrix: 10.915 [ms]
[OGL LOG][Proc: 0]p_matrix: call_update: 11.699 [ms]
[OGL LOG][Proc: 0]p_rhs: call_update: 0.612 [ms]
[OGL LOG][Preconditioner.H:271] Generate preconditioner GISAI SparsityPower 1
[OGL LOG][Proc: 0]p: init_precond: 18.209 [ms]
[OGL LOG][StoppingCriterion.H:237] Creating stopping criterion with minIter 244 frequency 9
[OGL LOG][Proc: 0]p: generate_solver: 0.001 [ms]
[OGL LOG][Proc: 0]p: solve: 3276.29 [ms]
[OGL LOG][Proc: 0]p: copy_x_back: 0.373 [ms]
[OGL LOG][lduLduBase.H:330] 
Statistics:
	Time per iteration: 8069 [mu s]
	Time per residual norm calculation: 2453.000000 [mu s]
	Time per iteration and DOF: 8.069000 [ns]
	Retrieve results bandwidth 1.340000 [GByte/s]
[OGL LOG][Proc: 0]p: solve_multi_gpu: 3311.27 [ms]
GISAIcudaGKOCG:  Solving for p, Initial residual = 0.163974, Final residual = 8.15606e-05, No Iterations 406
[INFO] SolveP: 3315.78 [ms]
time step continuity errors : sum local = 1.27355e-08, global = -7.30375e-21, cumulative = 2.27972e-22
[INFO] ContinuityError: 1.346 [ms]
[INFO] CorrectBoundary: 0.074 [ms]
[INFO] PISOStep: 3342.14 [ms]
[INFO] TimeStep: 6806.77 [ms]
ExecutionTime = 44.98 s  ClockTime = 47 s

Time = 0.0035

Courant Number mean: 0.0513754 max: 0.466723
[INFO] MatrixAssemblyU: 14.188 [ms]
DILUPBiCGStab:  Solving for Ux, Initial residual = 0.0146425, Final residual = 6.72232e-05, No Iterations 5
DILUPBiCGStab:  Solving for Uy, Initial residual = 0.0317848, Final residual = 0.000119696, No Iterations 5
DILUPBiCGStab:  Solving for Uz, Initial residual = 0.0572376, Final residual = 0.000252954, No Iterations 5
[INFO] MomentumPredictor: 92.686 [ms]
[INFO] MatrixAssemblyPI: 12.592 [ms]
[INFO] AdjustPhi: 1.902 [ms]
[INFO] ConstrainPressure: 0.002 [ms]
[INFO] MatrixAssemblyPII: 3.902 [ms]
[OGL LOG][Proc: 0]: global_index_init: 0.015 [ms]
[OGL LOG][Proc: 0]p_local_coeffs: call_update: 0 [ms]
[OGL LOG][Proc: 0]p_non_local_coeffs: call_update: 0 [ms]
[OGL LOG][Proc: 0]p: update_local_matrix_data: 4.914 [ms]
[OGL LOG][Proc: 0]p: update_non_local_matrix_data: 0.05 [ms]
[OGL LOG][Proc: 0]p: regenerate_distributed_matrix: 11.886 [ms]
[OGL LOG][Proc: 0]p_matrix: call_update: 12.944 [ms]
[OGL LOG][Proc: 0]p_rhs: call_update: 0.34 [ms]
[OGL LOG][Preconditioner.H:271] Generate preconditioner GISAI SparsityPower 1
[OGL LOG][Proc: 0]p: init_precond: 18.592 [ms]
[OGL LOG][StoppingCriterion.H:237] Creating stopping criterion with minIter 243 frequency 7
[OGL LOG][Proc: 0]p: generate_solver: 0.001 [ms]
[OGL LOG][Proc: 0]p: solve: 1962.36 [ms]
[OGL LOG][Proc: 0]p: copy_x_back: 0.161 [ms]
[OGL LOG][lduLduBase.H:330] 
Statistics:
	Time per iteration: 7977 [mu s]
	Time per residual norm calculation: 2448.000000 [mu s]
	Time per iteration and DOF: 7.977000 [ns]
	Retrieve results bandwidth 3.105000 [GByte/s]
[OGL LOG][Proc: 0]p: solve_multi_gpu: 1997.07 [ms]
GISAIcudaGKOCG:  Solving for p, Initial residual = 0.139505, Final residual = 8.5162e-05, No Iterations 246
[INFO] SolveP: 2002.97 [ms]
time step continuity errors : sum local = 1.39072e-08, global = -2.94394e-21, cumulative = -2.71596e-21
[INFO] ContinuityError: 2.44 [ms]
[INFO] CorrectBoundary: 0.495 [ms]
[INFO] PISOStep: 2030.06 [ms]
[INFO] MatrixAssemblyPI: 12.235 [ms]
[INFO] AdjustPhi: 0.937 [ms]
[INFO] ConstrainPressure: 0.002 [ms]
[INFO] MatrixAssemblyPII: 4.045 [ms]
[OGL LOG][Proc: 0]: global_index_init: 0.024 [ms]
[OGL LOG][Proc: 0]p_local_coeffs: call_update: 0 [ms]
[OGL LOG][Proc: 0]p_non_local_coeffs: call_update: 0 [ms]
[OGL LOG][Proc: 0]p: update_local_matrix_data: 4.597 [ms]
[OGL LOG][Proc: 0]p: update_non_local_matrix_data: 0.035 [ms]
[OGL LOG][Proc: 0]p: regenerate_distributed_matrix: 11.121 [ms]
[OGL LOG][Proc: 0]p_matrix: call_update: 12.267 [ms]
[OGL LOG][Proc: 0]p_rhs: call_update: 0.091 [ms]
[OGL LOG][Preconditioner.H:271] Generate preconditioner GISAI SparsityPower 1
[OGL LOG][Proc: 0]p: init_precond: 18.208 [ms]
[OGL LOG][StoppingCriterion.H:237] Creating stopping criterion with minIter 147 frequency 5
[OGL LOG][Proc: 0]p: generate_solver: 0.001 [ms]
[OGL LOG][Proc: 0]p: solve: 1513 [ms]
[OGL LOG][Proc: 0]p: copy_x_back: 0.17 [ms]
[OGL LOG][lduLduBase.H:330] 
Statistics:
	Time per iteration: 8134 [mu s]
	Time per residual norm calculation: 2442.000000 [mu s]
	Time per iteration and DOF: 8.134000 [ns]
	Retrieve results bandwidth 2.941000 [GByte/s]
[OGL LOG][Proc: 0]p: solve_multi_gpu: 1546.39 [ms]
GISAIcudaGKOCG:  Solving for p, Initial residual = 0.116615, Final residual = 8.26538e-05, No Iterations 186
[INFO] SolveP: 1552.09 [ms]
time step continuity errors : sum local = 1.26189e-08, global = -4.63645e-21, cumulative = -7.35241e-21
[INFO] ContinuityError: 3.838 [ms]
[INFO] CorrectBoundary: 0.618 [ms]
[INFO] PISOStep: 1579.43 [ms]
[INFO] TimeStep: 3718.15 [ms]
ExecutionTime = 48.69 s  ClockTime = 51 s

Time = 0.004

Courant Number mean: 0.0543148 max: 0.468931
[INFO] MatrixAssemblyU: 11.95 [ms]
DILUPBiCGStab:  Solving for Ux, Initial residual = 0.0122824, Final residual = 5.12785e-05, No Iterations 5
DILUPBiCGStab:  Solving for Uy, Initial residual = 0.0265473, Final residual = 7.80247e-05, No Iterations 5
DILUPBiCGStab:  Solving for Uz, Initial residual = 0.0517276, Final residual = 0.000175663, No Iterations 5
[INFO] MomentumPredictor: 93.052 [ms]
[INFO] MatrixAssemblyPI: 12.448 [ms]
[INFO] AdjustPhi: 0.91 [ms]
[INFO] ConstrainPressure: 0.002 [ms]
[INFO] MatrixAssemblyPII: 3.905 [ms]
[OGL LOG][Proc: 0]: global_index_init: 0.025 [ms]
[OGL LOG][Proc: 0]p_local_coeffs: call_update: 0 [ms]
[OGL LOG][Proc: 0]p_non_local_coeffs: call_update: 0 [ms]
[OGL LOG][Proc: 0]p: update_local_matrix_data: 4.478 [ms]
[OGL LOG][Proc: 0]p: update_non_local_matrix_data: 0.037 [ms]
[OGL LOG][Proc: 0]p: regenerate_distributed_matrix: 12.899 [ms]
[OGL LOG][Proc: 0]p_matrix: call_update: 13.927 [ms]
[OGL LOG][Proc: 0]p_rhs: call_update: 0.209 [ms]
[OGL LOG][Preconditioner.H:271] Generate preconditioner GISAI SparsityPower 1
[OGL LOG][Proc: 0]p: init_precond: 18.215 [ms]
[OGL LOG][StoppingCriterion.H:237] Creating stopping criterion with minIter 111 frequency 4
[OGL LOG][Proc: 0]p: generate_solver: 0.001 [ms]
[OGL LOG][Proc: 0]p: solve: 1492.07 [ms]
[OGL LOG][Proc: 0]p: copy_x_back: 0.188 [ms]
[OGL LOG][lduLduBase.H:330] 
Statistics:
	Time per iteration: 8243 [mu s]
	Time per residual norm calculation: 2436.000000 [mu s]
	Time per iteration and DOF: 8.243000 [ns]
	Retrieve results bandwidth 2.659000 [GByte/s]
[OGL LOG][Proc: 0]p: solve_multi_gpu: 1527.58 [ms]
GISAIcudaGKOCG:  Solving for p, Initial residual = 0.0908194, Final residual = 9.00784e-05, No Iterations 181
[INFO] SolveP: 1533.37 [ms]
time step continuity errors : sum local = 1.30829e-08, global = 2.13361e-22, cumulative = -7.13905e-21
[INFO] ContinuityError: 2.494 [ms]
[INFO] CorrectBoundary: 0.432 [ms]
[INFO] PISOStep: 1559.24 [ms]
[INFO] MatrixAssemblyPI: 12.529 [ms]
[INFO] AdjustPhi: 0.757 [ms]
[INFO] ConstrainPressure: 0.003 [ms]
[INFO] MatrixAssemblyPII: 3.834 [ms]
[OGL LOG][Proc: 0]: global_index_init: 0.015 [ms]
[OGL LOG][Proc: 0]p_local_coeffs: call_update: 0 [ms]
[OGL LOG][Proc: 0]p_non_local_coeffs: call_update: 0 [ms]
[OGL LOG][Proc: 0]p: update_local_matrix_data: 4.497 [ms]
[OGL LOG][Proc: 0]p: update_non_local_matrix_data: 0.035 [ms]
[OGL LOG][Proc: 0]p: regenerate_distributed_matrix: 11.374 [ms]
[OGL LOG][Proc: 0]p_matrix: call_update: 12.346 [ms]
[OGL LOG][Proc: 0]p_rhs: call_update: 0.166 [ms]
[OGL LOG][Preconditioner.H:271] Generate preconditioner GISAI SparsityPower 1
[OGL LOG][Proc: 0]p: init_precond: 18.083 [ms]
[OGL LOG][StoppingCriterion.H:237] Creating stopping criterion with minIter 108 frequency 4
[OGL LOG][Proc: 0]p: generate_solver: 0.001 [ms]
[OGL LOG][Proc: 0]p: solve: 1496.35 [ms]
[OGL LOG][Proc: 0]p: copy_x_back: 0.171 [ms]
[OGL LOG][lduLduBase.H:330] 
Statistics:
	Time per iteration: 8267 [mu s]
	Time per residual norm calculation: 2448.000000 [mu s]
	Time per iteration and DOF: 8.267000 [ns]
	Retrieve results bandwidth 2.923000 [GByte/s]
[OGL LOG][Proc: 0]p: solve_multi_gpu: 1530.33 [ms]
GISAIcudaGKOCG:  Solving for p, Initial residual = 0.0751205, Final residual = 8.31777e-05, No Iterations 181
[INFO] SolveP: 1535.56 [ms]
time step continuity errors : sum local = 1.21215e-08, global = 1.65731e-21, cumulative = -5.48175e-21
[INFO] ContinuityError: 2.589 [ms]
[INFO] CorrectBoundary: 0.599 [ms]
[INFO] PISOStep: 1561.63 [ms]
[INFO] TimeStep: 3228.26 [ms]
ExecutionTime = 51.92 s  ClockTime = 54 s

Time = 0.0045

Courant Number mean: 0.0568923 max: 0.470634
[INFO] MatrixAssemblyU: 12.558 [ms]
DILUPBiCGStab:  Solving for Ux, Initial residual = 0.0105342, Final residual = 3.97964e-05, No Iterations 5
DILUPBiCGStab:  Solving for Uy, Initial residual = 0.0226908, Final residual = 6.81009e-05, No Iterations 5
DILUPBiCGStab:  Solving for Uz, Initial residual = 0.0433365, Final residual = 0.000128803, No Iterations 5
[INFO] MomentumPredictor: 90.872 [ms]
[INFO] MatrixAssemblyPI: 12.58 [ms]
[INFO] AdjustPhi: 0.484 [ms]
[INFO] ConstrainPressure: 0.002 [ms]
[INFO] MatrixAssemblyPII: 3.918 [ms]
[OGL LOG][Proc: 0]: global_index_init: 0.033 [ms]
[OGL LOG][Proc: 0]p_local_coeffs: call_update: 0 [ms]
[OGL LOG][Proc: 0]p_non_local_coeffs: call_update: 0 [ms]
[OGL LOG][Proc: 0]p: update_local_matrix_data: 5.057 [ms]
[OGL LOG][Proc: 0]p: update_non_local_matrix_data: 0.037 [ms]
[OGL LOG][Proc: 0]p: regenerate_distributed_matrix: 12.218 [ms]
[OGL LOG][Proc: 0]p_matrix: call_update: 13.4 [ms]
[OGL LOG][Proc: 0]p_rhs: call_update: 0.144 [ms]
[OGL LOG][Preconditioner.H:271] Generate preconditioner GISAI SparsityPower 1
[OGL LOG][Proc: 0]p: init_precond: 17.888 [ms]
[OGL LOG][StoppingCriterion.H:237] Creating stopping criterion with minIter 108 frequency 4
[OGL LOG][Proc: 0]p: generate_solver: 0.001 [ms]
[OGL LOG][Proc: 0]p: solve: 1497.98 [ms]
[OGL LOG][Proc: 0]p: copy_x_back: 0.197 [ms]
[OGL LOG][lduLduBase.H:330] 
Statistics:
	Time per iteration: 8276 [mu s]
	Time per residual norm calculation: 2153.000000 [mu s]
	Time per iteration and DOF: 8.276000 [ns]
	Retrieve results bandwidth 2.538000 [GByte/s]
[OGL LOG][Proc: 0]p: solve_multi_gpu: 1532.22 [ms]
GISAIcudaGKOCG:  Solving for p, Initial residual = 0.0666462, Final residual = 8.33134e-05, No Iterations 181
[INFO] SolveP: 1538.1 [ms]
time step continuity errors : sum local = 1.35374e-08, global = -1.92547e-21, cumulative = -7.40721e-21
[INFO] ContinuityError: 2.066 [ms]
[INFO] CorrectBoundary: 0.064 [ms]
[INFO] PISOStep: 1562.44 [ms]
[INFO] MatrixAssemblyPI: 12.058 [ms]
[INFO] AdjustPhi: 0.486 [ms]
[INFO] ConstrainPressure: 0.002 [ms]
[INFO] MatrixAssemblyPII: 3.923 [ms]
[OGL LOG][Proc: 0]: global_index_init: 0.017 [ms]
[OGL LOG][Proc: 0]p_local_coeffs: call_update: 0 [ms]
[OGL LOG][Proc: 0]p_non_local_coeffs: call_update: 0 [ms]
[OGL LOG][Proc: 0]p: update_local_matrix_data: 5.091 [ms]
[OGL LOG][Proc: 0]p: update_non_local_matrix_data: 0.035 [ms]
[OGL LOG][Proc: 0]p: regenerate_distributed_matrix: 12.844 [ms]
[OGL LOG][Proc: 0]p_matrix: call_update: 13.953 [ms]
[OGL LOG][Proc: 0]p_rhs: call_update: 0.178 [ms]
[OGL LOG][Preconditioner.H:271] Generate preconditioner GISAI SparsityPower 1
[OGL LOG][Proc: 0]p: init_precond: 18.374 [ms]
[OGL LOG][StoppingCriterion.H:237] Creating stopping criterion with minIter 108 frequency 4
[OGL LOG][Proc: 0]p: generate_solver: 0.001 [ms]
[OGL LOG][Proc: 0]p: solve: 1461.86 [ms]
[OGL LOG][Proc: 0]p: copy_x_back: 0.179 [ms]
[OGL LOG][lduLduBase.H:330] 
Statistics:
	Time per iteration: 8259 [mu s]
	Time per residual norm calculation: 2151.000000 [mu s]
	Time per iteration and DOF: 8.259000 [ns]
	Retrieve results bandwidth 2.793000 [GByte/s]
[OGL LOG][Proc: 0]p: solve_multi_gpu: 1497.12 [ms]
GISAIcudaGKOCG:  Solving for p, Initial residual = 0.0555834, Final residual = 9.32108e-05, No Iterations 177
[INFO] SolveP: 1503.02 [ms]
time step continuity errors : sum local = 1.38967e-08, global = -5.02471e-21, cumulative = -1.24319e-20
[INFO] ContinuityError: 2.839 [ms]
[INFO] CorrectBoundary: 0.08 [ms]
[INFO] PISOStep: 1527.84 [ms]
[INFO] TimeStep: 3195.6 [ms]
ExecutionTime = 55.11 s  ClockTime = 57 s

Time = 0.005

Courant Number mean: 0.059188 max: 0.47203
[INFO] MatrixAssemblyU: 12.417 [ms]
DILUPBiCGStab:  Solving for Ux, Initial residual = 0.00921622, Final residual = 3.3215e-05, No Iterations 5
DILUPBiCGStab:  Solving for Uy, Initial residual = 0.019757, Final residual = 5.13611e-05, No Iterations 5
DILUPBiCGStab:  Solving for Uz, Initial residual = 0.0385368, Final residual = 0.000104085, No Iterations 5
[INFO] MomentumPredictor: 91.296 [ms]
[INFO] MatrixAssemblyPI: 12.611 [ms]
[INFO] AdjustPhi: 0.492 [ms]
[INFO] ConstrainPressure: 0.002 [ms]
[INFO] MatrixAssemblyPII: 3.878 [ms]
[OGL LOG][Proc: 0]: global_index_init: 0.008 [ms]
[OGL LOG][Proc: 0]p_local_coeffs: call_update: 0 [ms]
[OGL LOG][Proc: 0]p_non_local_coeffs: call_update: 0 [ms]
[OGL LOG][Proc: 0]p: update_local_matrix_data: 5.052 [ms]
[OGL LOG][Proc: 0]p: update_non_local_matrix_data: 0.036 [ms]
[OGL LOG][Proc: 0]p: regenerate_distributed_matrix: 12.522 [ms]
[OGL LOG][Proc: 0]p_matrix: call_update: 13.555 [ms]
[OGL LOG][Proc: 0]p_rhs: call_update: 0.089 [ms]
[OGL LOG][Preconditioner.H:271] Generate preconditioner GISAI SparsityPower 1
[OGL LOG][Proc: 0]p: init_precond: 17.839 [ms]
[OGL LOG][StoppingCriterion.H:237] Creating stopping criterion with minIter 106 frequency 4
[OGL LOG][Proc: 0]p: generate_solver: 0.001 [ms]
[OGL LOG][Proc: 0]p: solve: 1491.56 [ms]
[OGL LOG][Proc: 0]p: copy_x_back: 0.279 [ms]
[OGL LOG][lduLduBase.H:330] 
Statistics:
	Time per iteration: 8240 [mu s]
	Time per residual norm calculation: 2743.000000 [mu s]
	Time per iteration and DOF: 8.240000 [ns]
	Retrieve results bandwidth 1.792000 [GByte/s]
[OGL LOG][Proc: 0]p: solve_multi_gpu: 1526.19 [ms]
GISAIcudaGKOCG:  Solving for p, Initial residual = 0.0445814, Final residual = 7.92109e-05, No Iterations 181
[INFO] SolveP: 1532.12 [ms]
time step continuity errors : sum local = 1.18312e-08, global = -1.42606e-21, cumulative = -1.3858e-20
[INFO] ContinuityError: 1.371 [ms]
[INFO] CorrectBoundary: 0.085 [ms]
[INFO] PISOStep: 1557.89 [ms]
[INFO] MatrixAssemblyPI: 12.831 [ms]
[INFO] AdjustPhi: 0.534 [ms]
[INFO] ConstrainPressure: 0.002 [ms]
[INFO] MatrixAssemblyPII: 4.145 [ms]
[OGL LOG][Proc: 0]: global_index_init: 0.011 [ms]
[OGL LOG][Proc: 0]p_local_coeffs: call_update: 0 [ms]
[OGL LOG][Proc: 0]p_non_local_coeffs: call_update: 0 [ms]
[OGL LOG][Proc: 0]p: update_local_matrix_data: 4.913 [ms]
[OGL LOG][Proc: 0]p: update_non_local_matrix_data: 0.056 [ms]
[OGL LOG][Proc: 0]p: regenerate_distributed_matrix: 11.306 [ms]
[OGL LOG][Proc: 0]p_matrix: call_update: 12.157 [ms]
[OGL LOG][Proc: 0]p_rhs: call_update: 0.761 [ms]
[OGL LOG][Preconditioner.H:271] Generate preconditioner GISAI SparsityPower 1
[OGL LOG][Proc: 0]p: init_precond: 18.746 [ms]
[OGL LOG][StoppingCriterion.H:237] Creating stopping criterion with minIter 108 frequency 4
[OGL LOG][Proc: 0]p: generate_solver: 0.002 [ms]
[OGL LOG][Proc: 0]p: solve: 1460.25 [ms]
[OGL LOG][Proc: 0]p: copy_x_back: 0.185 [ms]
[OGL LOG][lduLduBase.H:330] 
Statistics:
	Time per iteration: 8249 [mu s]
	Time per residual norm calculation: 2144.000000 [mu s]
	Time per iteration and DOF: 8.249000 [ns]
	Retrieve results bandwidth 2.702000 [GByte/s]
[OGL LOG][Proc: 0]p: solve_multi_gpu: 1494.66 [ms]
GISAIcudaGKOCG:  Solving for p, Initial residual = 0.0376192, Final residual = 9.05524e-05, No Iterations 177
[INFO] SolveP: 1500.47 [ms]
time step continuity errors : sum local = 1.28691e-08, global = -6.38581e-21, cumulative = -2.02438e-20
[INFO] ContinuityError: 2.843 [ms]
[INFO] CorrectBoundary: 0.101 [ms]
[INFO] PISOStep: 1526.22 [ms]
[INFO] TimeStep: 3189.88 [ms]
ExecutionTime = 58.29 s  ClockTime = 60 s

Time = 0.0055

Courant Number mean: 0.061248 max: 0.473178
[INFO] MatrixAssemblyU: 12.48 [ms]
DILUPBiCGStab:  Solving for Ux, Initial residual = 0.00814458, Final residual = 2.76004e-05, No Iterations 5
DILUPBiCGStab:  Solving for Uy, Initial residual = 0.0174607, Final residual = 4.57534e-05, No Iterations 5
DILUPBiCGStab:  Solving for Uz, Initial residual = 0.0346785, Final residual = 8.80252e-05, No Iterations 5
[INFO] MomentumPredictor: 91.068 [ms]
[INFO] MatrixAssemblyPI: 12.64 [ms]
[INFO] AdjustPhi: 0.503 [ms]
[INFO] ConstrainPressure: 0.002 [ms]
[INFO] MatrixAssemblyPII: 3.949 [ms]
[OGL LOG][Proc: 0]: global_index_init: 0.01 [ms]
[OGL LOG][Proc: 0]p_local_coeffs: call_update: 0 [ms]
[OGL LOG][Proc: 0]p_non_local_coeffs: call_update: 0 [ms]
[OGL LOG][Proc: 0]p: update_local_matrix_data: 4.939 [ms]
[OGL LOG][Proc: 0]p: update_non_local_matrix_data: 0.035 [ms]
[OGL LOG][Proc: 0]p: regenerate_distributed_matrix: 12.702 [ms]
[OGL LOG][Proc: 0]p_matrix: call_update: 13.545 [ms]
[OGL LOG][Proc: 0]p_rhs: call_update: 0.398 [ms]
[OGL LOG][Preconditioner.H:271] Generate preconditioner GISAI SparsityPower 1
[OGL LOG][Proc: 0]p: init_precond: 18.413 [ms]
[OGL LOG][StoppingCriterion.H:237] Creating stopping criterion with minIter 106 frequency 4
[OGL LOG][Proc: 0]p: generate_solver: 0.001 [ms]
[OGL LOG][Proc: 0]p: solve: 1493.78 [ms]
[OGL LOG][Proc: 0]p: copy_x_back: 0.179 [ms]
[OGL LOG][lduLduBase.H:330] 
Statistics:
	Time per iteration: 8252 [mu s]
	Time per residual norm calculation: 2133.000000 [mu s]
	Time per iteration and DOF: 8.252000 [ns]
	Retrieve results bandwidth 2.793000 [GByte/s]
[OGL LOG][Proc: 0]p: solve_multi_gpu: 1528.88 [ms]
GISAIcudaGKOCG:  Solving for p, Initial residual = 0.0350101, Final residual = 9.57045e-05, No Iterations 181
[INFO] SolveP: 1534.88 [ms]
time step continuity errors : sum local = 1.57973e-08, global = 4.22751e-21, cumulative = -1.60163e-20
[INFO] ContinuityError: 2.804 [ms]
[INFO] CorrectBoundary: 0.4 [ms]
[INFO] PISOStep: 1560.96 [ms]
[INFO] MatrixAssemblyPI: 12.493 [ms]
[INFO] AdjustPhi: 0.777 [ms]
[INFO] ConstrainPressure: 0.001 [ms]
[INFO] MatrixAssemblyPII: 3.857 [ms]
[OGL LOG][Proc: 0]: global_index_init: 0.007 [ms]
[OGL LOG][Proc: 0]p_local_coeffs: call_update: 0 [ms]
[OGL LOG][Proc: 0]p_non_local_coeffs: call_update: 0 [ms]
[OGL LOG][Proc: 0]p: update_local_matrix_data: 4.914 [ms]
[OGL LOG][Proc: 0]p: update_non_local_matrix_data: 0.035 [ms]
[OGL LOG][Proc: 0]p: regenerate_distributed_matrix: 11.629 [ms]
[OGL LOG][Proc: 0]p_matrix: call_update: 12.572 [ms]
[OGL LOG][Proc: 0]p_rhs: call_update: 0.234 [ms]
[OGL LOG][Preconditioner.H:271] Generate preconditioner GISAI SparsityPower 1
[OGL LOG][Proc: 0]p: init_precond: 18.948 [ms]
[OGL LOG][StoppingCriterion.H:237] Creating stopping criterion with minIter 108 frequency 4
[OGL LOG][Proc: 0]p: generate_solver: 0.001 [ms]
[OGL LOG][Proc: 0]p: solve: 1461.06 [ms]
[OGL LOG][Proc: 0]p: copy_x_back: 0.178 [ms]
[OGL LOG][lduLduBase.H:330] 
Statistics:
	Time per iteration: 8254 [mu s]
	Time per residual norm calculation: 2441.000000 [mu s]
	Time per iteration and DOF: 8.254000 [ns]
	Retrieve results bandwidth 2.808000 [GByte/s]
[OGL LOG][Proc: 0]p: solve_multi_gpu: 1495.64 [ms]
GISAIcudaGKOCG:  Solving for p, Initial residual = 0.0297439, Final residual = 9.32139e-05, No Iterations 177
[INFO] SolveP: 1501.54 [ms]
time step continuity errors : sum local = 1.39729e-08, global = 5.13927e-21, cumulative = -1.0877e-20
[INFO] ContinuityError: 3.115 [ms]
[INFO] CorrectBoundary: 0.44 [ms]
[INFO] PISOStep: 1528.14 [ms]
[INFO] TimeStep: 3194.51 [ms]
ExecutionTime = 61.49 s  ClockTime = 64 s

Time = 0.006

Courant Number mean: 0.06312 max: 0.474156
[INFO] MatrixAssemblyU: 11.929 [ms]
DILUPBiCGStab:  Solving for Ux, Initial residual = 0.00728493, Final residual = 2.41068e-05, No Iterations 5
DILUPBiCGStab:  Solving for Uy, Initial residual = 0.0156098, Final residual = 3.93806e-05, No Iterations 5
DILUPBiCGStab:  Solving for Uz, Initial residual = 0.0313515, Final residual = 8.37945e-05, No Iterations 5
[INFO] MomentumPredictor: 92.936 [ms]
[INFO] MatrixAssemblyPI: 13.183 [ms]
[INFO] AdjustPhi: 3.131 [ms]
[INFO] ConstrainPressure: 0.002 [ms]
[INFO] MatrixAssemblyPII: 3.841 [ms]
[OGL LOG][Proc: 0]: global_index_init: 0.027 [ms]
[OGL LOG][Proc: 0]p_local_coeffs: call_update: 0 [ms]
[OGL LOG][Proc: 0]p_non_local_coeffs: call_update: 0 [ms]
[OGL LOG][Proc: 0]p: update_local_matrix_data: 4.437 [ms]
[OGL LOG][Proc: 0]p: update_non_local_matrix_data: 0.036 [ms]
[OGL LOG][Proc: 0]p: regenerate_distributed_matrix: 13.759 [ms]
[OGL LOG][Proc: 0]p_matrix: call_update: 14.169 [ms]
[OGL LOG][Proc: 0]p_rhs: call_update: 0.279 [ms]
[OGL LOG][Preconditioner.H:271] Generate preconditioner GISAI SparsityPower 1
[OGL LOG][Proc: 0]p: init_precond: 18.531 [ms]
[OGL LOG][StoppingCriterion.H:237] Creating stopping criterion with minIter 106 frequency 4
[OGL LOG][Proc: 0]p: generate_solver: 0.001 [ms]
[OGL LOG][Proc: 0]p: solve: 1494.01 [ms]
[OGL LOG][Proc: 0]p: copy_x_back: 0.172 [ms]
[OGL LOG][lduLduBase.H:330] 
Statistics:
	Time per iteration: 8254 [mu s]
	Time per residual norm calculation: 2153.000000 [mu s]
	Time per iteration and DOF: 8.254000 [ns]
	Retrieve results bandwidth 2.906000 [GByte/s]
[OGL LOG][Proc: 0]p: solve_multi_gpu: 1530.28 [ms]
GISAIcudaGKOCG:  Solving for p, Initial residual = 0.0252706, Final residual = 8.3481e-05, No Iterations 181
[INFO] SolveP: 1535.56 [ms]
time step continuity errors : sum local = 1.33795e-08, global = -2.57874e-22, cumulative = -1.11349e-20
[INFO] ContinuityError: 2.951 [ms]
[INFO] CorrectBoundary: 0.073 [ms]
[INFO] PISOStep: 1564.57 [ms]
[INFO] MatrixAssemblyPI: 11.199 [ms]
[INFO] AdjustPhi: 3.138 [ms]
[INFO] ConstrainPressure: 0.002 [ms]
[INFO] MatrixAssemblyPII: 3.911 [ms]
[OGL LOG][Proc: 0]: global_index_init: 0.031 [ms]
[OGL LOG][Proc: 0]p_local_coeffs: call_update: 0 [ms]
[OGL LOG][Proc: 0]p_non_local_coeffs: call_update: 0 [ms]
[OGL LOG][Proc: 0]p: update_local_matrix_data: 5.009 [ms]
[OGL LOG][Proc: 0]p: update_non_local_matrix_data: 0.035 [ms]
[OGL LOG][Proc: 0]p: regenerate_distributed_matrix: 11.168 [ms]
[OGL LOG][Proc: 0]p_matrix: call_update: 12.13 [ms]
[OGL LOG][Proc: 0]p_rhs: call_update: 0.199 [ms]
[OGL LOG][Preconditioner.H:271] Generate preconditioner GISAI SparsityPower 1
[OGL LOG][Proc: 0]p: init_precond: 18.268 [ms]
[OGL LOG][StoppingCriterion.H:237] Creating stopping criterion with minIter 108 frequency 4
[OGL LOG][Proc: 0]p: generate_solver: 0.001 [ms]
[OGL LOG][Proc: 0]p: solve: 1459.19 [ms]
[OGL LOG][Proc: 0]p: copy_x_back: 0.182 [ms]
[OGL LOG][lduLduBase.H:330] 
Statistics:
	Time per iteration: 8244 [mu s]
	Time per residual norm calculation: 2442.000000 [mu s]
	Time per iteration and DOF: 8.244000 [ns]
	Retrieve results bandwidth 2.747000 [GByte/s]
[OGL LOG][Proc: 0]p: solve_multi_gpu: 1493.09 [ms]
GISAIcudaGKOCG:  Solving for p, Initial residual = 0.0220656, Final residual = 9.5688e-05, No Iterations 177
[INFO] SolveP: 1498.8 [ms]
time step continuity errors : sum local = 1.3736e-08, global = 2.75906e-21, cumulative = -8.37582e-21
[INFO] ContinuityError: 2.284 [ms]
[INFO] CorrectBoundary: 0.067 [ms]
[INFO] PISOStep: 1525.04 [ms]
[INFO] TimeStep: 3196.29 [ms]
ExecutionTime = 64.67 s  ClockTime = 67 s

Time = 0.0065

Courant Number mean: 0.0648242 max: 0.474993
[INFO] MatrixAssemblyU: 12.821 [ms]
DILUPBiCGStab:  Solving for Ux, Initial residual = 0.00656953, Final residual = 2.09497e-05, No Iterations 5
DILUPBiCGStab:  Solving for Uy, Initial residual = 0.0140613, Final residual = 3.55753e-05, No Iterations 5
DILUPBiCGStab:  Solving for Uz, Initial residual = 0.0289736, Final residual = 7.96939e-05, No Iterations 5
[INFO] MomentumPredictor: 94.1 [ms]
[INFO] MatrixAssemblyPI: 12.651 [ms]
[INFO] AdjustPhi: 0.733 [ms]
[INFO] ConstrainPressure: 0.002 [ms]
[INFO] MatrixAssemblyPII: 3.984 [ms]
[OGL LOG][Proc: 0]: global_index_init: 0.032 [ms]
[OGL LOG][Proc: 0]p_local_coeffs: call_update: 0 [ms]
[OGL LOG][Proc: 0]p_non_local_coeffs: call_update: 0 [ms]
[OGL LOG][Proc: 0]p: update_local_matrix_data: 4.865 [ms]
[OGL LOG][Proc: 0]p: update_non_local_matrix_data: 0.037 [ms]
[OGL LOG][Proc: 0]p: regenerate_distributed_matrix: 12.338 [ms]
[OGL LOG][Proc: 0]p_matrix: call_update: 13.348 [ms]
[OGL LOG][Proc: 0]p_rhs: call_update: 0.286 [ms]
[OGL LOG][Preconditioner.H:271] Generate preconditioner GISAI SparsityPower 1
[OGL LOG][Proc: 0]p: init_precond: 18.121 [ms]
[OGL LOG][StoppingCriterion.H:237] Creating stopping criterion with minIter 106 frequency 4
[OGL LOG][Proc: 0]p: generate_solver: 0.002 [ms]
[OGL LOG][Proc: 0]p: solve: 3296.43 [ms]
[OGL LOG][Proc: 0]p: copy_x_back: 0.165 [ms]
[OGL LOG][lduLduBase.H:330] 
Statistics:
	Time per iteration: 8387 [mu s]
	Time per residual norm calculation: 2450.000000 [mu s]
	Time per iteration and DOF: 8.387000 [ns]
	Retrieve results bandwidth 3.030000 [GByte/s]
[OGL LOG][Proc: 0]p: solve_multi_gpu: 3331.24 [ms]
GISAIcudaGKOCG:  Solving for p, Initial residual = 0.0209761, Final residual = 8.56358e-05, No Iterations 393
[INFO] SolveP: 3336.85 [ms]
time step continuity errors : sum local = 1.19899e-08, global = -3.18633e-22, cumulative = -8.69445e-21
[INFO] ContinuityError: 3.851 [ms]
[INFO] CorrectBoundary: 0.626 [ms]
[INFO] PISOStep: 3363.96 [ms]
[INFO] MatrixAssemblyPI: 12.246 [ms]
[INFO] AdjustPhi: 1.488 [ms]
[INFO] ConstrainPressure: 0.002 [ms]
[INFO] MatrixAssemblyPII: 3.839 [ms]
[OGL LOG][Proc: 0]: global_index_init: 0.026 [ms]
[OGL LOG][Proc: 0]p_local_coeffs: call_update: 0 [ms]
[OGL LOG][Proc: 0]p_non_local_coeffs: call_update: 0 [ms]
[OGL LOG][Proc: 0]p: update_local_matrix_data: 4.065 [ms]
[OGL LOG][Proc: 0]p: update_non_local_matrix_data: 0.033 [ms]
[OGL LOG][Proc: 0]p: regenerate_distributed_matrix: 11.15 [ms]
[OGL LOG][Proc: 0]p_matrix: call_update: 12.134 [ms]
[OGL LOG][Proc: 0]p_rhs: call_update: 0.375 [ms]
[OGL LOG][Preconditioner.H:271] Generate preconditioner GISAI SparsityPower 1
[OGL LOG][Proc: 0]p: init_precond: 18.289 [ms]
[OGL LOG][StoppingCriterion.H:237] Creating stopping criterion with minIter 235 frequency 7
[OGL LOG][Proc: 0]p: generate_solver: 0.001 [ms]
[OGL LOG][Proc: 0]p: solve: 3168.77 [ms]
[OGL LOG][Proc: 0]p: copy_x_back: 0.371 [ms]
[OGL LOG][lduLduBase.H:330] 
Statistics:
	Time per iteration: 8063 [mu s]
	Time per residual norm calculation: 2157.000000 [mu s]
	Time per iteration and DOF: 8.063000 [ns]
	Retrieve results bandwidth 1.347000 [GByte/s]
[OGL LOG][Proc: 0]p: solve_multi_gpu: 3203.52 [ms]
GISAIcudaGKOCG:  Solving for p, Initial residual = 0.0184916, Final residual = 6.81037e-05, No Iterations 393
[INFO] SolveP: 3208.51 [ms]
time step continuity errors : sum local = 9.53944e-09, global = -7.52691e-21, cumulative = -1.62214e-20
[INFO] ContinuityError: 1.696 [ms]
[INFO] CorrectBoundary: 0.075 [ms]
[INFO] PISOStep: 3235.8 [ms]
[INFO] TimeStep: 6708.45 [ms]
ExecutionTime = 71.37 s  ClockTime = 73 s

Time = 0.007

Courant Number mean: 0.0663921 max: 0.475725
[INFO] MatrixAssemblyU: 14.151 [ms]
DILUPBiCGStab:  Solving for Ux, Initial residual = 0.00596469, Final residual = 1.87191e-05, No Iterations 5
DILUPBiCGStab:  Solving for Uy, Initial residual = 0.0127666, Final residual = 3.18114e-05, No Iterations 5
DILUPBiCGStab:  Solving for Uz, Initial residual = 0.025883, Final residual = 5.91375e-05, No Iterations 5
[INFO] MomentumPredictor: 89.361 [ms]
[INFO] MatrixAssemblyPI: 12.831 [ms]
[INFO] AdjustPhi: 0.497 [ms]
[INFO] ConstrainPressure: 0.002 [ms]
[INFO] MatrixAssemblyPII: 3.97 [ms]
[OGL LOG][Proc: 0]: global_index_init: 0.01 [ms]
[OGL LOG][Proc: 0]p_local_coeffs: call_update: 0 [ms]
[OGL LOG][Proc: 0]p_non_local_coeffs: call_update: 0 [ms]
[OGL LOG][Proc: 0]p: update_local_matrix_data: 5.033 [ms]
[OGL LOG][Proc: 0]p: update_non_local_matrix_data: 0.051 [ms]
[OGL LOG][Proc: 0]p: regenerate_distributed_matrix: 12.248 [ms]
[OGL LOG][Proc: 0]p_matrix: call_update: 13.258 [ms]
[OGL LOG][Proc: 0]p_rhs: call_update: 0.153 [ms]
[OGL LOG][Preconditioner.H:271] Generate preconditioner GISAI SparsityPower 1
[OGL LOG][Proc: 0]p: init_precond: 18.066 [ms]
[OGL LOG][StoppingCriterion.H:237] Creating stopping criterion with minIter 235 frequency 7
[OGL LOG][Proc: 0]p: generate_solver: 0.001 [ms]
[OGL LOG][Proc: 0]p: solve: 1914.5 [ms]
[OGL LOG][Proc: 0]p: copy_x_back: 0.165 [ms]
[OGL LOG][lduLduBase.H:330] 
Statistics:
	Time per iteration: 8010 [mu s]
	Time per residual norm calculation: 2440.000000 [mu s]
	Time per iteration and DOF: 8.010000 [ns]
	Retrieve results bandwidth 3.030000 [GByte/s]
[OGL LOG][Proc: 0]p: solve_multi_gpu: 1949.08 [ms]
GISAIcudaGKOCG:  Solving for p, Initial residual = 0.0164197, Final residual = 7.23219e-05, No Iterations 239
[INFO] SolveP: 1954.87 [ms]
time step continuity errors : sum local = 1.09072e-08, global = -2.55159e-21, cumulative = -1.8773e-20
[INFO] ContinuityError: 2.388 [ms]
[INFO] CorrectBoundary: 0.086 [ms]
[INFO] PISOStep: 1979.61 [ms]
[INFO] MatrixAssemblyPI: 12.969 [ms]
[INFO] AdjustPhi: 1.273 [ms]
[INFO] ConstrainPressure: 0.002 [ms]
[INFO] MatrixAssemblyPII: 3.829 [ms]
[OGL LOG][Proc: 0]: global_index_init: 0.008 [ms]
[OGL LOG][Proc: 0]p_local_coeffs: call_update: 0 [ms]
[OGL LOG][Proc: 0]p_non_local_coeffs: call_update: 0 [ms]
[OGL LOG][Proc: 0]p: update_local_matrix_data: 4.216 [ms]
[OGL LOG][Proc: 0]p: update_non_local_matrix_data: 0.038 [ms]
[OGL LOG][Proc: 0]p: regenerate_distributed_matrix: 11.224 [ms]
[OGL LOG][Proc: 0]p_matrix: call_update: 12.242 [ms]
[OGL LOG][Proc: 0]p_rhs: call_update: 0.294 [ms]
[OGL LOG][Preconditioner.H:271] Generate preconditioner GISAI SparsityPower 1
[OGL LOG][Proc: 0]p: init_precond: 18.461 [ms]
[OGL LOG][StoppingCriterion.H:237] Creating stopping criterion with minIter 143 frequency 5
[OGL LOG][Proc: 0]p: generate_solver: 0.001 [ms]
[OGL LOG][Proc: 0]p: solve: 1342.51 [ms]
[OGL LOG][Proc: 0]p: copy_x_back: 0.179 [ms]
[OGL LOG][lduLduBase.H:330] 
Statistics:
	Time per iteration: 8087 [mu s]
	Time per residual norm calculation: 2446.000000 [mu s]
	Time per iteration and DOF: 8.087000 [ns]
	Retrieve results bandwidth 2.793000 [GByte/s]
[OGL LOG][Proc: 0]p: solve_multi_gpu: 1376.81 [ms]
GISAIcudaGKOCG:  Solving for p, Initial residual = 0.0148619, Final residual = 9.23213e-05, No Iterations 166
[INFO] SolveP: 1381.75 [ms]
time step continuity errors : sum local = 1.32455e-08, global = 3.11346e-21, cumulative = -1.56595e-20
[INFO] ContinuityError: 3.252 [ms]
[INFO] CorrectBoundary: 0.154 [ms]
[INFO] PISOStep: 1408.7 [ms]
[INFO] TimeStep: 3493.64 [ms]
ExecutionTime = 74.86 s  ClockTime = 77 s

Time = 0.0075

Courant Number mean: 0.0678392 max: 0.476365
[INFO] MatrixAssemblyU: 12.455 [ms]
DILUPBiCGStab:  Solving for Ux, Initial residual = 0.00544007, Final residual = 1.6661e-05, No Iterations 5
DILUPBiCGStab:  Solving for Uy, Initial residual = 0.0116701, Final residual = 2.88731e-05, No Iterations 5
DILUPBiCGStab:  Solving for Uz, Initial residual = 0.0236921, Final residual = 5.38309e-05, No Iterations 5
[INFO] MomentumPredictor: 92.173 [ms]
[INFO] MatrixAssemblyPI: 12.554 [ms]
[INFO] AdjustPhi: 0.644 [ms]
[INFO] ConstrainPressure: 0.002 [ms]
[INFO] MatrixAssemblyPII: 3.916 [ms]
[OGL LOG][Proc: 0]: global_index_init: 0.026 [ms]
[OGL LOG][Proc: 0]p_local_coeffs: call_update: 0 [ms]
[OGL LOG][Proc: 0]p_non_local_coeffs: call_update: 0 [ms]
[OGL LOG][Proc: 0]p: update_local_matrix_data: 4.576 [ms]
[OGL LOG][Proc: 0]p: update_non_local_matrix_data: 0.037 [ms]
[OGL LOG][Proc: 0]p: regenerate_distributed_matrix: 12.986 [ms]
[OGL LOG][Proc: 0]p_matrix: call_update: 14.226 [ms]
[OGL LOG][Proc: 0]p_rhs: call_update: 0.218 [ms]
[OGL LOG][Preconditioner.H:271] Generate preconditioner GISAI SparsityPower 1
[OGL LOG][Proc: 0]p: init_precond: 18.395 [ms]
[OGL LOG][StoppingCriterion.H:237] Creating stopping criterion with minIter 99 frequency 4
[OGL LOG][Proc: 0]p: generate_solver: 0.001 [ms]
[OGL LOG][Proc: 0]p: solve: 1367.59 [ms]
[OGL LOG][Proc: 0]p: copy_x_back: 0.174 [ms]
[OGL LOG][lduLduBase.H:330] 
Statistics:
	Time per iteration: 8288 [mu s]
	Time per residual norm calculation: 2148.000000 [mu s]
	Time per iteration and DOF: 8.288000 [ns]
	Retrieve results bandwidth 2.873000 [GByte/s]
[OGL LOG][Proc: 0]p: solve_multi_gpu: 1403.3 [ms]
GISAIcudaGKOCG:  Solving for p, Initial residual = 0.0140247, Final residual = 9.03249e-05, No Iterations 165
[INFO] SolveP: 1408.98 [ms]
time step continuity errors : sum local = 1.38631e-08, global = 4.05618e-21, cumulative = -1.16033e-20
[INFO] ContinuityError: 2.687 [ms]
[INFO] CorrectBoundary: 0.531 [ms]
[INFO] PISOStep: 1434.77 [ms]
[INFO] MatrixAssemblyPI: 12.678 [ms]
[INFO] AdjustPhi: 0.914 [ms]
[INFO] ConstrainPressure: 0.002 [ms]
[INFO] MatrixAssemblyPII: 3.725 [ms]
[OGL LOG][Proc: 0]: global_index_init: 0.023 [ms]
[OGL LOG][Proc: 0]p_local_coeffs: call_update: 0 [ms]
[OGL LOG][Proc: 0]p_non_local_coeffs: call_update: 0 [ms]
[OGL LOG][Proc: 0]p: update_local_matrix_data: 5.036 [ms]
[OGL LOG][Proc: 0]p: update_non_local_matrix_data: 0.036 [ms]
[OGL LOG][Proc: 0]p: regenerate_distributed_matrix: 11.34 [ms]
[OGL LOG][Proc: 0]p_matrix: call_update: 12.608 [ms]
[OGL LOG][Proc: 0]p_rhs: call_update: 0.077 [ms]
[OGL LOG][Preconditioner.H:271] Generate preconditioner GISAI SparsityPower 1
[OGL LOG][Proc: 0]p: init_precond: 18.477 [ms]
[OGL LOG][StoppingCriterion.H:237] Creating stopping criterion with minIter 99 frequency 4
[OGL LOG][Proc: 0]p: generate_solver: 0.001 [ms]
[OGL LOG][Proc: 0]p: solve: 1361.79 [ms]
[OGL LOG][Proc: 0]p: copy_x_back: 0.179 [ms]
[OGL LOG][lduLduBase.H:330] 
Statistics:
	Time per iteration: 8253 [mu s]
	Time per residual norm calculation: 2426.000000 [mu s]
	Time per iteration and DOF: 8.253000 [ns]
	Retrieve results bandwidth 2.793000 [GByte/s]
[OGL LOG][Proc: 0]p: solve_multi_gpu: 1395.78 [ms]
GISAIcudaGKOCG:  Solving for p, Initial residual = 0.0127798, Final residual = 7.89505e-05, No Iterations 165
[INFO] SolveP: 1401.86 [ms]
time step continuity errors : sum local = 1.13246e-08, global = 8.20424e-21, cumulative = -3.39908e-21
[INFO] ContinuityError: 2.39 [ms]
[INFO] CorrectBoundary: 0.467 [ms]
[INFO] PISOStep: 1428.14 [ms]
[INFO] TimeStep: 2970.37 [ms]
ExecutionTime = 77.82 s  ClockTime = 80 s

Time = 0.008

Courant Number mean: 0.0691767 max: 0.476935
[INFO] MatrixAssemblyU: 12.295 [ms]
DILUPBiCGStab:  Solving for Ux, Initial residual = 0.00499168, Final residual = 1.50936e-05, No Iterations 5
DILUPBiCGStab:  Solving for Uy, Initial residual = 0.010731, Final residual = 2.6431e-05, No Iterations 5
DILUPBiCGStab:  Solving for Uz, Initial residual = 0.021837, Final residual = 5.35742e-05, No Iterations 5
[INFO] MomentumPredictor: 91.642 [ms]
[INFO] MatrixAssemblyPI: 12.579 [ms]
[INFO] AdjustPhi: 0.506 [ms]
[INFO] ConstrainPressure: 0.002 [ms]
[INFO] MatrixAssemblyPII: 3.878 [ms]
[OGL LOG][Proc: 0]: global_index_init: 0.01 [ms]
[OGL LOG][Proc: 0]p_local_coeffs: call_update: 0 [ms]
[OGL LOG][Proc: 0]p_non_local_coeffs: call_update: 0 [ms]
[OGL LOG][Proc: 0]p: update_local_matrix_data: 4.715 [ms]
[OGL LOG][Proc: 0]p: update_non_local_matrix_data: 0.037 [ms]
[OGL LOG][Proc: 0]p: regenerate_distributed_matrix: 12.106 [ms]
[OGL LOG][Proc: 0]p_matrix: call_update: 13.284 [ms]
[OGL LOG][Proc: 0]p_rhs: call_update: 0.154 [ms]
[OGL LOG][Preconditioner.H:271] Generate preconditioner GISAI SparsityPower 1
[OGL LOG][Proc: 0]p: init_precond: 18.458 [ms]
[OGL LOG][StoppingCriterion.H:237] Creating stopping criterion with minIter 99 frequency 4
[OGL LOG][Proc: 0]p: generate_solver: 0.001 [ms]
[OGL LOG][Proc: 0]p: solve: 1391.51 [ms]
[OGL LOG][Proc: 0]p: copy_x_back: 0.178 [ms]
[OGL LOG][lduLduBase.H:330] 
Statistics:
	Time per iteration: 8233 [mu s]
	Time per residual norm calculation: 2453.000000 [mu s]
	Time per iteration and DOF: 8.233000 [ns]
	Retrieve results bandwidth 2.808000 [GByte/s]
[OGL LOG][Proc: 0]p: solve_multi_gpu: 1426.45 [ms]
GISAIcudaGKOCG:  Solving for p, Initial residual = 0.0120581, Final residual = 9.36237e-05, No Iterations 169
[INFO] SolveP: 1431.97 [ms]
time step continuity errors : sum local = 1.44959e-08, global = 1.27469e-21, cumulative = -2.12439e-21
[INFO] ContinuityError: 2.7 [ms]
[INFO] CorrectBoundary: 0.07 [ms]
[INFO] PISOStep: 1456.82 [ms]
[INFO] MatrixAssemblyPI: 11.926 [ms]
[INFO] AdjustPhi: 2.161 [ms]
[INFO] ConstrainPressure: 0.002 [ms]
[INFO] MatrixAssemblyPII: 3.881 [ms]
[OGL LOG][Proc: 0]: global_index_init: 0.025 [ms]
[OGL LOG][Proc: 0]p_local_coeffs: call_update: 0 [ms]
[OGL LOG][Proc: 0]p_non_local_coeffs: call_update: 0 [ms]
[OGL LOG][Proc: 0]p: update_local_matrix_data: 3.925 [ms]
[OGL LOG][Proc: 0]p: update_non_local_matrix_data: 0.035 [ms]
[OGL LOG][Proc: 0]p: regenerate_distributed_matrix: 11.897 [ms]
[OGL LOG][Proc: 0]p_matrix: call_update: 12.964 [ms]
[OGL LOG][Proc: 0]p_rhs: call_update: 0.275 [ms]
[OGL LOG][Preconditioner.H:271] Generate preconditioner GISAI SparsityPower 1
[OGL LOG][Proc: 0]p: init_precond: 18.171 [ms]
[OGL LOG][StoppingCriterion.H:237] Creating stopping criterion with minIter 101 frequency 4
[OGL LOG][Proc: 0]p: generate_solver: 0.001 [ms]
[OGL LOG][Proc: 0]p: solve: 1363.71 [ms]
[OGL LOG][Proc: 0]p: copy_x_back: 0.17 [ms]
[OGL LOG][lduLduBase.H:330] 
Statistics:
	Time per iteration: 8264 [mu s]
	Time per residual norm calculation: 2154.000000 [mu s]
	Time per iteration and DOF: 8.264000 [ns]
	Retrieve results bandwidth 2.941000 [GByte/s]
[OGL LOG][Proc: 0]p: solve_multi_gpu: 1398.73 [ms]
GISAIcudaGKOCG:  Solving for p, Initial residual = 0.011191, Final residual = 8.67814e-05, No Iterations 165
[INFO] SolveP: 1403.43 [ms]
time step continuity errors : sum local = 1.2619e-08, global = 7.13081e-22, cumulative = -1.41131e-21
[INFO] ContinuityError: 2.696 [ms]
[INFO] CorrectBoundary: 0.063 [ms]
[INFO] PISOStep: 1429.52 [ms]
[INFO] TimeStep: 2992.11 [ms]
ExecutionTime = 80.81 s  ClockTime = 83 s

Time = 0.0085

Courant Number mean: 0.0704223 max: 0.477443
[INFO] MatrixAssemblyU: 12.668 [ms]
DILUPBiCGStab:  Solving for Ux, Initial residual = 0.00460533, Final residual = 1.36791e-05, No Iterations 5
DILUPBiCGStab:  Solving for Uy, Initial residual = 0.00989581, Final residual = 2.44145e-05, No Iterations 5
DILUPBiCGStab:  Solving for Uz, Initial residual = 0.0206304, Final residual = 5.26506e-05, No Iterations 5
[INFO] MomentumPredictor: 90.764 [ms]
[INFO] MatrixAssemblyPI: 12.615 [ms]
[INFO] AdjustPhi: 0.479 [ms]
[INFO] ConstrainPressure: 0.002 [ms]
[INFO] MatrixAssemblyPII: 3.873 [ms]
[OGL LOG][Proc: 0]: global_index_init: 0.014 [ms]
[OGL LOG][Proc: 0]p_local_coeffs: call_update: 0 [ms]
[OGL LOG][Proc: 0]p_non_local_coeffs: call_update: 0 [ms]
[OGL LOG][Proc: 0]p: update_local_matrix_data: 4.386 [ms]
[OGL LOG][Proc: 0]p: update_non_local_matrix_data: 0.036 [ms]
[OGL LOG][Proc: 0]p: regenerate_distributed_matrix: 12.164 [ms]
[OGL LOG][Proc: 0]p_matrix: call_update: 13.225 [ms]
[OGL LOG][Proc: 0]p_rhs: call_update: 0.217 [ms]
[OGL LOG][Preconditioner.H:271] Generate preconditioner GISAI SparsityPower 1
[OGL LOG][Proc: 0]p: init_precond: 17.299 [ms]
[OGL LOG][StoppingCriterion.H:237] Creating stopping criterion with minIter 99 frequency 4
[OGL LOG][Proc: 0]p: generate_solver: 0.001 [ms]
[OGL LOG][Proc: 0]p: solve: 1470.15 [ms]
[OGL LOG][Proc: 0]p: copy_x_back: 0.18 [ms]
[OGL LOG][lduLduBase.H:330] 
Statistics:
	Time per iteration: 8305 [mu s]
	Time per residual norm calculation: 2151.000000 [mu s]
	Time per iteration and DOF: 8.305000 [ns]
	Retrieve results bandwidth 2.777000 [GByte/s]
[OGL LOG][Proc: 0]p: solve_multi_gpu: 1504.21 [ms]
GISAIcudaGKOCG:  Solving for p, Initial residual = 0.010853, Final residual = 8.78327e-05, No Iterations 177
[INFO] SolveP: 1509.85 [ms]
time step continuity errors : sum local = 1.44322e-08, global = -1.04349e-21, cumulative = -2.4548e-21
[INFO] ContinuityError: 2.438 [ms]
[INFO] CorrectBoundary: 0.318 [ms]
[INFO] PISOStep: 1535.44 [ms]
[INFO] MatrixAssemblyPI: 12.517 [ms]
[INFO] AdjustPhi: 0.778 [ms]
[INFO] ConstrainPressure: 0.001 [ms]
[INFO] MatrixAssemblyPII: 3.825 [ms]
[OGL LOG][Proc: 0]: global_index_init: 0.019 [ms]
[OGL LOG][Proc: 0]p_local_coeffs: call_update: 0 [ms]
[OGL LOG][Proc: 0]p_non_local_coeffs: call_update: 0 [ms]
[OGL LOG][Proc: 0]p: update_local_matrix_data: 3.533 [ms]
[OGL LOG][Proc: 0]p: update_non_local_matrix_data: 0.046 [ms]
[OGL LOG][Proc: 0]p: regenerate_distributed_matrix: 10.712 [ms]
[OGL LOG][Proc: 0]p_matrix: call_update: 11.115 [ms]
[OGL LOG][Proc: 0]p_rhs: call_update: 1.132 [ms]
[OGL LOG][Preconditioner.H:271] Generate preconditioner GISAI SparsityPower 1
[OGL LOG][Proc: 0]p: init_precond: 18.389 [ms]
[OGL LOG][StoppingCriterion.H:237] Creating stopping criterion with minIter 106 frequency 4
[OGL LOG][Proc: 0]p: generate_solver: 0.001 [ms]
[OGL LOG][Proc: 0]p: solve: 1426.33 [ms]
[OGL LOG][Proc: 0]p: copy_x_back: 0.163 [ms]
[OGL LOG][lduLduBase.H:330] 
Statistics:
	Time per iteration: 8244 [mu s]
	Time per residual norm calculation: 2454.000000 [mu s]
	Time per iteration and DOF: 8.244000 [ns]
	Retrieve results bandwidth 3.067000 [GByte/s]
[OGL LOG][Proc: 0]p: solve_multi_gpu: 1460.9 [ms]
GISAIcudaGKOCG:  Solving for p, Initial residual = 0.0101337, Final residual = 8.64313e-05, No Iterations 173
[INFO] SolveP: 1466 [ms]
time step continuity errors : sum local = 1.26686e-08, global = 1.01379e-20, cumulative = 7.68307e-21
[INFO] ContinuityError: 2.52 [ms]
[INFO] CorrectBoundary: 0.613 [ms]
[INFO] PISOStep: 1491.46 [ms]
[INFO] TimeStep: 3132.74 [ms]
ExecutionTime = 83.94 s  ClockTime = 86 s

Time = 0.009

Courant Number mean: 0.0715857 max: 0.477902
[INFO] MatrixAssemblyU: 12.321 [ms]
DILUPBiCGStab:  Solving for Ux, Initial residual = 0.00425561, Final residual = 1.25463e-05, No Iterations 5
DILUPBiCGStab:  Solving for Uy, Initial residual = 0.00919179, Final residual = 2.2711e-05, No Iterations 5
DILUPBiCGStab:  Solving for Uz, Initial residual = 0.0192656, Final residual = 5.55824e-05, No Iterations 5
[INFO] MomentumPredictor: 93.815 [ms]
[INFO] MatrixAssemblyPI: 13.012 [ms]
[INFO] AdjustPhi: 0.525 [ms]
[INFO] ConstrainPressure: 0.002 [ms]
[INFO] MatrixAssemblyPII: 3.972 [ms]
[OGL LOG][Proc: 0]: global_index_init: 0.015 [ms]
[OGL LOG][Proc: 0]p_local_coeffs: call_update: 0 [ms]
[OGL LOG][Proc: 0]p_non_local_coeffs: call_update: 0 [ms]
[OGL LOG][Proc: 0]p: update_local_matrix_data: 4.386 [ms]
[OGL LOG][Proc: 0]p: update_non_local_matrix_data: 0.036 [ms]
[OGL LOG][Proc: 0]p: regenerate_distributed_matrix: 12.412 [ms]
[OGL LOG][Proc: 0]p_matrix: call_update: 13.669 [ms]
[OGL LOG][Proc: 0]p_rhs: call_update: 0.11 [ms]
[OGL LOG][Preconditioner.H:271] Generate preconditioner GISAI SparsityPower 1
[OGL LOG][Proc: 0]p: init_precond: 18.267 [ms]
[OGL LOG][StoppingCriterion.H:237] Creating stopping criterion with minIter 103 frequency 4
[OGL LOG][Proc: 0]p: generate_solver: 0.001 [ms]
[OGL LOG][Proc: 0]p: solve: 1465 [ms]
[OGL LOG][Proc: 0]p: copy_x_back: 0.359 [ms]
[OGL LOG][lduLduBase.H:330] 
Statistics:
	Time per iteration: 8276 [mu s]
	Time per residual norm calculation: 2147.000000 [mu s]
	Time per iteration and DOF: 8.276000 [ns]
	Retrieve results bandwidth 1.392000 [GByte/s]
[OGL LOG][Proc: 0]p: solve_multi_gpu: 1500.84 [ms]
GISAIcudaGKOCG:  Solving for p, Initial residual = 0.0100094, Final residual = 9.78185e-05, No Iterations 177
[INFO] SolveP: 1506.11 [ms]
time step continuity errors : sum local = 1.62602e-08, global = 2.8637e-21, cumulative = 1.05468e-20
[INFO] ContinuityError: 1.334 [ms]
[INFO] CorrectBoundary: 0.088 [ms]
[INFO] PISOStep: 1532.67 [ms]
[INFO] MatrixAssemblyPI: 12.563 [ms]
[INFO] AdjustPhi: 0.561 [ms]
[INFO] ConstrainPressure: 0.002 [ms]
[INFO] MatrixAssemblyPII: 4.145 [ms]
[OGL LOG][Proc: 0]: global_index_init: 0.011 [ms]
[OGL LOG][Proc: 0]p_local_coeffs: call_update: 0 [ms]
[OGL LOG][Proc: 0]p_non_local_coeffs: call_update: 0 [ms]
[OGL LOG][Proc: 0]p: update_local_matrix_data: 3.456 [ms]
[OGL LOG][Proc: 0]p: update_non_local_matrix_data: 0.052 [ms]
[OGL LOG][Proc: 0]p: regenerate_distributed_matrix: 11.144 [ms]
[OGL LOG][Proc: 0]p_matrix: call_update: 12.024 [ms]
[OGL LOG][Proc: 0]p_rhs: call_update: 0.303 [ms]
[OGL LOG][Preconditioner.H:271] Generate preconditioner GISAI SparsityPower 1
[OGL LOG][Proc: 0]p: init_precond: 18.396 [ms]
[OGL LOG][StoppingCriterion.H:237] Creating stopping criterion with minIter 106 frequency 4
[OGL LOG][Proc: 0]p: generate_solver: 0.001 [ms]
[OGL LOG][Proc: 0]p: solve: 1430.93 [ms]
[OGL LOG][Proc: 0]p: copy_x_back: 0.18 [ms]
[OGL LOG][lduLduBase.H:330] 
Statistics:
	Time per iteration: 8271 [mu s]
	Time per residual norm calculation: 2446.000000 [mu s]
	Time per iteration and DOF: 8.271000 [ns]
	Retrieve results bandwidth 2.777000 [GByte/s]
[OGL LOG][Proc: 0]p: solve_multi_gpu: 1466.27 [ms]
GISAIcudaGKOCG:  Solving for p, Initial residual = 0.00942374, Final residual = 8.25194e-05, No Iterations 173
[INFO] SolveP: 1470.51 [ms]
time step continuity errors : sum local = 1.2345e-08, global = -5.9071e-21, cumulative = 4.63967e-21
[INFO] ContinuityError: 2.66 [ms]
[INFO] CorrectBoundary: 0.5 [ms]
[INFO] PISOStep: 1495.86 [ms]
[INFO] TimeStep: 3136.52 [ms]
ExecutionTime = 87.07 s  ClockTime = 89 s

Time = 0.0095

Courant Number mean: 0.0726727 max: 0.478315
[INFO] MatrixAssemblyU: 12.628 [ms]
DILUPBiCGStab:  Solving for Ux, Initial residual = 0.00396321, Final residual = 1.15097e-05, No Iterations 5
DILUPBiCGStab:  Solving for Uy, Initial residual = 0.00852675, Final residual = 2.13198e-05, No Iterations 5
DILUPBiCGStab:  Solving for Uz, Initial residual = 0.0183612, Final residual = 5.8032e-05, No Iterations 5
[INFO] MomentumPredictor: 90.794 [ms]
[INFO] MatrixAssemblyPI: 12.622 [ms]
[INFO] AdjustPhi: 0.624 [ms]
[INFO] ConstrainPressure: 0.001 [ms]
[INFO] MatrixAssemblyPII: 3.889 [ms]
[OGL LOG][Proc: 0]: global_index_init: 0.015 [ms]
[OGL LOG][Proc: 0]p_local_coeffs: call_update: 0 [ms]
[OGL LOG][Proc: 0]p_non_local_coeffs: call_update: 0 [ms]
[OGL LOG][Proc: 0]p: update_local_matrix_data: 4.802 [ms]
[OGL LOG][Proc: 0]p: update_non_local_matrix_data: 0.035 [ms]
[OGL LOG][Proc: 0]p: regenerate_distributed_matrix: 12.496 [ms]
[OGL LOG][Proc: 0]p_matrix: call_update: 13.526 [ms]
[OGL LOG][Proc: 0]p_rhs: call_update: 0.189 [ms]
[OGL LOG][Preconditioner.H:271] Generate preconditioner GISAI SparsityPower 1
[OGL LOG][Proc: 0]p: init_precond: 18.536 [ms]
[OGL LOG][StoppingCriterion.H:237] Creating stopping criterion with minIter 103 frequency 4
[OGL LOG][Proc: 0]p: generate_solver: 0.001 [ms]
[OGL LOG][Proc: 0]p: solve: 3258.12 [ms]
[OGL LOG][Proc: 0]p: copy_x_back: 0.175 [ms]
[OGL LOG][lduLduBase.H:330] 
Statistics:
	Time per iteration: 8375 [mu s]
	Time per residual norm calculation: 2151.000000 [mu s]
	Time per iteration and DOF: 8.375000 [ns]
	Retrieve results bandwidth 2.857000 [GByte/s]
[OGL LOG][Proc: 0]p: solve_multi_gpu: 3293.27 [ms]
GISAIcudaGKOCG:  Solving for p, Initial residual = 0.00929628, Final residual = 8.82845e-05, No Iterations 389
[INFO] SolveP: 3298.95 [ms]
time step continuity errors : sum local = 1.23482e-08, global = -6.35568e-21, cumulative = -1.71601e-21
[INFO] ContinuityError: 2.584 [ms]
[INFO] CorrectBoundary: 0.918 [ms]
[INFO] PISOStep: 3324.52 [ms]
[INFO] MatrixAssemblyPI: 12.009 [ms]
[INFO] AdjustPhi: 1.519 [ms]
[INFO] ConstrainPressure: 0.002 [ms]
[INFO] MatrixAssemblyPII: 3.873 [ms]
[OGL LOG][Proc: 0]: global_index_init: 0.008 [ms]
[OGL LOG][Proc: 0]p_local_coeffs: call_update: 0 [ms]
[OGL LOG][Proc: 0]p_non_local_coeffs: call_update: 0 [ms]
[OGL LOG][Proc: 0]p: update_local_matrix_data: 4.912 [ms]
[OGL LOG][Proc: 0]p: update_non_local_matrix_data: 0.038 [ms]
[OGL LOG][Proc: 0]p: regenerate_distributed_matrix: 11.265 [ms]
[OGL LOG][Proc: 0]p_matrix: call_update: 12.51 [ms]
[OGL LOG][Proc: 0]p_rhs: call_update: 0.086 [ms]
[OGL LOG][Preconditioner.H:271] Generate preconditioner GISAI SparsityPower 1
[OGL LOG][Proc: 0]p: init_precond: 17.928 [ms]
[OGL LOG][StoppingCriterion.H:237] Creating stopping criterion with minIter 233 frequency 7
[OGL LOG][Proc: 0]p: generate_solver: 0.001 [ms]
[OGL LOG][Proc: 0]p: solve: 3123.58 [ms]
[OGL LOG][Proc: 0]p: copy_x_back: 0.168 [ms]
[OGL LOG][lduLduBase.H:330] 
Statistics:
	Time per iteration: 8092 [mu s]
	Time per residual norm calculation: 2448.000000 [mu s]
	Time per iteration and DOF: 8.092000 [ns]
	Retrieve results bandwidth 2.976000 [GByte/s]
[OGL LOG][Proc: 0]p: solve_multi_gpu: 3157.23 [ms]
GISAIcudaGKOCG:  Solving for p, Initial residual = 0.00879684, Final residual = 8.81769e-05, No Iterations 386
[INFO] SolveP: 3163.19 [ms]
time step continuity errors : sum local = 1.23376e-08, global = -7.157e-21, cumulative = -8.87301e-21
[INFO] ContinuityError: 1.942 [ms]
[INFO] CorrectBoundary: 0.056 [ms]
[INFO] PISOStep: 3188.77 [ms]
[INFO] TimeStep: 6618.93 [ms]
ExecutionTime = 93.68 s  ClockTime = 96 s

Time = 0.01

Courant Number mean: 0.0736903 max: 0.478693
[INFO] MatrixAssemblyU: 12.516 [ms]
DILUPBiCGStab:  Solving for Ux, Initial residual = 0.00368536, Final residual = 1.064e-05, No Iterations 5
DILUPBiCGStab:  Solving for Uy, Initial residual = 0.00795384, Final residual = 1.97504e-05, No Iterations 5
DILUPBiCGStab:  Solving for Uz, Initial residual = 0.0167228, Final residual = 4.10361e-05, No Iterations 5
[INFO] MomentumPredictor: 92.11 [ms]
[INFO] MatrixAssemblyPI: 12.51 [ms]
[INFO] AdjustPhi: 0.629 [ms]
[INFO] ConstrainPressure: 0.001 [ms]
[INFO] MatrixAssemblyPII: 3.889 [ms]
[OGL LOG][Proc: 0]: global_index_init: 0.008 [ms]
[OGL LOG][Proc: 0]p_local_coeffs: call_update: 0 [ms]
[OGL LOG][Proc: 0]p_non_local_coeffs: call_update: 0 [ms]
[OGL LOG][Proc: 0]p: update_local_matrix_data: 4.535 [ms]
[OGL LOG][Proc: 0]p: update_non_local_matrix_data: 0.036 [ms]
[OGL LOG][Proc: 0]p: regenerate_distributed_matrix: 12.7 [ms]
[OGL LOG][Proc: 0]p_matrix: call_update: 13.275 [ms]
[OGL LOG][Proc: 0]p_rhs: call_update: 0.802 [ms]
[OGL LOG][Preconditioner.H:271] Generate preconditioner GISAI SparsityPower 1
[OGL LOG][Proc: 0]p: init_precond: 18.231 [ms]
[OGL LOG][StoppingCriterion.H:237] Creating stopping criterion with minIter 231 frequency 7
[OGL LOG][Proc: 0]p: generate_solver: 0.001 [ms]
[OGL LOG][Proc: 0]p: solve: 3177.43 [ms]
[OGL LOG][Proc: 0]p: copy_x_back: 0.176 [ms]
[OGL LOG][lduLduBase.H:330] 
Statistics:
	Time per iteration: 8085 [mu s]
	Time per residual norm calculation: 2150.000000 [mu s]
	Time per iteration and DOF: 8.085000 [ns]
	Retrieve results bandwidth 2.840000 [GByte/s]
[OGL LOG][Proc: 0]p: solve_multi_gpu: 3212.7 [ms]
GISAIcudaGKOCG:  Solving for p, Initial residual = 0.00857648, Final residual = 5.62834e-05, No Iterations 393
[INFO] SolveP: 3218.36 [ms]
time step continuity errors : sum local = 7.8755e-09, global = 6.5022e-21, cumulative = -2.37082e-21
[INFO] ContinuityError: 2.702 [ms]
[INFO] CorrectBoundary: 0.938 [ms]
[INFO] PISOStep: 3244.74 [ms]
[INFO] MatrixAssemblyPI: 12.69 [ms]
[INFO] AdjustPhi: 0.813 [ms]
[INFO] ConstrainPressure: 0.002 [ms]
[INFO] MatrixAssemblyPII: 3.872 [ms]
[OGL LOG][Proc: 0]: global_index_init: 0.015 [ms]
[OGL LOG][Proc: 0]p_local_coeffs: call_update: 0 [ms]
[OGL LOG][Proc: 0]p_non_local_coeffs: call_update: 0 [ms]
[OGL LOG][Proc: 0]p: update_local_matrix_data: 4.016 [ms]
[OGL LOG][Proc: 0]p: update_non_local_matrix_data: 0.038 [ms]
[OGL LOG][Proc: 0]p: regenerate_distributed_matrix: 11.772 [ms]
[OGL LOG][Proc: 0]p_matrix: call_update: 13 [ms]
[OGL LOG][Proc: 0]p_rhs: call_update: 0.079 [ms]
[OGL LOG][Preconditioner.H:271] Generate preconditioner GISAI SparsityPower 1
[OGL LOG][Proc: 0]p: init_precond: 17.93 [ms]
[OGL LOG][StoppingCriterion.H:237] Creating stopping criterion with minIter 235 frequency 7
[OGL LOG][Proc: 0]p: generate_solver: 0.001 [ms]
[OGL LOG][Proc: 0]p: solve: 3123.9 [ms]
[OGL LOG][Proc: 0]p: copy_x_back: 0.203 [ms]
[OGL LOG][lduLduBase.H:330] 
Statistics:
	Time per iteration: 8093 [mu s]
	Time per residual norm calculation: 2729.000000 [mu s]
	Time per iteration and DOF: 8.093000 [ns]
	Retrieve results bandwidth 2.463000 [GByte/s]
[OGL LOG][Proc: 0]p: solve_multi_gpu: 3158.35 [ms]
GISAIcudaGKOCG:  Solving for p, Initial residual = 0.00812049, Final residual = 7.87212e-05, No Iterations 386
[INFO] SolveP: 3163.45 [ms]
time step continuity errors : sum local = 1.10189e-08, global = 1.12483e-20, cumulative = 8.8775e-21
[INFO] ContinuityError: 3.339 [ms]
[INFO] CorrectBoundary: 0.495 [ms]
[INFO] PISOStep: 3190.71 [ms]
[INFO] TimeStep: 6543.07 [ms]
ExecutionTime = 100.21 s  ClockTime = 102 s

End

Finalising parallel run
