/*---------------------------------------------------------------------------*\
| =========                 |                                                 |
| \\      /  F ield         | OpenFOAM: The Open Source CFD Toolbox           |
|  \\    /   O peration     | Version:  2306                                  |
|   \\  /    A nd           | Website:  www.openfoam.com                      |
|    \\/     M anipulation  |                                                 |
\*---------------------------------------------------------------------------*/
Build  : c423ebec-20231012 OPENFOAM=2306 version=v2306
Arch   : "LSB;label=32;scalar=64"
Exec   : icoFoam -parallel -case /hkfs/work/workspace/scratch/eq4036-l3d/workspace/b001922fa3d6387c65dbde451378d52e/case
Date   : Dec 30 2023
Time   : 00:35:13
Host   : hkn0837.localdomain
PID    : 964389
I/O    : uncollated
Case   : /hkfs/work/workspace/scratch/eq4036-l3d/workspace/b001922fa3d6387c65dbde451378d52e/case
nProcs : 76
Hosts  :
(
    (hkn0837.localdomain 76)
)
Pstream initialized with:
    floatTransfer      : false
    nProcsSimpleSum    : 0
    nonBlockingExchange: 0 (tuning: 0)
    exchange algorithm : -1
    commsType          : nonBlocking
    polling iterations : 0
trapFpe: Floating point exception trapping enabled (FOAM_SIGFPE).
fileModificationChecking : Monitoring run-time modified files using timeStampMaster (fileModificationSkew 5, maxFileModificationPolls 20)
allowSystemOperations : Allowing user-supplied system call operations

// * * * * * * * * * * * * * * * * * * * * * * * * * * * * * * * * * * * * * //
Create time

--> FOAM Warning : 
    From void* Foam::dlLibraryTable::openLibrary(const Foam::fileName&, bool)
    in file db/dynamicLibrary/dlLibraryTable/dlLibraryTable.C at line 188
    Could not load "libpetscFoam.so"
libpetscFoam.so: cannot open shared object file: No such file or directory
Create mesh for time = 0


PISO: Operating solver in PISO mode

Reading transportProperties

Reading field p

Reading field U

Reading/calculating face flux field phi


Starting time loop

Time = 0.000125

Courant Number mean: 8.02505e-18 max: 4.85723e-14
[INFO] MatrixAssemblyU: 527.952 [ms]
DILUPBiCGStab:  Solving for Ux, Initial residual = 1, Final residual = 0.0261796, No Iterations 5
DILUPBiCGStab:  Solving for Uy:  solution singularity
DILUPBiCGStab:  Solving for Uz:  solution singularity
[INFO] MomentumPredictor: 1776.79 [ms]
[INFO] MatrixAssemblyPI: 568.264 [ms]
[INFO] AdjustPhi: 40.257 [ms]
[INFO] ConstrainPressure: 0.009 [ms]
[INFO] MatrixAssemblyPII: 131.133 [ms]
GAMG:  Solving for p, Initial residual = 1, Final residual = 9.95109e-05, No Iterations 158
[INFO] SolveP: 44516.6 [ms]
time step continuity errors : sum local = 3.468e-09, global = 4.66006e-21, cumulative = 4.66006e-21
[INFO] ContinuityError: 54.164 [ms]
[INFO] CorrectBoundary: 6.241 [ms]
[INFO] PISOStep: 45521.7 [ms]
[INFO] MatrixAssemblyPI: 534.924 [ms]
[INFO] AdjustPhi: 30.021 [ms]
[INFO] ConstrainPressure: 0.005 [ms]
[INFO] MatrixAssemblyPII: 137.869 [ms]
GAMG:  Solving for p, Initial residual = 0.814219, Final residual = 9.93379e-05, No Iterations 153
[INFO] SolveP: 42111.5 [ms]
time step continuity errors : sum local = 4.08006e-09, global = 1.7162e-21, cumulative = 6.37626e-21
[INFO] ContinuityError: 54.597 [ms]
[INFO] CorrectBoundary: 4.336 [ms]
[INFO] PISOStep: 43067.3 [ms]
[INFO] TimeStep: 90962.8 [ms]
ExecutionTime = 92.44 s  ClockTime = 94 s

Time = 0.00025

Courant Number mean: 0.0105487 max: 0.436449
[INFO] MatrixAssemblyU: 415.772 [ms]
DILUPBiCGStab:  Solving for Ux, Initial residual = 0.108668, Final residual = 0.0159875, No Iterations 5
DILUPBiCGStab:  Solving for Uy, Initial residual = 0.487248, Final residual = 0.0585736, No Iterations 5
DILUPBiCGStab:  Solving for Uz, Initial residual = 0.984572, Final residual = 0.148377, No Iterations 5
[INFO] MomentumPredictor: 3424.97 [ms]
[INFO] MatrixAssemblyPI: 551.626 [ms]
[INFO] AdjustPhi: 25.664 [ms]
[INFO] ConstrainPressure: 0.004 [ms]
[INFO] MatrixAssemblyPII: 134.021 [ms]
GAMG:  Solving for p, Initial residual = 0.922269, Final residual = 9.85592e-05, No Iterations 274
[INFO] SolveP: 75491.4 [ms]
time step continuity errors : sum local = 8.46301e-09, global = 3.32189e-21, cumulative = 9.69815e-21
[INFO] ContinuityError: 53.523 [ms]
[INFO] CorrectBoundary: 8.311 [ms]
[INFO] PISOStep: 76456.5 [ms]
[INFO] MatrixAssemblyPI: 539.265 [ms]
[INFO] AdjustPhi: 20.817 [ms]
[INFO] ConstrainPressure: 0.006 [ms]
[INFO] MatrixAssemblyPII: 133.637 [ms]
GAMG:  Solving for p, Initial residual = 0.840605, Final residual = 9.91203e-05, No Iterations 272
[INFO] SolveP: 75195.6 [ms]
time step continuity errors : sum local = 8.73192e-09, global = 3.21108e-21, cumulative = 1.29092e-20
[INFO] ContinuityError: 55.979 [ms]
[INFO] CorrectBoundary: 4.276 [ms]
[INFO] PISOStep: 76141.8 [ms]
[INFO] TimeStep: 156493 [ms]
ExecutionTime = 248.12 s  ClockTime = 250 s

Time = 0.000375

Courant Number mean: 0.0166114 max: 0.5094
[INFO] MatrixAssemblyU: 429.879 [ms]
DILUPBiCGStab:  Solving for Ux, Initial residual = 0.0536647, Final residual = 0.00658956, No Iterations 5
DILUPBiCGStab:  Solving for Uy, Initial residual = 0.260363, Final residual = 0.0299807, No Iterations 5
DILUPBiCGStab:  Solving for Uz, Initial residual = 0.896082, Final residual = 0.138466, No Iterations 5
[INFO] MomentumPredictor: 3374.04 [ms]
[INFO] MatrixAssemblyPI: 550.761 [ms]
[INFO] AdjustPhi: 30.064 [ms]
[INFO] ConstrainPressure: 0.003 [ms]
[INFO] MatrixAssemblyPII: 134.123 [ms]
GAMG:  Solving for p, Initial residual = 0.948675, Final residual = 9.83743e-05, No Iterations 313
[INFO] SolveP: 86183.1 [ms]
time step continuity errors : sum local = 1.02502e-08, global = 3.14876e-21, cumulative = 1.6058e-20
[INFO] ContinuityError: 55.457 [ms]
[INFO] CorrectBoundary: 6.378 [ms]
[INFO] PISOStep: 87155.2 [ms]
[INFO] MatrixAssemblyPI: 541.383 [ms]
[INFO] AdjustPhi: 21.547 [ms]
[INFO] ConstrainPressure: 0.004 [ms]
[INFO] MatrixAssemblyPII: 135.104 [ms]
GAMG:  Solving for p, Initial residual = 0.889436, Final residual = 9.96496e-05, No Iterations 311
[INFO] SolveP: 85562.1 [ms]
time step continuity errors : sum local = 1.02918e-08, global = 3.32646e-21, cumulative = 1.93845e-20
[INFO] ContinuityError: 54.668 [ms]
[INFO] CorrectBoundary: 6.568 [ms]
[INFO] PISOStep: 86511.8 [ms]
[INFO] TimeStep: 177526 [ms]
ExecutionTime = 424.73 s  ClockTime = 428 s

Time = 0.0005

Courant Number mean: 0.0202155 max: 0.47652
[INFO] MatrixAssemblyU: 422.549 [ms]
DILUPBiCGStab:  Solving for Ux, Initial residual = 0.0414563, Final residual = 0.0061528, No Iterations 5
DILUPBiCGStab:  Solving for Uy, Initial residual = 0.211253, Final residual = 0.0274654, No Iterations 5
DILUPBiCGStab:  Solving for Uz, Initial residual = 0.862396, Final residual = 0.137307, No Iterations 5
[INFO] MomentumPredictor: 3380.13 [ms]
[INFO] MatrixAssemblyPI: 544.572 [ms]
[INFO] AdjustPhi: 27.162 [ms]
[INFO] ConstrainPressure: 0.004 [ms]
[INFO] MatrixAssemblyPII: 134.134 [ms]
GAMG:  Solving for p, Initial residual = 0.945515, Final residual = 9.99326e-05, No Iterations 312
[INFO] SolveP: 85774.9 [ms]
time step continuity errors : sum local = 1.24852e-08, global = 4.64753e-21, cumulative = 2.4032e-20
[INFO] ContinuityError: 56.742 [ms]
[INFO] CorrectBoundary: 7.809 [ms]
[INFO] PISOStep: 86737.9 [ms]
[INFO] MatrixAssemblyPI: 533.219 [ms]
[INFO] AdjustPhi: 32.925 [ms]
[INFO] ConstrainPressure: 0.004 [ms]
[INFO] MatrixAssemblyPII: 132.183 [ms]
GAMG:  Solving for p, Initial residual = 0.867355, Final residual = 9.87415e-05, No Iterations 310
[INFO] SolveP: 85304.9 [ms]
time step continuity errors : sum local = 1.255e-08, global = 3.53474e-21, cumulative = 2.75667e-20
[INFO] ContinuityError: 55.203 [ms]
[INFO] CorrectBoundary: 3.911 [ms]
[INFO] PISOStep: 86259.4 [ms]
[INFO] TimeStep: 176855 [ms]
ExecutionTime = 600.67 s  ClockTime = 605 s

Time = 0.000625

Courant Number mean: 0.0232313 max: 0.552103
[INFO] MatrixAssemblyU: 422.561 [ms]
DILUPBiCGStab:  Solving for Ux, Initial residual = 0.0372457, Final residual = 0.00563623, No Iterations 5
DILUPBiCGStab:  Solving for Uy, Initial residual = 0.181152, Final residual = 0.0225055, No Iterations 5
DILUPBiCGStab:  Solving for Uz, Initial residual = 0.859694, Final residual = 0.147944, No Iterations 5
[INFO] MomentumPredictor: 3437.3 [ms]
[INFO] MatrixAssemblyPI: 547.187 [ms]
[INFO] AdjustPhi: 27.142 [ms]
[INFO] ConstrainPressure: 0.003 [ms]
[INFO] MatrixAssemblyPII: 133.806 [ms]
GAMG:  Solving for p, Initial residual = 0.959161, Final residual = 9.93901e-05, No Iterations 320
[INFO] SolveP: 88044.8 [ms]
time step continuity errors : sum local = 1.39994e-08, global = 4.00081e-21, cumulative = 3.15675e-20
[INFO] ContinuityError: 55.504 [ms]
[INFO] CorrectBoundary: 8.312 [ms]
[INFO] PISOStep: 89013.3 [ms]
[INFO] MatrixAssemblyPI: 535.307 [ms]
[INFO] AdjustPhi: 36.232 [ms]
[INFO] ConstrainPressure: 0.003 [ms]
[INFO] MatrixAssemblyPII: 134.081 [ms]
GAMG:  Solving for p, Initial residual = 0.899492, Final residual = 9.88433e-05, No Iterations 319
[INFO] SolveP: 88161.4 [ms]
time step continuity errors : sum local = 1.38467e-08, global = 3.61349e-21, cumulative = 3.5181e-20
[INFO] ContinuityError: 59.467 [ms]
[INFO] CorrectBoundary: 4.084 [ms]
[INFO] PISOStep: 89123.4 [ms]
[INFO] TimeStep: 182054 [ms]
ExecutionTime = 781.79 s  ClockTime = 787 s

Time = 0.00075

Courant Number mean: 0.0255334 max: 0.48217
[INFO] MatrixAssemblyU: 418.59 [ms]
DILUPBiCGStab:  Solving for Ux, Initial residual = 0.0348983, Final residual = 0.0052507, No Iterations 5
DILUPBiCGStab:  Solving for Uy, Initial residual = 0.166868, Final residual = 0.0192658, No Iterations 5
DILUPBiCGStab:  Solving for Uz, Initial residual = 0.832294, Final residual = 0.142785, No Iterations 5
[INFO] MomentumPredictor: 3413.41 [ms]
[INFO] MatrixAssemblyPI: 546.304 [ms]
[INFO] AdjustPhi: 22.542 [ms]
[INFO] ConstrainPressure: 0.003 [ms]
[INFO] MatrixAssemblyPII: 133.801 [ms]
GAMG:  Solving for p, Initial residual = 0.955861, Final residual = 9.99129e-05, No Iterations 316
[INFO] SolveP: 86785.7 [ms]
time step continuity errors : sum local = 1.6047e-08, global = 3.74722e-21, cumulative = 3.89283e-20
[INFO] ContinuityError: 57.061 [ms]
[INFO] CorrectBoundary: 6.139 [ms]
[INFO] PISOStep: 87743.7 [ms]
[INFO] MatrixAssemblyPI: 539.967 [ms]
[INFO] AdjustPhi: 34.296 [ms]
[INFO] ConstrainPressure: 0.003 [ms]
[INFO] MatrixAssemblyPII: 134.096 [ms]
GAMG:  Solving for p, Initial residual = 0.879607, Final residual = 9.95142e-05, No Iterations 312
[INFO] SolveP: 86278.8 [ms]
time step continuity errors : sum local = 1.62157e-08, global = 4.43499e-21, cumulative = 4.33632e-20
[INFO] ContinuityError: 56.773 [ms]
[INFO] CorrectBoundary: 4.143 [ms]
[INFO] PISOStep: 87242.9 [ms]
[INFO] TimeStep: 178882 [ms]
ExecutionTime = 959.75 s  ClockTime = 965 s

Time = 0.000875

Courant Number mean: 0.0276814 max: 0.603192
[INFO] MatrixAssemblyU: 418.376 [ms]
DILUPBiCGStab:  Solving for Ux, Initial residual = 0.034262, Final residual = 0.0049694, No Iterations 5
DILUPBiCGStab:  Solving for Uy, Initial residual = 0.170069, Final residual = 0.0182288, No Iterations 5
DILUPBiCGStab:  Solving for Uz, Initial residual = 0.833339, Final residual = 0.144089, No Iterations 5
[INFO] MomentumPredictor: 3452.79 [ms]
[INFO] MatrixAssemblyPI: 546.014 [ms]
[INFO] AdjustPhi: 20.651 [ms]
[INFO] ConstrainPressure: 0.003 [ms]
[INFO] MatrixAssemblyPII: 133.84 [ms]
GAMG:  Solving for p, Initial residual = 0.965511, Final residual = 9.8398e-05, No Iterations 321
[INFO] SolveP: 88350.6 [ms]
time step continuity errors : sum local = 1.75637e-08, global = 3.15398e-21, cumulative = 4.65172e-20
[INFO] ContinuityError: 56.389 [ms]
[INFO] CorrectBoundary: 4.071 [ms]
[INFO] PISOStep: 89305.5 [ms]
[INFO] MatrixAssemblyPI: 539.819 [ms]
[INFO] AdjustPhi: 30.588 [ms]
[INFO] ConstrainPressure: 0.003 [ms]
[INFO] MatrixAssemblyPII: 134.068 [ms]
GAMG:  Solving for p, Initial residual = 0.903753, Final residual = 9.91677e-05, No Iterations 319
[INFO] SolveP: 87744.3 [ms]
time step continuity errors : sum local = 1.7642e-08, global = 4.21822e-21, cumulative = 5.07354e-20
[INFO] ContinuityError: 61.961 [ms]
[INFO] CorrectBoundary: 2.973 [ms]
[INFO] PISOStep: 88709.2 [ms]
[INFO] TimeStep: 181945 [ms]
ExecutionTime = 1140.78 s  ClockTime = 1147 s

Time = 0.001

Courant Number mean: 0.0294059 max: 0.489657
[INFO] MatrixAssemblyU: 422.141 [ms]
DILUPBiCGStab:  Solving for Ux, Initial residual = 0.035072, Final residual = 0.00477684, No Iterations 5
DILUPBiCGStab:  Solving for Uy, Initial residual = 0.162589, Final residual = 0.0158606, No Iterations 5
DILUPBiCGStab:  Solving for Uz, Initial residual = 0.816989, Final residual = 0.137245, No Iterations 5
[INFO] MomentumPredictor: 3396.89 [ms]
[INFO] MatrixAssemblyPI: 551.929 [ms]
[INFO] AdjustPhi: 30.738 [ms]
[INFO] ConstrainPressure: 0.006 [ms]
[INFO] MatrixAssemblyPII: 132.849 [ms]
GAMG:  Solving for p, Initial residual = 0.963061, Final residual = 9.86169e-05, No Iterations 319
[INFO] SolveP: 87770.5 [ms]
time step continuity errors : sum local = 1.99109e-08, global = 4.78294e-21, cumulative = 5.55184e-20
[INFO] ContinuityError: 57.167 [ms]
[INFO] CorrectBoundary: 4.2 [ms]
[INFO] PISOStep: 88741.3 [ms]
[INFO] MatrixAssemblyPI: 541.394 [ms]
[INFO] AdjustPhi: 22.721 [ms]
[INFO] ConstrainPressure: 0.005 [ms]
[INFO] MatrixAssemblyPII: 133.145 [ms]
GAMG:  Solving for p, Initial residual = 0.886961, Final residual = 9.93077e-05, No Iterations 314
[INFO] SolveP: 86621.8 [ms]
time step continuity errors : sum local = 2.03194e-08, global = 5.23877e-21, cumulative = 6.07571e-20
[INFO] ContinuityError: 56.695 [ms]
[INFO] CorrectBoundary: 3.467 [ms]
[INFO] PISOStep: 87575.5 [ms]
[INFO] TimeStep: 180194 [ms]
ExecutionTime = 1320.04 s  ClockTime = 1328 s

Time = 0.001125

Courant Number mean: 0.0311619 max: 0.676349
[INFO] MatrixAssemblyU: 423.056 [ms]
DILUPBiCGStab:  Solving for Ux, Initial residual = 0.0357754, Final residual = 0.00450877, No Iterations 5
DILUPBiCGStab:  Solving for Uy, Initial residual = 0.176934, Final residual = 0.0163442, No Iterations 5
DILUPBiCGStab:  Solving for Uz, Initial residual = 0.815852, Final residual = 0.13461, No Iterations 5
[INFO] MomentumPredictor: 3394.3 [ms]
[INFO] MatrixAssemblyPI: 549.763 [ms]
[INFO] AdjustPhi: 20.274 [ms]
[INFO] ConstrainPressure: 0.004 [ms]
[INFO] MatrixAssemblyPII: 133.635 [ms]
GAMG:  Solving for p, Initial residual = 0.970171, Final residual = 9.97521e-05, No Iterations 319
[INFO] SolveP: 87754.9 [ms]
time step continuity errors : sum local = 2.26393e-08, global = 4.28857e-21, cumulative = 6.50457e-20
[INFO] ContinuityError: 55.732 [ms]
[INFO] CorrectBoundary: 4.776 [ms]
[INFO] PISOStep: 88717.1 [ms]
[INFO] MatrixAssemblyPI: 537.714 [ms]
[INFO] AdjustPhi: 22.567 [ms]
[INFO] ConstrainPressure: 0.006 [ms]
[INFO] MatrixAssemblyPII: 134.149 [ms]
GAMG:  Solving for p, Initial residual = 0.906682, Final residual = 9.87569e-05, No Iterations 318
[INFO] SolveP: 87623.1 [ms]
time step continuity errors : sum local = 2.23821e-08, global = 4.85826e-21, cumulative = 6.9904e-20
[INFO] ContinuityError: 56.369 [ms]
[INFO] CorrectBoundary: 2.623 [ms]
[INFO] PISOStep: 88572.2 [ms]
[INFO] TimeStep: 181164 [ms]
ExecutionTime = 1500.29 s  ClockTime = 1509 s

Time = 0.00125

Courant Number mean: 0.0325589 max: 0.503019
[INFO] MatrixAssemblyU: 422.126 [ms]
DILUPBiCGStab:  Solving for Ux, Initial residual = 0.0384976, Final residual = 0.00458217, No Iterations 5
DILUPBiCGStab:  Solving for Uy, Initial residual = 0.174105, Final residual = 0.0145215, No Iterations 5
DILUPBiCGStab:  Solving for Uz, Initial residual = 0.807871, Final residual = 0.128841, No Iterations 5
[INFO] MomentumPredictor: 3396.76 [ms]
[INFO] MatrixAssemblyPI: 549.806 [ms]
[INFO] AdjustPhi: 21.217 [ms]
[INFO] ConstrainPressure: 0.003 [ms]
[INFO] MatrixAssemblyPII: 133.825 [ms]
GAMG:  Solving for p, Initial residual = 0.969287, Final residual = 9.98228e-05, No Iterations 317
[INFO] SolveP: 87151.7 [ms]
time step continuity errors : sum local = 2.59625e-08, global = 5.39784e-21, cumulative = 7.53018e-20
[INFO] ContinuityError: 55.339 [ms]
[INFO] CorrectBoundary: 4.457 [ms]
[INFO] PISOStep: 88111.1 [ms]
[INFO] MatrixAssemblyPI: 538.925 [ms]
[INFO] AdjustPhi: 23.638 [ms]
[INFO] ConstrainPressure: 0.004 [ms]
[INFO] MatrixAssemblyPII: 133.306 [ms]
GAMG:  Solving for p, Initial residual = 0.893624, Final residual = 9.90446e-05, No Iterations 312
[INFO] SolveP: 86109.5 [ms]
time step continuity errors : sum local = 2.60809e-08, global = 5.20103e-21, cumulative = 8.05029e-20
[INFO] ContinuityError: 56.961 [ms]
[INFO] CorrectBoundary: 3.019 [ms]
[INFO] PISOStep: 87059.6 [ms]
[INFO] TimeStep: 179047 [ms]
ExecutionTime = 1678.42 s  ClockTime = 1688 s

Time = 0.001375

Courant Number mean: 0.0340996 max: 0.786653
[INFO] MatrixAssemblyU: 423.799 [ms]
DILUPBiCGStab:  Solving for Ux, Initial residual = 0.0404508, Final residual = 0.00436533, No Iterations 5
DILUPBiCGStab:  Solving for Uy, Initial residual = 0.194783, Final residual = 0.0156882, No Iterations 5
DILUPBiCGStab:  Solving for Uz, Initial residual = 0.808662, Final residual = 0.125762, No Iterations 5
[INFO] MomentumPredictor: 3399.77 [ms]
[INFO] MatrixAssemblyPI: 552.042 [ms]
[INFO] AdjustPhi: 21.771 [ms]
[INFO] ConstrainPressure: 0.004 [ms]
[INFO] MatrixAssemblyPII: 133.922 [ms]
GAMG:  Solving for p, Initial residual = 0.974485, Final residual = 9.87665e-05, No Iterations 317
[INFO] SolveP: 87320.6 [ms]
time step continuity errors : sum local = 2.92954e-08, global = 4.92307e-21, cumulative = 8.54259e-20
[INFO] ContinuityError: 59.345 [ms]
[INFO] CorrectBoundary: 4.383 [ms]
[INFO] PISOStep: 88287.6 [ms]
[INFO] MatrixAssemblyPI: 539.067 [ms]
[INFO] AdjustPhi: 23.763 [ms]
[INFO] ConstrainPressure: 0.005 [ms]
[INFO] MatrixAssemblyPII: 133.461 [ms]
GAMG:  Solving for p, Initial residual = 0.909597, Final residual = 9.99426e-05, No Iterations 316
[INFO] SolveP: 86973.8 [ms]
time step continuity errors : sum local = 2.96487e-08, global = 6.07975e-21, cumulative = 9.15057e-20
[INFO] ContinuityError: 56.599 [ms]
[INFO] CorrectBoundary: 2.658 [ms]
[INFO] PISOStep: 87925.9 [ms]
[INFO] TimeStep: 180093 [ms]
ExecutionTime = 1857.58 s  ClockTime = 1868 s

Time = 0.0015

Courant Number mean: 0.0352842 max: 0.545154
[INFO] MatrixAssemblyU: 423.779 [ms]
DILUPBiCGStab:  Solving for Ux, Initial residual = 0.0448392, Final residual = 0.00460847, No Iterations 5
DILUPBiCGStab:  Solving for Uy, Initial residual = 0.196822, Final residual = 0.014457, No Iterations 5
DILUPBiCGStab:  Solving for Uz, Initial residual = 0.805003, Final residual = 0.120753, No Iterations 5
[INFO] MomentumPredictor: 3392.65 [ms]
[INFO] MatrixAssemblyPI: 549.121 [ms]
[INFO] AdjustPhi: 27.01 [ms]
[INFO] ConstrainPressure: 0.004 [ms]
[INFO] MatrixAssemblyPII: 133.5 [ms]
GAMG:  Solving for p, Initial residual = 0.974396, Final residual = 9.98933e-05, No Iterations 315
[INFO] SolveP: 86551.8 [ms]
time step continuity errors : sum local = 3.41652e-08, global = 4.20942e-21, cumulative = 9.57151e-20
[INFO] ContinuityError: 57.932 [ms]
[INFO] CorrectBoundary: 4.243 [ms]
[INFO] PISOStep: 87520.6 [ms]
[INFO] MatrixAssemblyPI: 536.998 [ms]
[INFO] AdjustPhi: 40.449 [ms]
[INFO] ConstrainPressure: 0.004 [ms]
[INFO] MatrixAssemblyPII: 132.564 [ms]
GAMG:  Solving for p, Initial residual = 0.900002, Final residual = 9.93697e-05, No Iterations 313
[INFO] SolveP: 86324.3 [ms]
time step continuity errors : sum local = 3.4369e-08, global = 4.48249e-21, cumulative = 1.00198e-19
[INFO] ContinuityError: 60.512 [ms]
[INFO] CorrectBoundary: 3.612 [ms]
[INFO] PISOStep: 87292.2 [ms]
[INFO] TimeStep: 178686 [ms]
ExecutionTime = 2035.38 s  ClockTime = 2047 s

Time = 0.001625

Courant Number mean: 0.0367025 max: 1.05081
[INFO] MatrixAssemblyU: 420.18 [ms]
DILUPBiCGStab:  Solving for Ux, Initial residual = 0.0482639, Final residual = 0.00450477, No Iterations 5
DILUPBiCGStab:  Solving for Uy, Initial residual = 0.221606, Final residual = 0.0159226, No Iterations 5
DILUPBiCGStab:  Solving for Uz, Initial residual = 0.806475, Final residual = 0.117598, No Iterations 5
[INFO] MomentumPredictor: 3423.35 [ms]
[INFO] MatrixAssemblyPI: 550.448 [ms]
[INFO] AdjustPhi: 22.831 [ms]
[INFO] ConstrainPressure: 0.004 [ms]
[INFO] MatrixAssemblyPII: 133.1 [ms]
GAMG:  Solving for p, Initial residual = 0.977996, Final residual = 9.90205e-05, No Iterations 314
[INFO] SolveP: 86334.3 [ms]
time step continuity errors : sum local = 3.89751e-08, global = 5.10445e-21, cumulative = 1.05302e-19
[INFO] ContinuityError: 55.743 [ms]
[INFO] CorrectBoundary: 4.314 [ms]
[INFO] PISOStep: 87297.8 [ms]
[INFO] MatrixAssemblyPI: 541.7 [ms]
[INFO] AdjustPhi: 40.982 [ms]
[INFO] ConstrainPressure: 0.006 [ms]
[INFO] MatrixAssemblyPII: 133.284 [ms]
GAMG:  Solving for p, Initial residual = 0.912293, Final residual = 9.91662e-05, No Iterations 314
[INFO] SolveP: 86473.4 [ms]
time step continuity errors : sum local = 3.90924e-08, global = 5.82671e-21, cumulative = 1.11129e-19
[INFO] ContinuityError: 56.587 [ms]
[INFO] CorrectBoundary: 3.17 [ms]
[INFO] PISOStep: 87446.5 [ms]
[INFO] TimeStep: 178653 [ms]
ExecutionTime = 2213.13 s  ClockTime = 2225 s

Time = 0.00175

Courant Number mean: 0.0377441 max: 0.875681
[INFO] MatrixAssemblyU: 419.992 [ms]
DILUPBiCGStab:  Solving for Ux, Initial residual = 0.0546142, Final residual = 0.00485795, No Iterations 5
DILUPBiCGStab:  Solving for Uy, Initial residual = 0.229031, Final residual = 0.015255, No Iterations 5
DILUPBiCGStab:  Solving for Uz, Initial residual = 0.804537, Final residual = 0.113085, No Iterations 5
[INFO] MomentumPredictor: 3449.13 [ms]
[INFO] MatrixAssemblyPI: 547.474 [ms]
[INFO] AdjustPhi: 23.975 [ms]
[INFO] ConstrainPressure: 0.003 [ms]
[INFO] MatrixAssemblyPII: 134.989 [ms]
GAMG:  Solving for p, Initial residual = 0.978501, Final residual = 9.9335e-05, No Iterations 315
[INFO] SolveP: 86515.5 [ms]
time step continuity errors : sum local = 4.53361e-08, global = 5.97491e-21, cumulative = 1.17104e-19
[INFO] ContinuityError: 58.13 [ms]
[INFO] CorrectBoundary: 4.395 [ms]
[INFO] PISOStep: 87478.9 [ms]
[INFO] MatrixAssemblyPI: 534.279 [ms]
[INFO] AdjustPhi: 52.093 [ms]
[INFO] ConstrainPressure: 0.003 [ms]
[INFO] MatrixAssemblyPII: 134.142 [ms]
GAMG:  Solving for p, Initial residual = 0.905181, Final residual = 9.87529e-05, No Iterations 313
[INFO] SolveP: 86396.3 [ms]
time step continuity errors : sum local = 4.55383e-08, global = 5.18425e-21, cumulative = 1.22288e-19
[INFO] ContinuityError: 56.798 [ms]
[INFO] CorrectBoundary: 3.963 [ms]
[INFO] PISOStep: 87372.8 [ms]
[INFO] TimeStep: 178778 [ms]
ExecutionTime = 2391 s  ClockTime = 2404 s

Time = 0.001875

Courant Number mean: 0.0391023 max: 1.49242
[INFO] MatrixAssemblyU: 420.589 [ms]
DILUPBiCGStab:  Solving for Ux, Initial residual = 0.0598089, Final residual = 0.00490589, No Iterations 5
DILUPBiCGStab:  Solving for Uy, Initial residual = 0.256911, Final residual = 0.0168416, No Iterations 5
DILUPBiCGStab:  Solving for Uz, Initial residual = 0.804669, Final residual = 0.109656, No Iterations 5
[INFO] MomentumPredictor: 3433.29 [ms]
[INFO] MatrixAssemblyPI: 552.241 [ms]
[INFO] AdjustPhi: 31.647 [ms]
[INFO] ConstrainPressure: 0.003 [ms]
[INFO] MatrixAssemblyPII: 134.063 [ms]
GAMG:  Solving for p, Initial residual = 0.980749, Final residual = 9.97628e-05, No Iterations 311
[INFO] SolveP: 85504.7 [ms]
time step continuity errors : sum local = 5.27839e-08, global = 6.52529e-21, cumulative = 1.28813e-19
[INFO] ContinuityError: 56.185 [ms]
[INFO] CorrectBoundary: 4.604 [ms]
[INFO] PISOStep: 86479.8 [ms]
[INFO] MatrixAssemblyPI: 537.172 [ms]
[INFO] AdjustPhi: 25.726 [ms]
[INFO] ConstrainPressure: 0.004 [ms]
[INFO] MatrixAssemblyPII: 133.091 [ms]
GAMG:  Solving for p, Initial residual = 0.914159, Final residual = 9.92387e-05, No Iterations 313
[INFO] SolveP: 86230.7 [ms]
time step continuity errors : sum local = 5.26649e-08, global = 5.7929e-21, cumulative = 1.34606e-19
[INFO] ContinuityError: 56.987 [ms]
[INFO] CorrectBoundary: 3.667 [ms]
[INFO] PISOStep: 87181 [ms]
[INFO] TimeStep: 177573 [ms]
ExecutionTime = 2567.67 s  ClockTime = 2582 s

Time = 0.002

Courant Number mean: 0.0400579 max: 1.43481
[INFO] MatrixAssemblyU: 420.227 [ms]
DILUPBiCGStab:  Solving for Ux, Initial residual = 0.0687325, Final residual = 0.00538464, No Iterations 5
DILUPBiCGStab:  Solving for Uy, Initial residual = 0.27006, Final residual = 0.0166709, No Iterations 5
DILUPBiCGStab:  Solving for Uz, Initial residual = 0.803633, Final residual = 0.10605, No Iterations 5
[INFO] MomentumPredictor: 3393 [ms]
[INFO] MatrixAssemblyPI: 552.335 [ms]
[INFO] AdjustPhi: 36.493 [ms]
[INFO] ConstrainPressure: 0.003 [ms]
[INFO] MatrixAssemblyPII: 134.015 [ms]
GAMG:  Solving for p, Initial residual = 0.981704, Final residual = 9.89964e-05, No Iterations 311
[INFO] SolveP: 85719.8 [ms]
time step continuity errors : sum local = 6.10321e-08, global = 5.73996e-21, cumulative = 1.40346e-19
[INFO] ContinuityError: 55.957 [ms]
[INFO] CorrectBoundary: 4.162 [ms]
[INFO] PISOStep: 86699.5 [ms]
[INFO] MatrixAssemblyPI: 538.487 [ms]
[INFO] AdjustPhi: 24.982 [ms]
[INFO] ConstrainPressure: 0.01 [ms]
[INFO] MatrixAssemblyPII: 133.291 [ms]
GAMG:  Solving for p, Initial residual = 0.909277, Final residual = 9.90514e-05, No Iterations 309
[INFO] SolveP: 84878.7 [ms]
time step continuity errors : sum local = 6.1655e-08, global = 5.24314e-21, cumulative = 1.45589e-19
[INFO] ContinuityError: 56.36 [ms]
[INFO] CorrectBoundary: 3.843 [ms]
[INFO] PISOStep: 85828.7 [ms]
[INFO] TimeStep: 176399 [ms]
ExecutionTime = 2743.16 s  ClockTime = 2758 s

Time = 0.002125

Courant Number mean: 0.0414089 max: 2.17227
[INFO] MatrixAssemblyU: 418.032 [ms]
DILUPBiCGStab:  Solving for Ux, Initial residual = 0.076172, Final residual = 0.0056089, No Iterations 5
DILUPBiCGStab:  Solving for Uy, Initial residual = 0.300608, Final residual = 0.0183452, No Iterations 5
DILUPBiCGStab:  Solving for Uz, Initial residual = 0.802544, Final residual = 0.102598, No Iterations 5
[INFO] MomentumPredictor: 3387.97 [ms]
[INFO] MatrixAssemblyPI: 551.953 [ms]
[INFO] AdjustPhi: 20.567 [ms]
[INFO] ConstrainPressure: 0.003 [ms]
[INFO] MatrixAssemblyPII: 133.479 [ms]
GAMG:  Solving for p, Initial residual = 0.982825, Final residual = 9.98921e-05, No Iterations 310
[INFO] SolveP: 84980.5 [ms]
time step continuity errors : sum local = 7.19232e-08, global = 5.20007e-21, cumulative = 1.50789e-19
[INFO] ContinuityError: 56.174 [ms]
[INFO] CorrectBoundary: 4.364 [ms]
[INFO] PISOStep: 85941.9 [ms]
[INFO] MatrixAssemblyPI: 539.438 [ms]
[INFO] AdjustPhi: 23.826 [ms]
[INFO] ConstrainPressure: 0.004 [ms]
[INFO] MatrixAssemblyPII: 133.46 [ms]
GAMG:  Solving for p, Initial residual = 0.91548, Final residual = 9.97209e-05, No Iterations 308
[INFO] SolveP: 84647.8 [ms]
time step continuity errors : sum local = 7.21054e-08, global = 5.29437e-21, cumulative = 1.56084e-19
[INFO] ContinuityError: 57.636 [ms]
[INFO] CorrectBoundary: 3.504 [ms]
[INFO] PISOStep: 85600.7 [ms]
[INFO] TimeStep: 175405 [ms]
ExecutionTime = 2917.66 s  ClockTime = 2933 s

Time = 0.00225

Courant Number mean: 0.0423363 max: 2.32918
[INFO] MatrixAssemblyU: 421.337 [ms]
DILUPBiCGStab:  Solving for Ux, Initial residual = 0.0886456, Final residual = 0.00627816, No Iterations 5
DILUPBiCGStab:  Solving for Uy, Initial residual = 0.319769, Final residual = 0.0186225, No Iterations 5
DILUPBiCGStab:  Solving for Uz, Initial residual = 0.801752, Final residual = 0.0997251, No Iterations 5
[INFO] MomentumPredictor: 3407.09 [ms]
[INFO] MatrixAssemblyPI: 548.416 [ms]
[INFO] AdjustPhi: 26.045 [ms]
[INFO] ConstrainPressure: 0.003 [ms]
[INFO] MatrixAssemblyPII: 133.503 [ms]
GAMG:  Solving for p, Initial residual = 0.984099, Final residual = 9.95494e-05, No Iterations 314
[INFO] SolveP: 85890.4 [ms]
time step continuity errors : sum local = 8.40243e-08, global = 7.76759e-21, cumulative = 1.63851e-19
[INFO] ContinuityError: 55.923 [ms]
[INFO] CorrectBoundary: 4.616 [ms]
[INFO] PISOStep: 86855 [ms]
[INFO] MatrixAssemblyPI: 537.397 [ms]
[INFO] AdjustPhi: 23.634 [ms]
[INFO] ConstrainPressure: 0.005 [ms]
[INFO] MatrixAssemblyPII: 133.166 [ms]
GAMG:  Solving for p, Initial residual = 0.912456, Final residual = 9.90393e-05, No Iterations 309
[INFO] SolveP: 84968.1 [ms]
time step continuity errors : sum local = 8.43655e-08, global = 6.28104e-21, cumulative = 1.70132e-19
[INFO] ContinuityError: 57.375 [ms]
[INFO] CorrectBoundary: 3.834 [ms]
[INFO] PISOStep: 85915.7 [ms]
[INFO] TimeStep: 176656 [ms]
ExecutionTime = 3093.42 s  ClockTime = 3110 s

Time = 0.002375

Courant Number mean: 0.043737 max: 3.21636
[INFO] MatrixAssemblyU: 420.359 [ms]
DILUPBiCGStab:  Solving for Ux, Initial residual = 0.0990383, Final residual = 0.00669302, No Iterations 5
DILUPBiCGStab:  Solving for Uy, Initial residual = 0.351934, Final residual = 0.0203719, No Iterations 5
DILUPBiCGStab:  Solving for Uz, Initial residual = 0.800128, Final residual = 0.0965065, No Iterations 5
[INFO] MomentumPredictor: 3385.99 [ms]
[INFO] MatrixAssemblyPI: 551.408 [ms]
[INFO] AdjustPhi: 21.781 [ms]
[INFO] ConstrainPressure: 0.003 [ms]
[INFO] MatrixAssemblyPII: 133.198 [ms]
GAMG:  Solving for p, Initial residual = 0.984559, Final residual = 9.90966e-05, No Iterations 311
[INFO] SolveP: 85793.2 [ms]
time step continuity errors : sum local = 9.83938e-08, global = 6.34205e-21, cumulative = 1.76474e-19
[INFO] ContinuityError: 56.19 [ms]
[INFO] CorrectBoundary: 5.496 [ms]
[INFO] PISOStep: 86753.7 [ms]
[INFO] MatrixAssemblyPI: 541.151 [ms]
[INFO] AdjustPhi: 25.309 [ms]
[INFO] ConstrainPressure: 0.003 [ms]
[INFO] MatrixAssemblyPII: 133.587 [ms]
GAMG:  Solving for p, Initial residual = 0.916565, Final residual = 9.84338e-05, No Iterations 311
[INFO] SolveP: 86122.7 [ms]
time step continuity errors : sum local = 9.82415e-08, global = 4.54365e-21, cumulative = 1.81018e-19
[INFO] ContinuityError: 58.04 [ms]
[INFO] CorrectBoundary: 3.147 [ms]
[INFO] PISOStep: 87081.6 [ms]
[INFO] TimeStep: 177699 [ms]
ExecutionTime = 3270.21 s  ClockTime = 3288 s

Time = 0.0025

Courant Number mean: 0.0447046 max: 3.74099
[INFO] MatrixAssemblyU: 419.544 [ms]
DILUPBiCGStab:  Solving for Ux, Initial residual = 0.116323, Final residual = 0.00763168, No Iterations 5
DILUPBiCGStab:  Solving for Uy, Initial residual = 0.376254, Final residual = 0.0210216, No Iterations 5
DILUPBiCGStab:  Solving for Uz, Initial residual = 0.798631, Final residual = 0.0934586, No Iterations 5
[INFO] MomentumPredictor: 3396.02 [ms]
[INFO] MatrixAssemblyPI: 546.768 [ms]
[INFO] AdjustPhi: 22.018 [ms]
[INFO] ConstrainPressure: 0.003 [ms]
[INFO] MatrixAssemblyPII: 134.196 [ms]
GAMG:  Solving for p, Initial residual = 0.985614, Final residual = 9.98672e-05, No Iterations 310
[INFO] SolveP: 85288.1 [ms]
time step continuity errors : sum local = 1.16917e-07, global = 4.55229e-21, cumulative = 1.8557e-19
[INFO] ContinuityError: 55.936 [ms]
[INFO] CorrectBoundary: 4.414 [ms]
[INFO] PISOStep: 86245.6 [ms]
[INFO] MatrixAssemblyPI: 537.325 [ms]
[INFO] AdjustPhi: 28.398 [ms]
[INFO] ConstrainPressure: 0.004 [ms]
[INFO] MatrixAssemblyPII: 133.83 [ms]
GAMG:  Solving for p, Initial residual = 0.914625, Final residual = 9.89166e-05, No Iterations 308
[INFO] SolveP: 84936.4 [ms]
time step continuity errors : sum local = 1.16823e-07, global = 7.50087e-21, cumulative = 1.93071e-19
[INFO] ContinuityError: 56.371 [ms]
[INFO] CorrectBoundary: 3.244 [ms]
[INFO] PISOStep: 85890.2 [ms]
[INFO] TimeStep: 176009 [ms]
ExecutionTime = 3445.33 s  ClockTime = 3464 s

End

Finalising parallel run
