/*---------------------------------------------------------------------------*\
| =========                 |                                                 |
| \\      /  F ield         | OpenFOAM: The Open Source CFD Toolbox           |
|  \\    /   O peration     | Version:  2212                                  |
|   \\  /    A nd           | Website:  www.openfoam.com                      |
|    \\/     M anipulation  |                                                 |
\*---------------------------------------------------------------------------*/
Build  : 5614a57-20230228 OPENFOAM=2212 patch=230110 version=v2212
Arch   : "LSB;label=32;scalar=64"
Exec   : icoFoam -parallel -case /home/greole/data/code/exasim-project/micro_benchmarks/LidDrivenCavity3D/workspace/c7497437a7682fd6c2e4ffb9b1219ee9/case
Date   : Jul 01 2023
Time   : 12:53:02
Host   : guyot
PID    : 2173594
I/O    : uncollated
Case   : /home/greole/data/code/exasim-project/micro_benchmarks/LidDrivenCavity3D/workspace/c7497437a7682fd6c2e4ffb9b1219ee9/case
nProcs : 128
Hosts  :
(
    (guyot 128)
)
Pstream initialized with:
    floatTransfer      : 0
    nProcsSimpleSum    : 0
    commsType          : nonBlocking
    polling iterations : 0
trapFpe: Floating point exception trapping enabled (FOAM_SIGFPE).
fileModificationChecking : Monitoring run-time modified files using timeStampMaster (fileModificationSkew 5, maxFileModificationPolls 20)
allowSystemOperations : Allowing user-supplied system call operations

// * * * * * * * * * * * * * * * * * * * * * * * * * * * * * * * * * * * * * //
Create time

--> FOAM Warning : 
    From void* Foam::dlLibraryTable::openLibrary(const Foam::fileName&, bool)
    in file db/dynamicLibrary/dlLibraryTable/dlLibraryTable.C at line 188
    Could not load "libpetscFoam.so"
libpetscFoam.so: cannot open shared object file: No such file or directory
Create mesh for time = 0


PISO: Operating solver in PISO mode

Reading transportProperties

Reading field p

Reading field U

Reading/calculating face flux field phi


Starting time loop

Time = 0.00025

Courant Number mean: 8.24341e-18 max: 2.08167e-14
[INFO] MatrixAssemblyU: 44.936 [ms]
DILUPBiCGStab:  Solving for Ux, Initial residual = 1, Final residual = 0.0112746, No Iterations 5
DILUPBiCGStab:  Solving for Uy:  solution singularity
DILUPBiCGStab:  Solving for Uz:  solution singularity
[INFO] MomentumPredictor: 158.428 [ms]
[INFO] MatrixAssemblyPI: 44.481 [ms]
[INFO] AdjustPhi: 1.194 [ms]
[INFO] ConstrainPressure: 0.007 [ms]
[INFO] MatrixAssemblyPII: 13.974 [ms]
[OGL LOG][lduLduBase.H:122] Initialising OGL
	OGL commit:  6548490+
	Branch: gko-1.5.0 
	Build type: Release
	Ginkgo version: 1.5.0 ( develop)
	Ginkgo commit: 4292ffdee
	MPI is GPU aware: 1
	Forces host buffer based communication: 1
	CPU ranks per GPU: 1
	Matrix format: Coo
	End OGL_INFO
[OGL LOG][Proc: 0]: global_index_init: 1256.6 [ms]
[OGL LOG][Proc: 0]p_local_cols: call_init: 5.469 [ms]
[OGL LOG][Proc: 0]p_local_rows: call_init: 0.004 [ms]
[OGL LOG][Proc: 0]p_local_ldu_map: call_init: 0.003 [ms]
[OGL LOG][Proc: 0]p_local_coeffs: call_init: 0.024 [ms]
[OGL LOG][Proc: 0]p_non_local_cols: call_init: 0.005 [ms]
[OGL LOG][Proc: 0]p_non_local_rows: call_init: 0.003 [ms]
[OGL LOG][Proc: 0]p_non_local_ldu_map: call_init: 0.003 [ms]
[OGL LOG][Proc: 0]p_non_local_coeffs: call_init: 0.003 [ms]
[OGL LOG][Proc: 0]p: init_local_sparsity_pattern: 16.227 [ms]
[OGL LOG][Proc: 0]p: init_non_local_sparsity_pattern: 4.776 [ms]
[OGL LOG][Proc: 0]p: update_local_matrix_data: 8.94 [ms]
[OGL LOG][Proc: 0]p: update_non_local_matrix_data: 0.067 [ms]
[OGL LOG][Proc: 0]device_partition: call_init: 0.41 [ms]
[OGL LOG][Proc: 0]p_matrix: call_init: 1287.55 [ms]
[OGL LOG][Proc: 0]p_rhs: call_init: 21.353 [ms]
[OGL LOG][Proc: 0]p_solution: call_init: 0.48 [ms]
[OGL LOG][Proc: 0]p: init_precond: 0.202 [ms]
[OGL LOG][StoppingCriterion.H:372] Creating stopping criterion with minIter 0 frequency 1
[OGL LOG][Proc: 0]p: generate_solver: 0.054 [ms]
[OGL LOG][Proc: 0]p: solve: 45768.1 [ms]
[OGL LOG][Proc: 0]p: copy_x_back: 0.467 [ms]
[OGL LOG][lduLduBase.H:339] 
Statistics:
	Time per iteration: 28462 [mu s]
	Time per residual norm calculation: 7840.000000 [mu s]
	Time per iteration and DOF: 3.557750 [ns]
	Retrieve results bandwidth 1.070000 [GByte/s]
[OGL LOG][Proc: 0]p: solve_multi_gpu: 47090.8 [ms]
nonecudaGKOCG:  Solving for p, Initial residual = 1, Final residual = 9.87956e-05, No Iterations 1608
[INFO] SolveP: 100519 [ms]
time step continuity errors : sum local = 8.15974e-09, global = 1.72188e-21, cumulative = 1.72188e-21
[INFO] ContinuityError: 7.276 [ms]
[INFO] CorrectBoundary: 0.288 [ms]
[INFO] PISOStep: 100599 [ms]
[INFO] MatrixAssemblyPI: 41.883 [ms]
[INFO] AdjustPhi: 1.935 [ms]
[INFO] ConstrainPressure: 0.002 [ms]
[INFO] MatrixAssemblyPII: 14.112 [ms]
[OGL LOG][Proc: 0]: global_index_init: 0.104 [ms]
[OGL LOG][Proc: 0]p_local_coeffs: call_update: 0.019 [ms]
[OGL LOG][Proc: 0]p_non_local_coeffs: call_update: 0 [ms]
[OGL LOG][Proc: 0]p: update_local_matrix_data: 9.649 [ms]
[OGL LOG][Proc: 0]p: update_non_local_matrix_data: 0.081 [ms]
[OGL LOG][Proc: 0]p_matrix: call_update: 57.586 [ms]
[OGL LOG][Proc: 0]p_rhs: call_update: 5.949 [ms]
[OGL LOG][Proc: 0]p: init_precond: 0.193 [ms]
[OGL LOG][StoppingCriterion.H:372] Creating stopping criterion with minIter 964 frequency 14
[OGL LOG][Proc: 0]p: generate_solver: 0.002 [ms]
[OGL LOG][Proc: 0]p: solve: 30032.9 [ms]
[OGL LOG][Proc: 0]p: copy_x_back: 0.572 [ms]
[OGL LOG][lduLduBase.H:339] 
Statistics:
	Time per iteration: 18805 [mu s]
	Time per residual norm calculation: 7717.000000 [mu s]
	Time per iteration and DOF: 2.350625 [ns]
	Retrieve results bandwidth 0.874000 [GByte/s]
[OGL LOG][Proc: 0]p: solve_multi_gpu: 30102 [ms]
nonecudaGKOCG:  Solving for p, Initial residual = 0.792859, Final residual = 8.26116e-05, No Iterations 1597
[INFO] SolveP: 30131.9 [ms]
time step continuity errors : sum local = 8.42996e-09, global = -4.12829e-22, cumulative = 1.30906e-21
[INFO] ContinuityError: 14.065 [ms]
[INFO] CorrectBoundary: 0.33 [ms]
[INFO] PISOStep: 30217.1 [ms]
[INFO] TimeStep: 131023 [ms]
ExecutionTime = 87.03 s  ClockTime = 131 s

Time = 0.0005

Courant Number mean: 0.0158602 max: 0.412459
[INFO] MatrixAssemblyU: 42.917 [ms]
DILUPBiCGStab:  Solving for Ux, Initial residual = 0.129551, Final residual = 0.00642629, No Iterations 5
DILUPBiCGStab:  Solving for Uy, Initial residual = 0.427606, Final residual = 0.0173018, No Iterations 5
DILUPBiCGStab:  Solving for Uz, Initial residual = 0.983891, Final residual = 0.0433659, No Iterations 5
[INFO] MomentumPredictor: 293.403 [ms]
[INFO] MatrixAssemblyPI: 44.055 [ms]
[INFO] AdjustPhi: 1.226 [ms]
[INFO] ConstrainPressure: 0.006 [ms]
[INFO] MatrixAssemblyPII: 14.647 [ms]
[OGL LOG][Proc: 0]: global_index_init: 0.076 [ms]
[OGL LOG][Proc: 0]p_local_coeffs: call_update: 0 [ms]
[OGL LOG][Proc: 0]p_non_local_coeffs: call_update: 0 [ms]
[OGL LOG][Proc: 0]p: update_local_matrix_data: 9.622 [ms]
[OGL LOG][Proc: 0]p: update_non_local_matrix_data: 0.069 [ms]
[OGL LOG][Proc: 0]p_matrix: call_update: 59.86 [ms]
[OGL LOG][Proc: 0]p_rhs: call_update: 3.024 [ms]
[OGL LOG][Proc: 0]p: init_precond: 0.166 [ms]
[OGL LOG][StoppingCriterion.H:372] Creating stopping criterion with minIter 958 frequency 17
[OGL LOG][Proc: 0]p: generate_solver: 0.002 [ms]
[OGL LOG][Proc: 0]p: solve: 29287.3 [ms]
[OGL LOG][Proc: 0]p: copy_x_back: 0.411 [ms]
[OGL LOG][lduLduBase.H:339] 
Statistics:
	Time per iteration: 18713 [mu s]
	Time per residual norm calculation: 7745.000000 [mu s]
	Time per iteration and DOF: 2.339125 [ns]
	Retrieve results bandwidth 1.216000 [GByte/s]
[OGL LOG][Proc: 0]p: solve_multi_gpu: 29358.4 [ms]
nonecudaGKOCG:  Solving for p, Initial residual = 0.838848, Final residual = 9.63803e-05, No Iterations 1565
[INFO] SolveP: 29386.9 [ms]
time step continuity errors : sum local = 1.54055e-08, global = -2.08732e-21, cumulative = -7.78267e-22
[INFO] ContinuityError: 10.959 [ms]
[INFO] CorrectBoundary: 0.144 [ms]
[INFO] PISOStep: 29470.3 [ms]
[INFO] MatrixAssemblyPI: 41.545 [ms]
[INFO] AdjustPhi: 2.566 [ms]
[INFO] ConstrainPressure: 0.002 [ms]
[INFO] MatrixAssemblyPII: 14.369 [ms]
[OGL LOG][Proc: 0]: global_index_init: 0.064 [ms]
[OGL LOG][Proc: 0]p_local_coeffs: call_update: 0 [ms]
[OGL LOG][Proc: 0]p_non_local_coeffs: call_update: 0 [ms]
[OGL LOG][Proc: 0]p: update_local_matrix_data: 9.306 [ms]
[OGL LOG][Proc: 0]p: update_non_local_matrix_data: 0.14 [ms]
[OGL LOG][Proc: 0]p_matrix: call_update: 60.814 [ms]
[OGL LOG][Proc: 0]p_rhs: call_update: 5 [ms]
[OGL LOG][Proc: 0]p: init_precond: 0.157 [ms]
[OGL LOG][StoppingCriterion.H:372] Creating stopping criterion with minIter 939 frequency 17
[OGL LOG][Proc: 0]p: generate_solver: 0.002 [ms]
[OGL LOG][Proc: 0]p: solve: 29319.8 [ms]
[OGL LOG][Proc: 0]p: copy_x_back: 0.386 [ms]
[OGL LOG][lduLduBase.H:339] 
Statistics:
	Time per iteration: 18734 [mu s]
	Time per residual norm calculation: 7724.000000 [mu s]
	Time per iteration and DOF: 2.341750 [ns]
	Retrieve results bandwidth 1.295000 [GByte/s]
[OGL LOG][Proc: 0]p: solve_multi_gpu: 29399.7 [ms]
nonecudaGKOCG:  Solving for p, Initial residual = 0.779514, Final residual = 8.74499e-05, No Iterations 1565
[INFO] SolveP: 29423.6 [ms]
time step continuity errors : sum local = 1.42396e-08, global = -1.28903e-21, cumulative = -2.0673e-21
[INFO] ContinuityError: 8.44 [ms]
[INFO] CorrectBoundary: 0.244 [ms]
[INFO] PISOStep: 29503.9 [ms]
[INFO] TimeStep: 59315.2 [ms]
ExecutionTime = 145.94 s  ClockTime = 191 s

Time = 0.00075

Courant Number mean: 0.0242183 max: 0.472326
[INFO] MatrixAssemblyU: 44.089 [ms]
DILUPBiCGStab:  Solving for Ux, Initial residual = 0.0548706, Final residual = 0.00223632, No Iterations 5
DILUPBiCGStab:  Solving for Uy, Initial residual = 0.183009, Final residual = 0.009131, No Iterations 5
DILUPBiCGStab:  Solving for Uz, Initial residual = 0.802997, Final residual = 0.0306841, No Iterations 5
[INFO] MomentumPredictor: 293.683 [ms]
[INFO] MatrixAssemblyPI: 43.901 [ms]
[INFO] AdjustPhi: 1.122 [ms]
[INFO] ConstrainPressure: 0.002 [ms]
[INFO] MatrixAssemblyPII: 14.153 [ms]
[OGL LOG][Proc: 0]: global_index_init: 0.085 [ms]
[OGL LOG][Proc: 0]p_local_coeffs: call_update: 0 [ms]
[OGL LOG][Proc: 0]p_non_local_coeffs: call_update: 0 [ms]
[OGL LOG][Proc: 0]p: update_local_matrix_data: 9.459 [ms]
[OGL LOG][Proc: 0]p: update_non_local_matrix_data: 0.127 [ms]
[OGL LOG][Proc: 0]p_matrix: call_update: 58.724 [ms]
[OGL LOG][Proc: 0]p_rhs: call_update: 5.766 [ms]
[OGL LOG][Proc: 0]p: init_precond: 0.163 [ms]
[OGL LOG][StoppingCriterion.H:372] Creating stopping criterion with minIter 939 frequency 17
[OGL LOG][Proc: 0]p: generate_solver: 0.002 [ms]
[OGL LOG][Proc: 0]p: solve: 29653.5 [ms]
[OGL LOG][Proc: 0]p: copy_x_back: 0.482 [ms]
[OGL LOG][lduLduBase.H:339] 
Statistics:
	Time per iteration: 18744 [mu s]
	Time per residual norm calculation: 7737.000000 [mu s]
	Time per iteration and DOF: 2.343000 [ns]
	Retrieve results bandwidth 1.037000 [GByte/s]
[OGL LOG][Proc: 0]p: solve_multi_gpu: 29727.8 [ms]
nonecudaGKOCG:  Solving for p, Initial residual = 0.85561, Final residual = 6.78538e-05, No Iterations 1582
[INFO] SolveP: 29753.6 [ms]
time step continuity errors : sum local = 9.56683e-09, global = -1.14916e-21, cumulative = -3.21646e-21
[INFO] ContinuityError: 13.197 [ms]
[INFO] CorrectBoundary: 0.399 [ms]
[INFO] PISOStep: 29839.4 [ms]
[INFO] MatrixAssemblyPI: 41.212 [ms]
[INFO] AdjustPhi: 2.893 [ms]
[INFO] ConstrainPressure: 0.002 [ms]
[INFO] MatrixAssemblyPII: 14.204 [ms]
[OGL LOG][Proc: 0]: global_index_init: 0.077 [ms]
[OGL LOG][Proc: 0]p_local_coeffs: call_update: 0 [ms]
[OGL LOG][Proc: 0]p_non_local_coeffs: call_update: 0 [ms]
[OGL LOG][Proc: 0]p: update_local_matrix_data: 9.312 [ms]
[OGL LOG][Proc: 0]p: update_non_local_matrix_data: 0.149 [ms]
[OGL LOG][Proc: 0]p_matrix: call_update: 57.474 [ms]
[OGL LOG][Proc: 0]p_rhs: call_update: 8.374 [ms]
[OGL LOG][Proc: 0]p: init_precond: 0.17 [ms]
[OGL LOG][StoppingCriterion.H:372] Creating stopping criterion with minIter 949 frequency 17
[OGL LOG][Proc: 0]p: generate_solver: 0.002 [ms]
[OGL LOG][Proc: 0]p: solve: 29614.4 [ms]
[OGL LOG][Proc: 0]p: copy_x_back: 0.246 [ms]
[OGL LOG][lduLduBase.H:339] 
Statistics:
	Time per iteration: 18719 [mu s]
	Time per residual norm calculation: 7733.000000 [mu s]
	Time per iteration and DOF: 2.339875 [ns]
	Retrieve results bandwidth 2.032000 [GByte/s]
[OGL LOG][Proc: 0]p: solve_multi_gpu: 29682.6 [ms]
nonecudaGKOCG:  Solving for p, Initial residual = 0.818671, Final residual = 6.31493e-05, No Iterations 1582
[INFO] SolveP: 29712.9 [ms]
time step continuity errors : sum local = 8.70811e-09, global = 2.18964e-22, cumulative = -2.9975e-21
[INFO] ContinuityError: 16.408 [ms]
[INFO] CorrectBoundary: 0.128 [ms]
[INFO] PISOStep: 29800.3 [ms]
[INFO] TimeStep: 59982.2 [ms]
ExecutionTime = 205.51 s  ClockTime = 251 s

Time = 0.001

Courant Number mean: 0.029075 max: 0.467652
[INFO] MatrixAssemblyU: 41.923 [ms]
DILUPBiCGStab:  Solving for Ux, Initial residual = 0.0348747, Final residual = 0.00146828, No Iterations 5
DILUPBiCGStab:  Solving for Uy, Initial residual = 0.129589, Final residual = 0.00584101, No Iterations 5
DILUPBiCGStab:  Solving for Uz, Initial residual = 0.608047, Final residual = 0.0193235, No Iterations 5
[INFO] MomentumPredictor: 295.401 [ms]
[INFO] MatrixAssemblyPI: 44.069 [ms]
[INFO] AdjustPhi: 0.92 [ms]
[INFO] ConstrainPressure: 0.002 [ms]
[INFO] MatrixAssemblyPII: 14.349 [ms]
[OGL LOG][Proc: 0]: global_index_init: 0.123 [ms]
[OGL LOG][Proc: 0]p_local_coeffs: call_update: 0 [ms]
[OGL LOG][Proc: 0]p_non_local_coeffs: call_update: 0 [ms]
[OGL LOG][Proc: 0]p: update_local_matrix_data: 9.532 [ms]
[OGL LOG][Proc: 0]p: update_non_local_matrix_data: 0.091 [ms]
[OGL LOG][Proc: 0]p_matrix: call_update: 49.527 [ms]
[OGL LOG][Proc: 0]p_rhs: call_update: 14.834 [ms]
[OGL LOG][Proc: 0]p: init_precond: 0.165 [ms]
[OGL LOG][StoppingCriterion.H:372] Creating stopping criterion with minIter 949 frequency 17
[OGL LOG][Proc: 0]p: generate_solver: 0.001 [ms]
[OGL LOG][Proc: 0]p: solve: 17674.5 [ms]
[OGL LOG][Proc: 0]p: copy_x_back: 0.521 [ms]
[OGL LOG][lduLduBase.H:339] 
Statistics:
	Time per iteration: 18546 [mu s]
	Time per residual norm calculation: 7741.000000 [mu s]
	Time per iteration and DOF: 2.318250 [ns]
	Retrieve results bandwidth 0.959000 [GByte/s]
[OGL LOG][Proc: 0]p: solve_multi_gpu: 17746.9 [ms]
nonecudaGKOCG:  Solving for p, Initial residual = 0.782537, Final residual = 4.27705e-05, No Iterations 953
[INFO] SolveP: 17772.2 [ms]
time step continuity errors : sum local = 5.95797e-09, global = 3.36611e-22, cumulative = -2.66089e-21
[INFO] ContinuityError: 12.483 [ms]
[INFO] CorrectBoundary: 0.276 [ms]
[INFO] PISOStep: 17856.7 [ms]
[INFO] MatrixAssemblyPI: 42.157 [ms]
[INFO] AdjustPhi: 1.797 [ms]
[INFO] ConstrainPressure: 0.002 [ms]
[INFO] MatrixAssemblyPII: 14.39 [ms]
[OGL LOG][Proc: 0]: global_index_init: 0.092 [ms]
[OGL LOG][Proc: 0]p_local_coeffs: call_update: 0 [ms]
[OGL LOG][Proc: 0]p_non_local_coeffs: call_update: 0 [ms]
[OGL LOG][Proc: 0]p: update_local_matrix_data: 9.552 [ms]
[OGL LOG][Proc: 0]p: update_non_local_matrix_data: 0.095 [ms]
[OGL LOG][Proc: 0]p_matrix: call_update: 56.731 [ms]
[OGL LOG][Proc: 0]p_rhs: call_update: 6.833 [ms]
[OGL LOG][Proc: 0]p: init_precond: 0.163 [ms]
[OGL LOG][StoppingCriterion.H:372] Creating stopping criterion with minIter 571 frequency 13
[OGL LOG][Proc: 0]p: generate_solver: 0.002 [ms]
[OGL LOG][Proc: 0]p: solve: 14133.9 [ms]
[OGL LOG][Proc: 0]p: copy_x_back: 0.207 [ms]
[OGL LOG][lduLduBase.H:339] 
Statistics:
	Time per iteration: 18720 [mu s]
	Time per residual norm calculation: 7719.000000 [mu s]
	Time per iteration and DOF: 2.340000 [ns]
	Retrieve results bandwidth 2.415000 [GByte/s]
[OGL LOG][Proc: 0]p: solve_multi_gpu: 14200.6 [ms]
nonecudaGKOCG:  Solving for p, Initial residual = 0.717819, Final residual = 9.79059e-05, No Iterations 755
[INFO] SolveP: 14234 [ms]
time step continuity errors : sum local = 1.29451e-08, global = -4.51279e-22, cumulative = -3.11217e-21
[INFO] ContinuityError: 10.79 [ms]
[INFO] CorrectBoundary: 0.157 [ms]
[INFO] PISOStep: 14316 [ms]
[INFO] TimeStep: 32514.7 [ms]
ExecutionTime = 237.8 s  ClockTime = 283 s

Time = 0.00125

Courant Number mean: 0.0332088 max: 0.473157
[INFO] MatrixAssemblyU: 41.572 [ms]
DILUPBiCGStab:  Solving for Ux, Initial residual = 0.0272834, Final residual = 0.00107871, No Iterations 5
DILUPBiCGStab:  Solving for Uy, Initial residual = 0.0821773, Final residual = 0.00425745, No Iterations 5
DILUPBiCGStab:  Solving for Uz, Initial residual = 0.457454, Final residual = 0.0133012, No Iterations 5
[INFO] MomentumPredictor: 295.453 [ms]
[INFO] MatrixAssemblyPI: 43.869 [ms]
[INFO] AdjustPhi: 1.35 [ms]
[INFO] ConstrainPressure: 0.002 [ms]
[INFO] MatrixAssemblyPII: 14.139 [ms]
[OGL LOG][Proc: 0]: global_index_init: 0.061 [ms]
[OGL LOG][Proc: 0]p_local_coeffs: call_update: 0 [ms]
[OGL LOG][Proc: 0]p_non_local_coeffs: call_update: 0 [ms]
[OGL LOG][Proc: 0]p: update_local_matrix_data: 9.308 [ms]
[OGL LOG][Proc: 0]p: update_non_local_matrix_data: 0.147 [ms]
[OGL LOG][Proc: 0]p_matrix: call_update: 58.955 [ms]
[OGL LOG][Proc: 0]p_rhs: call_update: 5.719 [ms]
[OGL LOG][Proc: 0]p: init_precond: 0.168 [ms]
[OGL LOG][StoppingCriterion.H:372] Creating stopping criterion with minIter 453 frequency 12
[OGL LOG][Proc: 0]p: generate_solver: 0.002 [ms]
[OGL LOG][Proc: 0]p: solve: 14069.2 [ms]
[OGL LOG][Proc: 0]p: copy_x_back: 0.381 [ms]
[OGL LOG][lduLduBase.H:339] 
Statistics:
	Time per iteration: 18884 [mu s]
	Time per residual norm calculation: 7734.000000 [mu s]
	Time per iteration and DOF: 2.360500 [ns]
	Retrieve results bandwidth 1.312000 [GByte/s]
[OGL LOG][Proc: 0]p: solve_multi_gpu: 14138 [ms]
nonecudaGKOCG:  Solving for p, Initial residual = 0.786049, Final residual = 8.77756e-05, No Iterations 745
[INFO] SolveP: 14170.3 [ms]
time step continuity errors : sum local = 9.48031e-09, global = -1.20471e-21, cumulative = -4.31688e-21
[INFO] ContinuityError: 11.422 [ms]
[INFO] CorrectBoundary: 0.181 [ms]
[INFO] PISOStep: 14254.4 [ms]
[INFO] MatrixAssemblyPI: 42.527 [ms]
[INFO] AdjustPhi: 1.322 [ms]
[INFO] ConstrainPressure: 0.002 [ms]
[INFO] MatrixAssemblyPII: 14.013 [ms]
[OGL LOG][Proc: 0]: global_index_init: 0.025 [ms]
[OGL LOG][Proc: 0]p_local_coeffs: call_update: 0 [ms]
[OGL LOG][Proc: 0]p_non_local_coeffs: call_update: 0 [ms]
[OGL LOG][Proc: 0]p: update_local_matrix_data: 9.488 [ms]
[OGL LOG][Proc: 0]p: update_non_local_matrix_data: 0.11 [ms]
[OGL LOG][Proc: 0]p_matrix: call_update: 61.169 [ms]
[OGL LOG][Proc: 0]p_rhs: call_update: 4.698 [ms]
[OGL LOG][Proc: 0]p: init_precond: 0.158 [ms]
[OGL LOG][StoppingCriterion.H:372] Creating stopping criterion with minIter 447 frequency 12
[OGL LOG][Proc: 0]p: generate_solver: 0.002 [ms]
[OGL LOG][Proc: 0]p: solve: 14070.1 [ms]
[OGL LOG][Proc: 0]p: copy_x_back: 0.296 [ms]
[OGL LOG][lduLduBase.H:339] 
Statistics:
	Time per iteration: 18886 [mu s]
	Time per residual norm calculation: 7726.000000 [mu s]
	Time per iteration and DOF: 2.360750 [ns]
	Retrieve results bandwidth 1.689000 [GByte/s]
[OGL LOG][Proc: 0]p: solve_multi_gpu: 14140 [ms]
nonecudaGKOCG:  Solving for p, Initial residual = 0.733376, Final residual = 8.29911e-05, No Iterations 745
[INFO] SolveP: 14171.7 [ms]
time step continuity errors : sum local = 8.73896e-09, global = -2.33729e-21, cumulative = -6.65417e-21
[INFO] ContinuityError: 20.143 [ms]
[INFO] CorrectBoundary: 0.124 [ms]
[INFO] PISOStep: 14262.6 [ms]
[INFO] TimeStep: 28858.8 [ms]
ExecutionTime = 266.46 s  ClockTime = 312 s

Time = 0.0015

Courant Number mean: 0.0365049 max: 0.475493
[INFO] MatrixAssemblyU: 42.708 [ms]
DILUPBiCGStab:  Solving for Ux, Initial residual = 0.020595, Final residual = 0.00076979, No Iterations 5
DILUPBiCGStab:  Solving for Uy, Initial residual = 0.0665108, Final residual = 0.00298527, No Iterations 5
DILUPBiCGStab:  Solving for Uz, Initial residual = 0.338692, Final residual = 0.010134, No Iterations 5
[INFO] MomentumPredictor: 293.313 [ms]
[INFO] MatrixAssemblyPI: 44.043 [ms]
[INFO] AdjustPhi: 1.373 [ms]
[INFO] ConstrainPressure: 0.002 [ms]
[INFO] MatrixAssemblyPII: 14.087 [ms]
[OGL LOG][Proc: 0]: global_index_init: 0.082 [ms]
[OGL LOG][Proc: 0]p_local_coeffs: call_update: 0 [ms]
[OGL LOG][Proc: 0]p_non_local_coeffs: call_update: 0 [ms]
[OGL LOG][Proc: 0]p: update_local_matrix_data: 9.432 [ms]
[OGL LOG][Proc: 0]p: update_non_local_matrix_data: 0.105 [ms]
[OGL LOG][Proc: 0]p_matrix: call_update: 56.72 [ms]
[OGL LOG][Proc: 0]p_rhs: call_update: 7.973 [ms]
[OGL LOG][Proc: 0]p: init_precond: 0.164 [ms]
[OGL LOG][StoppingCriterion.H:372] Creating stopping criterion with minIter 447 frequency 12
[OGL LOG][Proc: 0]p: generate_solver: 0.002 [ms]
[OGL LOG][Proc: 0]p: solve: 14057.8 [ms]
[OGL LOG][Proc: 0]p: copy_x_back: 0.314 [ms]
[OGL LOG][lduLduBase.H:339] 
Statistics:
	Time per iteration: 18869 [mu s]
	Time per residual norm calculation: 7734.000000 [mu s]
	Time per iteration and DOF: 2.358625 [ns]
	Retrieve results bandwidth 1.592000 [GByte/s]
[OGL LOG][Proc: 0]p: solve_multi_gpu: 14131.8 [ms]
nonecudaGKOCG:  Solving for p, Initial residual = 0.699178, Final residual = 9.0668e-05, No Iterations 745
[INFO] SolveP: 14158.1 [ms]
time step continuity errors : sum local = 9.83473e-09, global = -6.40858e-22, cumulative = -7.29503e-21
[INFO] ContinuityError: 10.791 [ms]
[INFO] CorrectBoundary: 0.232 [ms]
[INFO] PISOStep: 14241.4 [ms]
[INFO] MatrixAssemblyPI: 42.23 [ms]
[INFO] AdjustPhi: 2.053 [ms]
[INFO] ConstrainPressure: 0.002 [ms]
[INFO] MatrixAssemblyPII: 14.519 [ms]
[OGL LOG][Proc: 0]: global_index_init: 0.029 [ms]
[OGL LOG][Proc: 0]p_local_coeffs: call_update: 0 [ms]
[OGL LOG][Proc: 0]p_non_local_coeffs: call_update: 0 [ms]
[OGL LOG][Proc: 0]p: update_local_matrix_data: 9.228 [ms]
[OGL LOG][Proc: 0]p: update_non_local_matrix_data: 0.139 [ms]
[OGL LOG][Proc: 0]p_matrix: call_update: 54.059 [ms]
[OGL LOG][Proc: 0]p_rhs: call_update: 9.376 [ms]
[OGL LOG][Proc: 0]p: init_precond: 0.159 [ms]
[OGL LOG][StoppingCriterion.H:372] Creating stopping criterion with minIter 447 frequency 12
[OGL LOG][Proc: 0]p: generate_solver: 0.002 [ms]
[OGL LOG][Proc: 0]p: solve: 14063.5 [ms]
[OGL LOG][Proc: 0]p: copy_x_back: 0.334 [ms]
[OGL LOG][lduLduBase.H:339] 
Statistics:
	Time per iteration: 18877 [mu s]
	Time per residual norm calculation: 7735.000000 [mu s]
	Time per iteration and DOF: 2.359625 [ns]
	Retrieve results bandwidth 1.497000 [GByte/s]
[OGL LOG][Proc: 0]p: solve_multi_gpu: 14137.4 [ms]
nonecudaGKOCG:  Solving for p, Initial residual = 0.636312, Final residual = 7.53681e-05, No Iterations 745
[INFO] SolveP: 14164.7 [ms]
time step continuity errors : sum local = 7.72361e-09, global = -7.35984e-22, cumulative = -8.03101e-21
[INFO] ContinuityError: 10.081 [ms]
[INFO] CorrectBoundary: 0.141 [ms]
[INFO] PISOStep: 14246.8 [ms]
[INFO] TimeStep: 28829.1 [ms]
ExecutionTime = 295.07 s  ClockTime = 341 s

Time = 0.00175

Courant Number mean: 0.0394199 max: 0.477459
[INFO] MatrixAssemblyU: 42.592 [ms]
DILUPBiCGStab:  Solving for Ux, Initial residual = 0.0175835, Final residual = 0.000615447, No Iterations 5
DILUPBiCGStab:  Solving for Uy, Initial residual = 0.0497361, Final residual = 0.0021294, No Iterations 5
DILUPBiCGStab:  Solving for Uz, Initial residual = 0.268736, Final residual = 0.00909238, No Iterations 5
[INFO] MomentumPredictor: 293.579 [ms]
[INFO] MatrixAssemblyPI: 43.676 [ms]
[INFO] AdjustPhi: 1.334 [ms]
[INFO] ConstrainPressure: 0.002 [ms]
[INFO] MatrixAssemblyPII: 14.356 [ms]
[OGL LOG][Proc: 0]: global_index_init: 0.094 [ms]
[OGL LOG][Proc: 0]p_local_coeffs: call_update: 0 [ms]
[OGL LOG][Proc: 0]p_non_local_coeffs: call_update: 0 [ms]
[OGL LOG][Proc: 0]p: update_local_matrix_data: 9.452 [ms]
[OGL LOG][Proc: 0]p: update_non_local_matrix_data: 0.106 [ms]
[OGL LOG][Proc: 0]p_matrix: call_update: 57.351 [ms]
[OGL LOG][Proc: 0]p_rhs: call_update: 7.373 [ms]
[OGL LOG][Proc: 0]p: init_precond: 0.156 [ms]
[OGL LOG][StoppingCriterion.H:372] Creating stopping criterion with minIter 447 frequency 12
[OGL LOG][Proc: 0]p: generate_solver: 0.002 [ms]
[OGL LOG][Proc: 0]p: solve: 28834.4 [ms]
[OGL LOG][Proc: 0]p: copy_x_back: 0.293 [ms]
[OGL LOG][lduLduBase.H:339] 
Statistics:
	Time per iteration: 19057 [mu s]
	Time per residual norm calculation: 7746.000000 [mu s]
	Time per iteration and DOF: 2.382125 [ns]
	Retrieve results bandwidth 1.706000 [GByte/s]
[OGL LOG][Proc: 0]p: solve_multi_gpu: 28901.4 [ms]
nonecudaGKOCG:  Solving for p, Initial residual = 0.695396, Final residual = 9.39739e-05, No Iterations 1513
[INFO] SolveP: 28934.3 [ms]
time step continuity errors : sum local = 7.69997e-09, global = -3.77942e-21, cumulative = -1.18104e-20
[INFO] ContinuityError: 14.704 [ms]
[INFO] CorrectBoundary: 0.285 [ms]
[INFO] PISOStep: 29021.3 [ms]
[INFO] MatrixAssemblyPI: 42.04 [ms]
[INFO] AdjustPhi: 1.673 [ms]
[INFO] ConstrainPressure: 0.002 [ms]
[INFO] MatrixAssemblyPII: 14.231 [ms]
[OGL LOG][Proc: 0]: global_index_init: 0.063 [ms]
[OGL LOG][Proc: 0]p_local_coeffs: call_update: 0 [ms]
[OGL LOG][Proc: 0]p_non_local_coeffs: call_update: 0 [ms]
[OGL LOG][Proc: 0]p: update_local_matrix_data: 9.657 [ms]
[OGL LOG][Proc: 0]p: update_non_local_matrix_data: 0.046 [ms]
[OGL LOG][Proc: 0]p_matrix: call_update: 63.058 [ms]
[OGL LOG][Proc: 0]p_rhs: call_update: 3.28 [ms]
[OGL LOG][Proc: 0]p: init_precond: 0.168 [ms]
[OGL LOG][StoppingCriterion.H:372] Creating stopping criterion with minIter 907 frequency 17
[OGL LOG][Proc: 0]p: generate_solver: 0.001 [ms]
[OGL LOG][Proc: 0]p: solve: 28344.7 [ms]
[OGL LOG][Proc: 0]p: copy_x_back: 0.381 [ms]
[OGL LOG][lduLduBase.H:339] 
Statistics:
	Time per iteration: 18721 [mu s]
	Time per residual norm calculation: 7727.000000 [mu s]
	Time per iteration and DOF: 2.340125 [ns]
	Retrieve results bandwidth 1.312000 [GByte/s]
[OGL LOG][Proc: 0]p: solve_multi_gpu: 28414.9 [ms]
nonecudaGKOCG:  Solving for p, Initial residual = 0.63401, Final residual = 8.83597e-05, No Iterations 1514
[INFO] SolveP: 28447 [ms]
time step continuity errors : sum local = 7.19702e-09, global = -2.46699e-21, cumulative = -1.42774e-20
[INFO] ContinuityError: 11.687 [ms]
[INFO] CorrectBoundary: 0.279 [ms]
[INFO] PISOStep: 28529.5 [ms]
[INFO] TimeStep: 57891.9 [ms]
ExecutionTime = 352.56 s  ClockTime = 399 s

Time = 0.002

Courant Number mean: 0.0419461 max: 0.479159
[INFO] MatrixAssemblyU: 42.926 [ms]
DILUPBiCGStab:  Solving for Ux, Initial residual = 0.0144358, Final residual = 0.000474202, No Iterations 5
DILUPBiCGStab:  Solving for Uy, Initial residual = 0.0423295, Final residual = 0.00169266, No Iterations 5
DILUPBiCGStab:  Solving for Uz, Initial residual = 0.210007, Final residual = 0.00711614, No Iterations 5
[INFO] MomentumPredictor: 295.142 [ms]
[INFO] MatrixAssemblyPI: 43.922 [ms]
[INFO] AdjustPhi: 1.166 [ms]
[INFO] ConstrainPressure: 0.002 [ms]
[INFO] MatrixAssemblyPII: 14.445 [ms]
[OGL LOG][Proc: 0]: global_index_init: 0.043 [ms]
[OGL LOG][Proc: 0]p_local_coeffs: call_update: 0 [ms]
[OGL LOG][Proc: 0]p_non_local_coeffs: call_update: 0 [ms]
[OGL LOG][Proc: 0]p: update_local_matrix_data: 9.622 [ms]
[OGL LOG][Proc: 0]p: update_non_local_matrix_data: 0.053 [ms]
[OGL LOG][Proc: 0]p_matrix: call_update: 60.794 [ms]
[OGL LOG][Proc: 0]p_rhs: call_update: 2.773 [ms]
[OGL LOG][Proc: 0]p: init_precond: 0.17 [ms]
[OGL LOG][StoppingCriterion.H:372] Creating stopping criterion with minIter 908 frequency 17
[OGL LOG][Proc: 0]p: generate_solver: 0.002 [ms]
[OGL LOG][Proc: 0]p: solve: 28683.7 [ms]
[OGL LOG][Proc: 0]p: copy_x_back: 0.386 [ms]
[OGL LOG][lduLduBase.H:339] 
Statistics:
	Time per iteration: 18735 [mu s]
	Time per residual norm calculation: 7700.000000 [mu s]
	Time per iteration and DOF: 2.341875 [ns]
	Retrieve results bandwidth 1.295000 [GByte/s]
[OGL LOG][Proc: 0]p: solve_multi_gpu: 28749.8 [ms]
nonecudaGKOCG:  Solving for p, Initial residual = 0.608488, Final residual = 7.387e-05, No Iterations 1531
[INFO] SolveP: 28777.3 [ms]
time step continuity errors : sum local = 5.7628e-09, global = -5.50727e-21, cumulative = -1.97847e-20
[INFO] ContinuityError: 17.137 [ms]
[INFO] CorrectBoundary: 0.108 [ms]
[INFO] PISOStep: 28866.7 [ms]
[INFO] MatrixAssemblyPI: 42.366 [ms]
[INFO] AdjustPhi: 1.552 [ms]
[INFO] ConstrainPressure: 0.002 [ms]
[INFO] MatrixAssemblyPII: 14.61 [ms]
[OGL LOG][Proc: 0]: global_index_init: 0.033 [ms]
[OGL LOG][Proc: 0]p_local_coeffs: call_update: 0 [ms]
[OGL LOG][Proc: 0]p_non_local_coeffs: call_update: 0 [ms]
[OGL LOG][Proc: 0]p: update_local_matrix_data: 9.669 [ms]
[OGL LOG][Proc: 0]p: update_non_local_matrix_data: 0.055 [ms]
[OGL LOG][Proc: 0]p_matrix: call_update: 65.103 [ms]
[OGL LOG][Proc: 0]p_rhs: call_update: 1.553 [ms]
[OGL LOG][Proc: 0]p: init_precond: 0.158 [ms]
[OGL LOG][StoppingCriterion.H:372] Creating stopping criterion with minIter 918 frequency 17
[OGL LOG][Proc: 0]p: generate_solver: 0.002 [ms]
[OGL LOG][Proc: 0]p: solve: 28684.8 [ms]
[OGL LOG][Proc: 0]p: copy_x_back: 0.436 [ms]
[OGL LOG][lduLduBase.H:339] 
Statistics:
	Time per iteration: 18735 [mu s]
	Time per residual norm calculation: 7741.000000 [mu s]
	Time per iteration and DOF: 2.341875 [ns]
	Retrieve results bandwidth 1.146000 [GByte/s]
[OGL LOG][Proc: 0]p: solve_multi_gpu: 28755.4 [ms]
nonecudaGKOCG:  Solving for p, Initial residual = 0.549405, Final residual = 6.98648e-05, No Iterations 1531
[INFO] SolveP: 28787.2 [ms]
time step continuity errors : sum local = 5.4382e-09, global = -5.63868e-21, cumulative = -2.54234e-20
[INFO] ContinuityError: 13.521 [ms]
[INFO] CorrectBoundary: 0.806 [ms]
[INFO] PISOStep: 28872.4 [ms]
[INFO] TimeStep: 58081.9 [ms]
ExecutionTime = 410.25 s  ClockTime = 457 s

Time = 0.00225

Courant Number mean: 0.0442344 max: 0.480314
[INFO] MatrixAssemblyU: 41.94 [ms]
DILUPBiCGStab:  Solving for Ux, Initial residual = 0.0127004, Final residual = 0.000391226, No Iterations 5
DILUPBiCGStab:  Solving for Uy, Initial residual = 0.0341815, Final residual = 0.00117297, No Iterations 5
DILUPBiCGStab:  Solving for Uz, Initial residual = 0.171869, Final residual = 0.00655969, No Iterations 5
[INFO] MomentumPredictor: 294.951 [ms]
[INFO] MatrixAssemblyPI: 43.878 [ms]
[INFO] AdjustPhi: 1.347 [ms]
[INFO] ConstrainPressure: 0.003 [ms]
[INFO] MatrixAssemblyPII: 14.315 [ms]
[OGL LOG][Proc: 0]: global_index_init: 0.061 [ms]
[OGL LOG][Proc: 0]p_local_coeffs: call_update: 0 [ms]
[OGL LOG][Proc: 0]p_non_local_coeffs: call_update: 0 [ms]
[OGL LOG][Proc: 0]p: update_local_matrix_data: 9.665 [ms]
[OGL LOG][Proc: 0]p: update_non_local_matrix_data: 0.064 [ms]
[OGL LOG][Proc: 0]p_matrix: call_update: 62.427 [ms]
[OGL LOG][Proc: 0]p_rhs: call_update: 2.36 [ms]
[OGL LOG][Proc: 0]p: init_precond: 0.174 [ms]
[OGL LOG][StoppingCriterion.H:372] Creating stopping criterion with minIter 918 frequency 17
[OGL LOG][Proc: 0]p: generate_solver: 0.002 [ms]
[OGL LOG][Proc: 0]p: solve: 28338.2 [ms]
[OGL LOG][Proc: 0]p: copy_x_back: 0.363 [ms]
[OGL LOG][lduLduBase.H:339] 
Statistics:
	Time per iteration: 18717 [mu s]
	Time per residual norm calculation: 7725.000000 [mu s]
	Time per iteration and DOF: 2.339625 [ns]
	Retrieve results bandwidth 1.377000 [GByte/s]
[OGL LOG][Proc: 0]p: solve_multi_gpu: 28406.4 [ms]
nonecudaGKOCG:  Solving for p, Initial residual = 0.596279, Final residual = 7.85533e-05, No Iterations 1514
[INFO] SolveP: 28437.5 [ms]
time step continuity errors : sum local = 5.29099e-09, global = -2.26594e-21, cumulative = -2.76893e-20
[INFO] ContinuityError: 12.87 [ms]
[INFO] CorrectBoundary: 0.131 [ms]
[INFO] PISOStep: 28523.1 [ms]
[INFO] MatrixAssemblyPI: 42.61 [ms]
[INFO] AdjustPhi: 1.101 [ms]
[INFO] ConstrainPressure: 0.003 [ms]
[INFO] MatrixAssemblyPII: 14.506 [ms]
[OGL LOG][Proc: 0]: global_index_init: 0.056 [ms]
[OGL LOG][Proc: 0]p_local_coeffs: call_update: 0 [ms]
[OGL LOG][Proc: 0]p_non_local_coeffs: call_update: 0 [ms]
[OGL LOG][Proc: 0]p: update_local_matrix_data: 9.16 [ms]
[OGL LOG][Proc: 0]p: update_non_local_matrix_data: 0.114 [ms]
[OGL LOG][Proc: 0]p_matrix: call_update: 51.478 [ms]
[OGL LOG][Proc: 0]p_rhs: call_update: 11.908 [ms]
[OGL LOG][Proc: 0]p: init_precond: 0.16 [ms]
[OGL LOG][StoppingCriterion.H:372] Creating stopping criterion with minIter 908 frequency 17
[OGL LOG][Proc: 0]p: generate_solver: 0.002 [ms]
[OGL LOG][Proc: 0]p: solve: 28052.7 [ms]
[OGL LOG][Proc: 0]p: copy_x_back: 0.317 [ms]
[OGL LOG][lduLduBase.H:339] 
Statistics:
	Time per iteration: 18739 [mu s]
	Time per residual norm calculation: 7733.000000 [mu s]
	Time per iteration and DOF: 2.342375 [ns]
	Retrieve results bandwidth 1.577000 [GByte/s]
[OGL LOG][Proc: 0]p: solve_multi_gpu: 28118.1 [ms]
nonecudaGKOCG:  Solving for p, Initial residual = 0.53438, Final residual = 9.60854e-05, No Iterations 1497
[INFO] SolveP: 28148 [ms]
time step continuity errors : sum local = 6.46407e-09, global = -5.31268e-21, cumulative = -3.3002e-20
[INFO] ContinuityError: 16.304 [ms]
[INFO] CorrectBoundary: 0.204 [ms]
[INFO] PISOStep: 28235.3 [ms]
[INFO] TimeStep: 57100.1 [ms]
ExecutionTime = 466.96 s  ClockTime = 514 s

Time = 0.0025

Courant Number mean: 0.0462923 max: 0.481421
[INFO] MatrixAssemblyU: 42.436 [ms]
DILUPBiCGStab:  Solving for Ux, Initial residual = 0.0109364, Final residual = 0.000318173, No Iterations 5
DILUPBiCGStab:  Solving for Uy, Initial residual = 0.0299078, Final residual = 0.000978162, No Iterations 5
DILUPBiCGStab:  Solving for Uz, Initial residual = 0.138732, Final residual = 0.00548168, No Iterations 5
[INFO] MomentumPredictor: 300.557 [ms]
[INFO] MatrixAssemblyPI: 43.891 [ms]
[INFO] AdjustPhi: 1.279 [ms]
[INFO] ConstrainPressure: 0.002 [ms]
[INFO] MatrixAssemblyPII: 14.021 [ms]
[OGL LOG][Proc: 0]: global_index_init: 0.05 [ms]
[OGL LOG][Proc: 0]p_local_coeffs: call_update: 0 [ms]
[OGL LOG][Proc: 0]p_non_local_coeffs: call_update: 0 [ms]
[OGL LOG][Proc: 0]p: update_local_matrix_data: 9.605 [ms]
[OGL LOG][Proc: 0]p: update_non_local_matrix_data: 0.06 [ms]
[OGL LOG][Proc: 0]p_matrix: call_update: 61.441 [ms]
[OGL LOG][Proc: 0]p_rhs: call_update: 3.253 [ms]
[OGL LOG][Proc: 0]p: init_precond: 0.16 [ms]
[OGL LOG][StoppingCriterion.H:372] Creating stopping criterion with minIter 898 frequency 17
[OGL LOG][Proc: 0]p: generate_solver: 0.002 [ms]
[OGL LOG][Proc: 0]p: solve: 28035.5 [ms]
[OGL LOG][Proc: 0]p: copy_x_back: 0.344 [ms]
[OGL LOG][lduLduBase.H:339] 
Statistics:
	Time per iteration: 18727 [mu s]
	Time per residual norm calculation: 7731.000000 [mu s]
	Time per iteration and DOF: 2.340875 [ns]
	Retrieve results bandwidth 1.453000 [GByte/s]
[OGL LOG][Proc: 0]p: solve_multi_gpu: 28118.5 [ms]
nonecudaGKOCG:  Solving for p, Initial residual = 0.522032, Final residual = 8.13672e-05, No Iterations 1497
[INFO] SolveP: 28142.2 [ms]
time step continuity errors : sum local = 5.31355e-09, global = -6.83379e-21, cumulative = -3.98358e-20
[INFO] ContinuityError: 5.179 [ms]
[INFO] CorrectBoundary: 0.126 [ms]
[INFO] PISOStep: 28221.3 [ms]
[INFO] MatrixAssemblyPI: 42.255 [ms]
[INFO] AdjustPhi: 1.669 [ms]
[INFO] ConstrainPressure: 0.003 [ms]
[INFO] MatrixAssemblyPII: 14.045 [ms]
[OGL LOG][Proc: 0]: global_index_init: 0.086 [ms]
[OGL LOG][Proc: 0]p_local_coeffs: call_update: 0 [ms]
[OGL LOG][Proc: 0]p_non_local_coeffs: call_update: 0 [ms]
[OGL LOG][Proc: 0]p: update_local_matrix_data: 9.409 [ms]
[OGL LOG][Proc: 0]p: update_non_local_matrix_data: 0.089 [ms]
[OGL LOG][Proc: 0]p_matrix: call_update: 60.401 [ms]
[OGL LOG][Proc: 0]p_rhs: call_update: 6.261 [ms]
[OGL LOG][Proc: 0]p: init_precond: 0.172 [ms]
[OGL LOG][StoppingCriterion.H:372] Creating stopping criterion with minIter 898 frequency 17
[OGL LOG][Proc: 0]p: generate_solver: 0.003 [ms]
[OGL LOG][Proc: 0]p: solve: 28044.9 [ms]
[OGL LOG][Proc: 0]p: copy_x_back: 0.442 [ms]
[OGL LOG][lduLduBase.H:339] 
Statistics:
	Time per iteration: 18734 [mu s]
	Time per residual norm calculation: 7724.000000 [mu s]
	Time per iteration and DOF: 2.341750 [ns]
	Retrieve results bandwidth 1.131000 [GByte/s]
[OGL LOG][Proc: 0]p: solve_multi_gpu: 28117.5 [ms]
nonecudaGKOCG:  Solving for p, Initial residual = 0.467802, Final residual = 8.54309e-05, No Iterations 1497
[INFO] SolveP: 28147.8 [ms]
time step continuity errors : sum local = 5.55562e-09, global = -2.98514e-21, cumulative = -4.28209e-20
[INFO] ContinuityError: 12.412 [ms]
[INFO] CorrectBoundary: 0.405 [ms]
[INFO] PISOStep: 28231.2 [ms]
[INFO] TimeStep: 56800.4 [ms]
ExecutionTime = 523.36 s  ClockTime = 571 s

Time = 0.00275

Courant Number mean: 0.0481852 max: 0.482197
[INFO] MatrixAssemblyU: 41.888 [ms]
DILUPBiCGStab:  Solving for Ux, Initial residual = 0.00979535, Final residual = 0.000267936, No Iterations 5
DILUPBiCGStab:  Solving for Uy, Initial residual = 0.0253423, Final residual = 0.000696385, No Iterations 5
DILUPBiCGStab:  Solving for Uz, Initial residual = 0.116559, Final residual = 0.00512376, No Iterations 5
[INFO] MomentumPredictor: 295.257 [ms]
[INFO] MatrixAssemblyPI: 43.768 [ms]
[INFO] AdjustPhi: 1.351 [ms]
[INFO] ConstrainPressure: 0.003 [ms]
[INFO] MatrixAssemblyPII: 13.813 [ms]
[OGL LOG][Proc: 0]: global_index_init: 0.049 [ms]
[OGL LOG][Proc: 0]p_local_coeffs: call_update: 0 [ms]
[OGL LOG][Proc: 0]p_non_local_coeffs: call_update: 0 [ms]
[OGL LOG][Proc: 0]p: update_local_matrix_data: 9.751 [ms]
[OGL LOG][Proc: 0]p: update_non_local_matrix_data: 0.036 [ms]
[OGL LOG][Proc: 0]p_matrix: call_update: 62.736 [ms]
[OGL LOG][Proc: 0]p_rhs: call_update: 1.791 [ms]
[OGL LOG][Proc: 0]p: init_precond: 0.162 [ms]
[OGL LOG][StoppingCriterion.H:372] Creating stopping criterion with minIter 898 frequency 17
[OGL LOG][Proc: 0]p: generate_solver: 0.002 [ms]
[OGL LOG][Proc: 0]p: solve: 28036 [ms]
[OGL LOG][Proc: 0]p: copy_x_back: 0.359 [ms]
[OGL LOG][lduLduBase.H:339] 
Statistics:
	Time per iteration: 18728 [mu s]
	Time per residual norm calculation: 7732.000000 [mu s]
	Time per iteration and DOF: 2.341000 [ns]
	Retrieve results bandwidth 1.392000 [GByte/s]
[OGL LOG][Proc: 0]p: solve_multi_gpu: 28102.5 [ms]
nonecudaGKOCG:  Solving for p, Initial residual = 0.498832, Final residual = 7.35705e-05, No Iterations 1497
[INFO] SolveP: 28127.1 [ms]
time step continuity errors : sum local = 4.32979e-09, global = -2.94109e-21, cumulative = -4.5762e-20
[INFO] ContinuityError: 21.743 [ms]
[INFO] CorrectBoundary: 0.295 [ms]
[INFO] PISOStep: 28221.1 [ms]
[INFO] MatrixAssemblyPI: 41.837 [ms]
[INFO] AdjustPhi: 1.741 [ms]
[INFO] ConstrainPressure: 0.002 [ms]
[INFO] MatrixAssemblyPII: 14.203 [ms]
[OGL LOG][Proc: 0]: global_index_init: 0.027 [ms]
[OGL LOG][Proc: 0]p_local_coeffs: call_update: 0 [ms]
[OGL LOG][Proc: 0]p_non_local_coeffs: call_update: 0 [ms]
[OGL LOG][Proc: 0]p: update_local_matrix_data: 9.591 [ms]
[OGL LOG][Proc: 0]p: update_non_local_matrix_data: 0.076 [ms]
[OGL LOG][Proc: 0]p_matrix: call_update: 62.998 [ms]
[OGL LOG][Proc: 0]p_rhs: call_update: 2.938 [ms]
[OGL LOG][Proc: 0]p: init_precond: 0.163 [ms]
[OGL LOG][StoppingCriterion.H:372] Creating stopping criterion with minIter 898 frequency 17
[OGL LOG][Proc: 0]p: generate_solver: 0.003 [ms]
[OGL LOG][Proc: 0]p: solve: 28018.9 [ms]
[OGL LOG][Proc: 0]p: copy_x_back: 0.353 [ms]
[OGL LOG][lduLduBase.H:339] 
Statistics:
	Time per iteration: 18716 [mu s]
	Time per residual norm calculation: 7727.000000 [mu s]
	Time per iteration and DOF: 2.339500 [ns]
	Retrieve results bandwidth 1.416000 [GByte/s]
[OGL LOG][Proc: 0]p: solve_multi_gpu: 28086.7 [ms]
nonecudaGKOCG:  Solving for p, Initial residual = 0.443353, Final residual = 6.95193e-05, No Iterations 1497
[INFO] SolveP: 28113.5 [ms]
time step continuity errors : sum local = 4.09287e-09, global = -4.15008e-21, cumulative = -4.99121e-20
[INFO] ContinuityError: 21.329 [ms]
[INFO] CorrectBoundary: 0.165 [ms]
[INFO] PISOStep: 28205.5 [ms]
[INFO] TimeStep: 56768.7 [ms]
ExecutionTime = 579.73 s  ClockTime = 628 s

Time = 0.003

Courant Number mean: 0.0499233 max: 0.482989
[INFO] MatrixAssemblyU: 43.946 [ms]
DILUPBiCGStab:  Solving for Ux, Initial residual = 0.00869639, Final residual = 0.000226082, No Iterations 5
DILUPBiCGStab:  Solving for Uy, Initial residual = 0.0226169, Final residual = 0.000589548, No Iterations 5
DILUPBiCGStab:  Solving for Uz, Initial residual = 0.097511, Final residual = 0.00440487, No Iterations 5
[INFO] MomentumPredictor: 292.896 [ms]
[INFO] MatrixAssemblyPI: 43.731 [ms]
[INFO] AdjustPhi: 1.252 [ms]
[INFO] ConstrainPressure: 0.002 [ms]
[INFO] MatrixAssemblyPII: 14.253 [ms]
[OGL LOG][Proc: 0]: global_index_init: 0.032 [ms]
[OGL LOG][Proc: 0]p_local_coeffs: call_update: 0 [ms]
[OGL LOG][Proc: 0]p_non_local_coeffs: call_update: 0 [ms]
[OGL LOG][Proc: 0]p: update_local_matrix_data: 9.263 [ms]
[OGL LOG][Proc: 0]p: update_non_local_matrix_data: 0.124 [ms]
[OGL LOG][Proc: 0]p_matrix: call_update: 52.595 [ms]
[OGL LOG][Proc: 0]p_rhs: call_update: 12.109 [ms]
[OGL LOG][Proc: 0]p: init_precond: 0.159 [ms]
[OGL LOG][StoppingCriterion.H:372] Creating stopping criterion with minIter 898 frequency 17
[OGL LOG][Proc: 0]p: generate_solver: 0.002 [ms]
[OGL LOG][Proc: 0]p: solve: 28028.7 [ms]
[OGL LOG][Proc: 0]p: copy_x_back: 0.537 [ms]
[OGL LOG][lduLduBase.H:339] 
Statistics:
	Time per iteration: 18723 [mu s]
	Time per residual norm calculation: 7677.000000 [mu s]
	Time per iteration and DOF: 2.340375 [ns]
	Retrieve results bandwidth 0.931000 [GByte/s]
[OGL LOG][Proc: 0]p: solve_multi_gpu: 28102.9 [ms]
nonecudaGKOCG:  Solving for p, Initial residual = 0.442352, Final residual = 7.271e-05, No Iterations 1497
[INFO] SolveP: 28127.7 [ms]
time step continuity errors : sum local = 4.14987e-09, global = -4.3525e-21, cumulative = -5.42646e-20
[INFO] ContinuityError: 11.703 [ms]
[INFO] CorrectBoundary: 0.296 [ms]
[INFO] PISOStep: 28211.8 [ms]
[INFO] MatrixAssemblyPI: 42.142 [ms]
[INFO] AdjustPhi: 1.403 [ms]
[INFO] ConstrainPressure: 0.002 [ms]
[INFO] MatrixAssemblyPII: 14.589 [ms]
[OGL LOG][Proc: 0]: global_index_init: 0.057 [ms]
[OGL LOG][Proc: 0]p_local_coeffs: call_update: 0 [ms]
[OGL LOG][Proc: 0]p_non_local_coeffs: call_update: 0 [ms]
[OGL LOG][Proc: 0]p: update_local_matrix_data: 9.63 [ms]
[OGL LOG][Proc: 0]p: update_non_local_matrix_data: 0.058 [ms]
[OGL LOG][Proc: 0]p_matrix: call_update: 62.866 [ms]
[OGL LOG][Proc: 0]p_rhs: call_update: 2.823 [ms]
[OGL LOG][Proc: 0]p: init_precond: 0.166 [ms]
[OGL LOG][StoppingCriterion.H:372] Creating stopping criterion with minIter 898 frequency 17
[OGL LOG][Proc: 0]p: generate_solver: 0.002 [ms]
[OGL LOG][Proc: 0]p: solve: 27704.4 [ms]
[OGL LOG][Proc: 0]p: copy_x_back: 0.523 [ms]
[OGL LOG][lduLduBase.H:339] 
Statistics:
	Time per iteration: 18719 [mu s]
	Time per residual norm calculation: 7728.000000 [mu s]
	Time per iteration and DOF: 2.339875 [ns]
	Retrieve results bandwidth 0.956000 [GByte/s]
[OGL LOG][Proc: 0]p: solve_multi_gpu: 27777.2 [ms]
nonecudaGKOCG:  Solving for p, Initial residual = 0.39407, Final residual = 9.8615e-05, No Iterations 1480
[INFO] SolveP: 27806.1 [ms]
time step continuity errors : sum local = 5.60398e-09, global = -7.14501e-21, cumulative = -6.14096e-20
[INFO] ContinuityError: 15.158 [ms]
[INFO] CorrectBoundary: 0.175 [ms]
[INFO] PISOStep: 27892.1 [ms]
[INFO] TimeStep: 56445.6 [ms]
ExecutionTime = 635.76 s  ClockTime = 684 s

Time = 0.00325

Courant Number mean: 0.0515384 max: 0.483555
[INFO] MatrixAssemblyU: 41.575 [ms]
DILUPBiCGStab:  Solving for Ux, Initial residual = 0.00789213, Final residual = 0.000193578, No Iterations 5
DILUPBiCGStab:  Solving for Uy, Initial residual = 0.019794, Final residual = 0.000465768, No Iterations 5
DILUPBiCGStab:  Solving for Uz, Initial residual = 0.0832295, Final residual = 0.00407288, No Iterations 5
[INFO] MomentumPredictor: 296.443 [ms]
[INFO] MatrixAssemblyPI: 43.98 [ms]
[INFO] AdjustPhi: 1.122 [ms]
[INFO] ConstrainPressure: 0.002 [ms]
[INFO] MatrixAssemblyPII: 14.306 [ms]
[OGL LOG][Proc: 0]: global_index_init: 0.09 [ms]
[OGL LOG][Proc: 0]p_local_coeffs: call_update: 0 [ms]
[OGL LOG][Proc: 0]p_non_local_coeffs: call_update: 0 [ms]
[OGL LOG][Proc: 0]p: update_local_matrix_data: 9.225 [ms]
[OGL LOG][Proc: 0]p: update_non_local_matrix_data: 0.162 [ms]
[OGL LOG][Proc: 0]p_matrix: call_update: 50.461 [ms]
[OGL LOG][Proc: 0]p_rhs: call_update: 13.899 [ms]
[OGL LOG][Proc: 0]p: init_precond: 0.164 [ms]
[OGL LOG][StoppingCriterion.H:372] Creating stopping criterion with minIter 888 frequency 17
[OGL LOG][Proc: 0]p: generate_solver: 0.004 [ms]
[OGL LOG][Proc: 0]p: solve: 27701.4 [ms]
[OGL LOG][Proc: 0]p: copy_x_back: 0.415 [ms]
[OGL LOG][lduLduBase.H:339] 
Statistics:
	Time per iteration: 18717 [mu s]
	Time per residual norm calculation: 7722.000000 [mu s]
	Time per iteration and DOF: 2.339625 [ns]
	Retrieve results bandwidth 1.204000 [GByte/s]
[OGL LOG][Proc: 0]p: solve_multi_gpu: 27775.8 [ms]
nonecudaGKOCG:  Solving for p, Initial residual = 0.41279, Final residual = 9.91695e-05, No Iterations 1480
[INFO] SolveP: 27801.5 [ms]
time step continuity errors : sum local = 5.27775e-09, global = -3.13769e-21, cumulative = -6.45473e-20
[INFO] ContinuityError: 14.297 [ms]
[INFO] CorrectBoundary: 0.201 [ms]
[INFO] PISOStep: 27888.2 [ms]
[INFO] MatrixAssemblyPI: 41.884 [ms]
[INFO] AdjustPhi: 1.952 [ms]
[INFO] ConstrainPressure: 0.002 [ms]
[INFO] MatrixAssemblyPII: 14.159 [ms]
[OGL LOG][Proc: 0]: global_index_init: 0.032 [ms]
[OGL LOG][Proc: 0]p_local_coeffs: call_update: 0 [ms]
[OGL LOG][Proc: 0]p_non_local_coeffs: call_update: 0 [ms]
[OGL LOG][Proc: 0]p: update_local_matrix_data: 9.376 [ms]
[OGL LOG][Proc: 0]p: update_non_local_matrix_data: 0.142 [ms]
[OGL LOG][Proc: 0]p_matrix: call_update: 55.013 [ms]
[OGL LOG][Proc: 0]p_rhs: call_update: 10.593 [ms]
[OGL LOG][Proc: 0]p: init_precond: 0.169 [ms]
[OGL LOG][StoppingCriterion.H:372] Creating stopping criterion with minIter 888 frequency 17
[OGL LOG][Proc: 0]p: generate_solver: 0.002 [ms]
[OGL LOG][Proc: 0]p: solve: 27722.2 [ms]
[OGL LOG][Proc: 0]p: copy_x_back: 0.394 [ms]
[OGL LOG][lduLduBase.H:339] 
Statistics:
	Time per iteration: 18731 [mu s]
	Time per residual norm calculation: 7720.000000 [mu s]
	Time per iteration and DOF: 2.341375 [ns]
	Retrieve results bandwidth 1.269000 [GByte/s]
[OGL LOG][Proc: 0]p: solve_multi_gpu: 27803.6 [ms]
nonecudaGKOCG:  Solving for p, Initial residual = 0.364954, Final residual = 9.17857e-05, No Iterations 1480
[INFO] SolveP: 27828 [ms]
time step continuity errors : sum local = 4.88812e-09, global = -3.77741e-21, cumulative = -6.83247e-20
[INFO] ContinuityError: 5.71 [ms]
[INFO] CorrectBoundary: 0.124 [ms]
[INFO] PISOStep: 27905.1 [ms]
[INFO] TimeStep: 56136.2 [ms]
ExecutionTime = 691.52 s  ClockTime = 740 s

Time = 0.0035

Courant Number mean: 0.0530388 max: 0.484153
[INFO] MatrixAssemblyU: 41.964 [ms]
DILUPBiCGStab:  Solving for Ux, Initial residual = 0.00715148, Final residual = 0.000167868, No Iterations 5
DILUPBiCGStab:  Solving for Uy, Initial residual = 0.0179383, Final residual = 0.000397649, No Iterations 5
DILUPBiCGStab:  Solving for Uz, Initial residual = 0.0718576, Final residual = 0.00358333, No Iterations 5
[INFO] MomentumPredictor: 294.854 [ms]
[INFO] MatrixAssemblyPI: 43.892 [ms]
[INFO] AdjustPhi: 1.11 [ms]
[INFO] ConstrainPressure: 0.002 [ms]
[INFO] MatrixAssemblyPII: 14.364 [ms]
[OGL LOG][Proc: 0]: global_index_init: 0.049 [ms]
[OGL LOG][Proc: 0]p_local_coeffs: call_update: 0 [ms]
[OGL LOG][Proc: 0]p_non_local_coeffs: call_update: 0 [ms]
[OGL LOG][Proc: 0]p: update_local_matrix_data: 9.37 [ms]
[OGL LOG][Proc: 0]p: update_non_local_matrix_data: 0.151 [ms]
[OGL LOG][Proc: 0]p_matrix: call_update: 56.139 [ms]
[OGL LOG][Proc: 0]p_rhs: call_update: 8.331 [ms]
[OGL LOG][Proc: 0]p: init_precond: 0.164 [ms]
[OGL LOG][StoppingCriterion.H:372] Creating stopping criterion with minIter 888 frequency 17
[OGL LOG][Proc: 0]p: generate_solver: 0.002 [ms]
[OGL LOG][Proc: 0]p: solve: 28015.6 [ms]
[OGL LOG][Proc: 0]p: copy_x_back: 0.375 [ms]
[OGL LOG][lduLduBase.H:339] 
Statistics:
	Time per iteration: 18714 [mu s]
	Time per residual norm calculation: 7724.000000 [mu s]
	Time per iteration and DOF: 2.339250 [ns]
	Retrieve results bandwidth 1.333000 [GByte/s]
[OGL LOG][Proc: 0]p: solve_multi_gpu: 28083.9 [ms]
nonecudaGKOCG:  Solving for p, Initial residual = 0.370529, Final residual = 6.56492e-05, No Iterations 1497
[INFO] SolveP: 28115.7 [ms]
time step continuity errors : sum local = 3.37396e-09, global = -5.48753e-21, cumulative = -7.38122e-20
[INFO] ContinuityError: 13.347 [ms]
[INFO] CorrectBoundary: 0.142 [ms]
[INFO] PISOStep: 28201.4 [ms]
[INFO] MatrixAssemblyPI: 41.993 [ms]
[INFO] AdjustPhi: 1.708 [ms]
[INFO] ConstrainPressure: 0.002 [ms]
[INFO] MatrixAssemblyPII: 11.992 [ms]
[OGL LOG][Proc: 0]: global_index_init: 0.03 [ms]
[OGL LOG][Proc: 0]p_local_coeffs: call_update: 0.002 [ms]
[OGL LOG][Proc: 0]p_non_local_coeffs: call_update: 0 [ms]
[OGL LOG][Proc: 0]p: update_local_matrix_data: 9.367 [ms]
[OGL LOG][Proc: 0]p: update_non_local_matrix_data: 0.056 [ms]
[OGL LOG][Proc: 0]p_matrix: call_update: 54.908 [ms]
[OGL LOG][Proc: 0]p_rhs: call_update: 10.854 [ms]
[OGL LOG][Proc: 0]p: init_precond: 0.166 [ms]
[OGL LOG][StoppingCriterion.H:372] Creating stopping criterion with minIter 898 frequency 17
[OGL LOG][Proc: 0]p: generate_solver: 0.002 [ms]
[OGL LOG][Proc: 0]p: solve: 28039.6 [ms]
[OGL LOG][Proc: 0]p: copy_x_back: 0.251 [ms]
[OGL LOG][lduLduBase.H:339] 
Statistics:
	Time per iteration: 18730 [mu s]
	Time per residual norm calculation: 7739.000000 [mu s]
	Time per iteration and DOF: 2.341250 [ns]
	Retrieve results bandwidth 1.992000 [GByte/s]
[OGL LOG][Proc: 0]p: solve_multi_gpu: 28108.7 [ms]
nonecudaGKOCG:  Solving for p, Initial residual = 0.328938, Final residual = 6.17825e-05, No Iterations 1497
[INFO] SolveP: 28142 [ms]
time step continuity errors : sum local = 3.16307e-09, global = -5.61624e-21, cumulative = -7.94285e-20
[INFO] ContinuityError: 9.07 [ms]
[INFO] CorrectBoundary: 0.159 [ms]
[INFO] PISOStep: 28226.6 [ms]
[INFO] TimeStep: 56769.6 [ms]
ExecutionTime = 747.89 s  ClockTime = 797 s

Time = 0.00375

Courant Number mean: 0.054446 max: 0.484594
[INFO] MatrixAssemblyU: 42.853 [ms]
DILUPBiCGStab:  Solving for Ux, Initial residual = 0.00655719, Final residual = 0.000146053, No Iterations 5
DILUPBiCGStab:  Solving for Uy, Initial residual = 0.0160582, Final residual = 0.00034257, No Iterations 5
DILUPBiCGStab:  Solving for Uz, Initial residual = 0.0620873, Final residual = 0.00325912, No Iterations 5
[INFO] MomentumPredictor: 293.197 [ms]
[INFO] MatrixAssemblyPI: 43.526 [ms]
[INFO] AdjustPhi: 1.549 [ms]
[INFO] ConstrainPressure: 0.003 [ms]
[INFO] MatrixAssemblyPII: 14.59 [ms]
[OGL LOG][Proc: 0]: global_index_init: 0.063 [ms]
[OGL LOG][Proc: 0]p_local_coeffs: call_update: 0 [ms]
[OGL LOG][Proc: 0]p_non_local_coeffs: call_update: 0 [ms]
[OGL LOG][Proc: 0]p: update_local_matrix_data: 9.567 [ms]
[OGL LOG][Proc: 0]p: update_non_local_matrix_data: 0.108 [ms]
[OGL LOG][Proc: 0]p_matrix: call_update: 59.371 [ms]
[OGL LOG][Proc: 0]p_rhs: call_update: 4.076 [ms]
[OGL LOG][Proc: 0]p: init_precond: 0.164 [ms]
[OGL LOG][StoppingCriterion.H:372] Creating stopping criterion with minIter 898 frequency 17
[OGL LOG][Proc: 0]p: generate_solver: 0.002 [ms]
[OGL LOG][Proc: 0]p: solve: 27752.1 [ms]
[OGL LOG][Proc: 0]p: copy_x_back: 0.387 [ms]
[OGL LOG][lduLduBase.H:339] 
Statistics:
	Time per iteration: 18751 [mu s]
	Time per residual norm calculation: 7732.000000 [mu s]
	Time per iteration and DOF: 2.343875 [ns]
	Retrieve results bandwidth 1.291000 [GByte/s]
[OGL LOG][Proc: 0]p: solve_multi_gpu: 27836.7 [ms]
nonecudaGKOCG:  Solving for p, Initial residual = 0.338652, Final residual = 9.37414e-05, No Iterations 1480
[INFO] SolveP: 27852.6 [ms]
time step continuity errors : sum local = 4.60986e-09, global = -4.8851e-21, cumulative = -8.43136e-20
[INFO] ContinuityError: 9.348 [ms]
[INFO] CorrectBoundary: 0.166 [ms]
[INFO] PISOStep: 27934.8 [ms]
[INFO] MatrixAssemblyPI: 41.671 [ms]
[INFO] AdjustPhi: 2.096 [ms]
[INFO] ConstrainPressure: 0.005 [ms]
[INFO] MatrixAssemblyPII: 14.438 [ms]
[OGL LOG][Proc: 0]: global_index_init: 0.03 [ms]
[OGL LOG][Proc: 0]p_local_coeffs: call_update: 0 [ms]
[OGL LOG][Proc: 0]p_non_local_coeffs: call_update: 0 [ms]
[OGL LOG][Proc: 0]p: update_local_matrix_data: 9.253 [ms]
[OGL LOG][Proc: 0]p: update_non_local_matrix_data: 0.116 [ms]
[OGL LOG][Proc: 0]p_matrix: call_update: 49.906 [ms]
[OGL LOG][Proc: 0]p_rhs: call_update: 13.341 [ms]
[OGL LOG][Proc: 0]p: init_precond: 0.161 [ms]
[OGL LOG][StoppingCriterion.H:372] Creating stopping criterion with minIter 888 frequency 17
[OGL LOG][Proc: 0]p: generate_solver: 0.002 [ms]
[OGL LOG][Proc: 0]p: solve: 27715 [ms]
[OGL LOG][Proc: 0]p: copy_x_back: 0.491 [ms]
[OGL LOG][lduLduBase.H:339] 
Statistics:
	Time per iteration: 18726 [mu s]
	Time per residual norm calculation: 7736.000000 [mu s]
	Time per iteration and DOF: 2.340750 [ns]
	Retrieve results bandwidth 1.018000 [GByte/s]
[OGL LOG][Proc: 0]p: solve_multi_gpu: 27785.3 [ms]
nonecudaGKOCG:  Solving for p, Initial residual = 0.298675, Final residual = 8.6402e-05, No Iterations 1480
[INFO] SolveP: 27813.9 [ms]
time step continuity errors : sum local = 4.25143e-09, global = -6.88591e-21, cumulative = -9.11995e-20
[INFO] ContinuityError: 11.853 [ms]
[INFO] CorrectBoundary: 0.134 [ms]
[INFO] PISOStep: 27897.3 [ms]
[INFO] TimeStep: 56172.9 [ms]
ExecutionTime = 803.69 s  ClockTime = 853 s

Time = 0.004

Courant Number mean: 0.0557642 max: 0.48506
[INFO] MatrixAssemblyU: 42.685 [ms]
DILUPBiCGStab:  Solving for Ux, Initial residual = 0.00602832, Final residual = 0.00012978, No Iterations 5
DILUPBiCGStab:  Solving for Uy, Initial residual = 0.0147321, Final residual = 0.000295912, No Iterations 5
DILUPBiCGStab:  Solving for Uz, Initial residual = 0.0548067, Final residual = 0.00289464, No Iterations 5
[INFO] MomentumPredictor: 293.724 [ms]
[INFO] MatrixAssemblyPI: 43.873 [ms]
[INFO] AdjustPhi: 1.094 [ms]
[INFO] ConstrainPressure: 0.009 [ms]
[INFO] MatrixAssemblyPII: 14.279 [ms]
[OGL LOG][Proc: 0]: global_index_init: 0.029 [ms]
[OGL LOG][Proc: 0]p_local_coeffs: call_update: 0 [ms]
[OGL LOG][Proc: 0]p_non_local_coeffs: call_update: 0 [ms]
[OGL LOG][Proc: 0]p: update_local_matrix_data: 9.543 [ms]
[OGL LOG][Proc: 0]p: update_non_local_matrix_data: 0.093 [ms]
[OGL LOG][Proc: 0]p_matrix: call_update: 60.149 [ms]
[OGL LOG][Proc: 0]p_rhs: call_update: 4.258 [ms]
[OGL LOG][Proc: 0]p: init_precond: 0.172 [ms]
[OGL LOG][StoppingCriterion.H:372] Creating stopping criterion with minIter 888 frequency 17
[OGL LOG][Proc: 0]p: generate_solver: 0.002 [ms]
[OGL LOG][Proc: 0]p: solve: 28050.5 [ms]
[OGL LOG][Proc: 0]p: copy_x_back: 0.37 [ms]
[OGL LOG][lduLduBase.H:339] 
Statistics:
	Time per iteration: 18737 [mu s]
	Time per residual norm calculation: 7726.000000 [mu s]
	Time per iteration and DOF: 2.342125 [ns]
	Retrieve results bandwidth 1.351000 [GByte/s]
[OGL LOG][Proc: 0]p: solve_multi_gpu: 28117.4 [ms]
nonecudaGKOCG:  Solving for p, Initial residual = 0.307022, Final residual = 5.29685e-05, No Iterations 1497
[INFO] SolveP: 28149.3 [ms]
time step continuity errors : sum local = 2.50605e-09, global = -5.80646e-21, cumulative = -9.70059e-20
[INFO] ContinuityError: 11.698 [ms]
[INFO] CorrectBoundary: 0.114 [ms]
[INFO] PISOStep: 28233.8 [ms]
[INFO] MatrixAssemblyPI: 42.365 [ms]
[INFO] AdjustPhi: 1.328 [ms]
[INFO] ConstrainPressure: 0.002 [ms]
[INFO] MatrixAssemblyPII: 14.342 [ms]
[OGL LOG][Proc: 0]: global_index_init: 0.029 [ms]
[OGL LOG][Proc: 0]p_local_coeffs: call_update: 0 [ms]
[OGL LOG][Proc: 0]p_non_local_coeffs: call_update: 0 [ms]
[OGL LOG][Proc: 0]p: update_local_matrix_data: 9.36 [ms]
[OGL LOG][Proc: 0]p: update_non_local_matrix_data: 0.139 [ms]
[OGL LOG][Proc: 0]p_matrix: call_update: 55.268 [ms]
[OGL LOG][Proc: 0]p_rhs: call_update: 11.382 [ms]
[OGL LOG][Proc: 0]p: init_precond: 0.159 [ms]
[OGL LOG][StoppingCriterion.H:372] Creating stopping criterion with minIter 898 frequency 17
[OGL LOG][Proc: 0]p: generate_solver: 0.002 [ms]
[OGL LOG][Proc: 0]p: solve: 27720.7 [ms]
[OGL LOG][Proc: 0]p: copy_x_back: 0.29 [ms]
[OGL LOG][lduLduBase.H:339] 
Statistics:
	Time per iteration: 18730 [mu s]
	Time per residual norm calculation: 7741.000000 [mu s]
	Time per iteration and DOF: 2.341250 [ns]
	Retrieve results bandwidth 1.724000 [GByte/s]
[OGL LOG][Proc: 0]p: solve_multi_gpu: 27790.6 [ms]
nonecudaGKOCG:  Solving for p, Initial residual = 0.271908, Final residual = 9.48727e-05, No Iterations 1480
[INFO] SolveP: 27822.6 [ms]
time step continuity errors : sum local = 4.47465e-09, global = -6.03868e-21, cumulative = -1.03045e-19
[INFO] ContinuityError: 13.941 [ms]
[INFO] CorrectBoundary: 0.12 [ms]
[INFO] PISOStep: 27907.5 [ms]
[INFO] TimeStep: 56482.5 [ms]
ExecutionTime = 859.78 s  ClockTime = 910 s

Time = 0.00425

Courant Number mean: 0.0570077 max: 0.485418
[INFO] MatrixAssemblyU: 42.495 [ms]
DILUPBiCGStab:  Solving for Ux, Initial residual = 0.00557398, Final residual = 0.000114568, No Iterations 5
DILUPBiCGStab:  Solving for Uy, Initial residual = 0.0134055, Final residual = 0.000268039, No Iterations 5
DILUPBiCGStab:  Solving for Uz, Initial residual = 0.0479148, Final residual = 0.00259096, No Iterations 5
[INFO] MomentumPredictor: 293.837 [ms]
[INFO] MatrixAssemblyPI: 43.793 [ms]
[INFO] AdjustPhi: 1.28 [ms]
[INFO] ConstrainPressure: 0.002 [ms]
[INFO] MatrixAssemblyPII: 14.112 [ms]
[OGL LOG][Proc: 0]: global_index_init: 0.062 [ms]
[OGL LOG][Proc: 0]p_local_coeffs: call_update: 0 [ms]
[OGL LOG][Proc: 0]p_non_local_coeffs: call_update: 0 [ms]
[OGL LOG][Proc: 0]p: update_local_matrix_data: 9.444 [ms]
[OGL LOG][Proc: 0]p: update_non_local_matrix_data: 0.095 [ms]
[OGL LOG][Proc: 0]p_matrix: call_update: 56.873 [ms]
[OGL LOG][Proc: 0]p_rhs: call_update: 7.947 [ms]
[OGL LOG][Proc: 0]p: init_precond: 0.168 [ms]
[OGL LOG][StoppingCriterion.H:372] Creating stopping criterion with minIter 888 frequency 17
[OGL LOG][Proc: 0]p: generate_solver: 0.002 [ms]
[OGL LOG][Proc: 0]p: solve: 27731 [ms]
[OGL LOG][Proc: 0]p: copy_x_back: 0.362 [ms]
[OGL LOG][lduLduBase.H:339] 
Statistics:
	Time per iteration: 18737 [mu s]
	Time per residual norm calculation: 7740.000000 [mu s]
	Time per iteration and DOF: 2.342125 [ns]
	Retrieve results bandwidth 1.381000 [GByte/s]
[OGL LOG][Proc: 0]p: solve_multi_gpu: 27798 [ms]
nonecudaGKOCG:  Solving for p, Initial residual = 0.276387, Final residual = 8.46234e-05, No Iterations 1480
[INFO] SolveP: 27825.2 [ms]
time step continuity errors : sum local = 3.90165e-09, global = -5.36779e-21, cumulative = -1.08412e-19
[INFO] ContinuityError: 19.311 [ms]
[INFO] CorrectBoundary: 0.161 [ms]
[INFO] PISOStep: 27916.9 [ms]
[INFO] MatrixAssemblyPI: 41.757 [ms]
[INFO] AdjustPhi: 1.867 [ms]
[INFO] ConstrainPressure: 0.001 [ms]
[INFO] MatrixAssemblyPII: 14.395 [ms]
[OGL LOG][Proc: 0]: global_index_init: 0.086 [ms]
[OGL LOG][Proc: 0]p_local_coeffs: call_update: 0 [ms]
[OGL LOG][Proc: 0]p_non_local_coeffs: call_update: 0 [ms]
[OGL LOG][Proc: 0]p: update_local_matrix_data: 9.33 [ms]
[OGL LOG][Proc: 0]p: update_non_local_matrix_data: 0.147 [ms]
[OGL LOG][Proc: 0]p_matrix: call_update: 55.162 [ms]
[OGL LOG][Proc: 0]p_rhs: call_update: 10.744 [ms]
[OGL LOG][Proc: 0]p: init_precond: 0.163 [ms]
[OGL LOG][StoppingCriterion.H:372] Creating stopping criterion with minIter 888 frequency 17
[OGL LOG][Proc: 0]p: generate_solver: 0.002 [ms]
[OGL LOG][Proc: 0]p: solve: 16721.7 [ms]
[OGL LOG][Proc: 0]p: copy_x_back: 0.355 [ms]
[OGL LOG][lduLduBase.H:339] 
Statistics:
	Time per iteration: 18538 [mu s]
	Time per residual norm calculation: 7744.000000 [mu s]
	Time per iteration and DOF: 2.317250 [ns]
	Retrieve results bandwidth 1.408000 [GByte/s]
[OGL LOG][Proc: 0]p: solve_multi_gpu: 16790.7 [ms]
nonecudaGKOCG:  Solving for p, Initial residual = 0.243543, Final residual = 9.08329e-05, No Iterations 902
[INFO] SolveP: 16822.8 [ms]
time step continuity errors : sum local = 4.33257e-09, global = -4.34005e-21, cumulative = -1.12752e-19
[INFO] ContinuityError: 15.204 [ms]
[INFO] CorrectBoundary: 0.189 [ms]
[INFO] PISOStep: 16908.8 [ms]
[INFO] TimeStep: 45166.9 [ms]
ExecutionTime = 904.64 s  ClockTime = 955 s

Time = 0.0045

Courant Number mean: 0.0581808 max: 0.485793
[INFO] MatrixAssemblyU: 41.257 [ms]
DILUPBiCGStab:  Solving for Ux, Initial residual = 0.00518233, Final residual = 0.000103739, No Iterations 5
DILUPBiCGStab:  Solving for Uy, Initial residual = 0.0124188, Final residual = 0.000235514, No Iterations 5
DILUPBiCGStab:  Solving for Uz, Initial residual = 0.0433865, Final residual = 0.00232611, No Iterations 5
[INFO] MomentumPredictor: 295.254 [ms]
[INFO] MatrixAssemblyPI: 43.809 [ms]
[INFO] AdjustPhi: 1.222 [ms]
[INFO] ConstrainPressure: 0.002 [ms]
[INFO] MatrixAssemblyPII: 14.362 [ms]
[OGL LOG][Proc: 0]: global_index_init: 0.071 [ms]
[OGL LOG][Proc: 0]p_local_coeffs: call_update: 0 [ms]
[OGL LOG][Proc: 0]p_non_local_coeffs: call_update: 0 [ms]
[OGL LOG][Proc: 0]p: update_local_matrix_data: 9.093 [ms]
[OGL LOG][Proc: 0]p: update_non_local_matrix_data: 0.172 [ms]
[OGL LOG][Proc: 0]p_matrix: call_update: 53.707 [ms]
[OGL LOG][Proc: 0]p_rhs: call_update: 11.203 [ms]
[OGL LOG][Proc: 0]p: init_precond: 0.168 [ms]
[OGL LOG][StoppingCriterion.H:372] Creating stopping criterion with minIter 541 frequency 13
[OGL LOG][Proc: 0]p: generate_solver: 0.002 [ms]
[OGL LOG][Proc: 0]p: solve: 28135.4 [ms]
[OGL LOG][Proc: 0]p: copy_x_back: 0.341 [ms]
[OGL LOG][lduLduBase.H:339] 
Statistics:
	Time per iteration: 18971 [mu s]
	Time per residual norm calculation: 7732.000000 [mu s]
	Time per iteration and DOF: 2.371375 [ns]
	Retrieve results bandwidth 1.466000 [GByte/s]
[OGL LOG][Proc: 0]p: solve_multi_gpu: 28203.9 [ms]
nonecudaGKOCG:  Solving for p, Initial residual = 0.251933, Final residual = 7.6913e-05, No Iterations 1483
[INFO] SolveP: 28236.2 [ms]
time step continuity errors : sum local = 3.41239e-09, global = -5.86714e-21, cumulative = -1.1862e-19
[INFO] ContinuityError: 12.209 [ms]
[INFO] CorrectBoundary: 0.469 [ms]
[INFO] PISOStep: 28320.7 [ms]
[INFO] MatrixAssemblyPI: 41.777 [ms]
[INFO] AdjustPhi: 1.92 [ms]
[INFO] ConstrainPressure: 0.002 [ms]
[INFO] MatrixAssemblyPII: 14.359 [ms]
[OGL LOG][Proc: 0]: global_index_init: 0.048 [ms]
[OGL LOG][Proc: 0]p_local_coeffs: call_update: 0 [ms]
[OGL LOG][Proc: 0]p_non_local_coeffs: call_update: 0 [ms]
[OGL LOG][Proc: 0]p: update_local_matrix_data: 9.122 [ms]
[OGL LOG][Proc: 0]p: update_non_local_matrix_data: 0.141 [ms]
[OGL LOG][Proc: 0]p_matrix: call_update: 54.459 [ms]
[OGL LOG][Proc: 0]p_rhs: call_update: 11.514 [ms]
[OGL LOG][Proc: 0]p: init_precond: 0.17 [ms]
[OGL LOG][StoppingCriterion.H:372] Creating stopping criterion with minIter 889 frequency 17
[OGL LOG][Proc: 0]p: generate_solver: 0.001 [ms]
[OGL LOG][Proc: 0]p: solve: 27712.1 [ms]
[OGL LOG][Proc: 0]p: copy_x_back: 0.48 [ms]
[OGL LOG][lduLduBase.H:339] 
Statistics:
	Time per iteration: 18724 [mu s]
	Time per residual norm calculation: 7739.000000 [mu s]
	Time per iteration and DOF: 2.340500 [ns]
	Retrieve results bandwidth 1.041000 [GByte/s]
[OGL LOG][Proc: 0]p: solve_multi_gpu: 27782.1 [ms]
nonecudaGKOCG:  Solving for p, Initial residual = 0.22278, Final residual = 8.23728e-05, No Iterations 1480
[INFO] SolveP: 27813.5 [ms]
time step continuity errors : sum local = 3.64616e-09, global = -5.37029e-21, cumulative = -1.2399e-19
[INFO] ContinuityError: 14.114 [ms]
[INFO] CorrectBoundary: 0.12 [ms]
[INFO] PISOStep: 27898.6 [ms]
[INFO] TimeStep: 56560.6 [ms]
ExecutionTime = 960.83 s  ClockTime = 1011 s

Time = 0.00475

Courant Number mean: 0.0592928 max: 0.486091
[INFO] MatrixAssemblyU: 42.564 [ms]
DILUPBiCGStab:  Solving for Ux, Initial residual = 0.00482407, Final residual = 9.26235e-05, No Iterations 5
DILUPBiCGStab:  Solving for Uy, Initial residual = 0.0114461, Final residual = 0.000219022, No Iterations 5
DILUPBiCGStab:  Solving for Uz, Initial residual = 0.0382925, Final residual = 0.00203002, No Iterations 5
[INFO] MomentumPredictor: 293.198 [ms]
[INFO] MatrixAssemblyPI: 43.838 [ms]
[INFO] AdjustPhi: 1.304 [ms]
[INFO] ConstrainPressure: 0.008 [ms]
[INFO] MatrixAssemblyPII: 14.621 [ms]
[OGL LOG][Proc: 0]: global_index_init: 0.093 [ms]
[OGL LOG][Proc: 0]p_local_coeffs: call_update: 0 [ms]
[OGL LOG][Proc: 0]p_non_local_coeffs: call_update: 0 [ms]
[OGL LOG][Proc: 0]p: update_local_matrix_data: 9.337 [ms]
[OGL LOG][Proc: 0]p: update_non_local_matrix_data: 0.124 [ms]
[OGL LOG][Proc: 0]p_matrix: call_update: 52.812 [ms]
[OGL LOG][Proc: 0]p_rhs: call_update: 10.544 [ms]
[OGL LOG][Proc: 0]p: init_precond: 0.158 [ms]
[OGL LOG][StoppingCriterion.H:372] Creating stopping criterion with minIter 888 frequency 17
[OGL LOG][Proc: 0]p: generate_solver: 0.002 [ms]
[OGL LOG][Proc: 0]p: solve: 27710.7 [ms]
[OGL LOG][Proc: 0]p: copy_x_back: 0.345 [ms]
[OGL LOG][lduLduBase.H:339] 
Statistics:
	Time per iteration: 18723 [mu s]
	Time per residual norm calculation: 7730.000000 [mu s]
	Time per iteration and DOF: 2.340375 [ns]
	Retrieve results bandwidth 1.449000 [GByte/s]
[OGL LOG][Proc: 0]p: solve_multi_gpu: 27775.9 [ms]
nonecudaGKOCG:  Solving for p, Initial residual = 0.224613, Final residual = 7.42717e-05, No Iterations 1480
[INFO] SolveP: 27807.7 [ms]
time step continuity errors : sum local = 3.24958e-09, global = -7.38541e-21, cumulative = -1.31375e-19
[INFO] ContinuityError: 12.966 [ms]
[INFO] CorrectBoundary: 0.268 [ms]
[INFO] PISOStep: 27893.4 [ms]
[INFO] MatrixAssemblyPI: 41.786 [ms]
[INFO] AdjustPhi: 1.679 [ms]
[INFO] ConstrainPressure: 0.002 [ms]
[INFO] MatrixAssemblyPII: 14.421 [ms]
[OGL LOG][Proc: 0]: global_index_init: 0.03 [ms]
[OGL LOG][Proc: 0]p_local_coeffs: call_update: 0 [ms]
[OGL LOG][Proc: 0]p_non_local_coeffs: call_update: 0 [ms]
[OGL LOG][Proc: 0]p: update_local_matrix_data: 9.598 [ms]
[OGL LOG][Proc: 0]p: update_non_local_matrix_data: 0.049 [ms]
[OGL LOG][Proc: 0]p_matrix: call_update: 63.613 [ms]
[OGL LOG][Proc: 0]p_rhs: call_update: 2.43 [ms]
[OGL LOG][Proc: 0]p: init_precond: 0.162 [ms]
[OGL LOG][StoppingCriterion.H:372] Creating stopping criterion with minIter 888 frequency 17
[OGL LOG][Proc: 0]p: generate_solver: 0.002 [ms]
[OGL LOG][Proc: 0]p: solve: 27707.7 [ms]
[OGL LOG][Proc: 0]p: copy_x_back: 0.487 [ms]
[OGL LOG][lduLduBase.H:339] 
Statistics:
	Time per iteration: 18721 [mu s]
	Time per residual norm calculation: 7729.000000 [mu s]
	Time per iteration and DOF: 2.340125 [ns]
	Retrieve results bandwidth 1.026000 [GByte/s]
[OGL LOG][Proc: 0]p: solve_multi_gpu: 27781 [ms]
nonecudaGKOCG:  Solving for p, Initial residual = 0.197839, Final residual = 6.92291e-05, No Iterations 1480
[INFO] SolveP: 27808.6 [ms]
time step continuity errors : sum local = 3.02921e-09, global = -5.1656e-21, cumulative = -1.36541e-19
[INFO] ContinuityError: 13.133 [ms]
[INFO] CorrectBoundary: 0.175 [ms]
[INFO] PISOStep: 27892.6 [ms]
[INFO] TimeStep: 56126.5 [ms]
ExecutionTime = 1016.58 s  ClockTime = 1067 s

Time = 0.005

Courant Number mean: 0.0603471 max: 0.486398
[INFO] MatrixAssemblyU: 42.324 [ms]
DILUPBiCGStab:  Solving for Ux, Initial residual = 0.00451714, Final residual = 8.50236e-05, No Iterations 5
DILUPBiCGStab:  Solving for Uy, Initial residual = 0.0106928, Final residual = 0.000195546, No Iterations 5
DILUPBiCGStab:  Solving for Uz, Initial residual = 0.0348489, Final residual = 0.00180236, No Iterations 5
[INFO] MomentumPredictor: 294.988 [ms]
[INFO] MatrixAssemblyPI: 43.602 [ms]
[INFO] AdjustPhi: 1.554 [ms]
[INFO] ConstrainPressure: 0.009 [ms]
[INFO] MatrixAssemblyPII: 14.537 [ms]
[OGL LOG][Proc: 0]: global_index_init: 0.1 [ms]
[OGL LOG][Proc: 0]p_local_coeffs: call_update: 0 [ms]
[OGL LOG][Proc: 0]p_non_local_coeffs: call_update: 0 [ms]
[OGL LOG][Proc: 0]p: update_local_matrix_data: 9.161 [ms]
[OGL LOG][Proc: 0]p: update_non_local_matrix_data: 0.149 [ms]
[OGL LOG][Proc: 0]p_matrix: call_update: 53.693 [ms]
[OGL LOG][Proc: 0]p_rhs: call_update: 10.319 [ms]
[OGL LOG][Proc: 0]p: init_precond: 0.162 [ms]
[OGL LOG][StoppingCriterion.H:372] Creating stopping criterion with minIter 888 frequency 17
[OGL LOG][Proc: 0]p: generate_solver: 0.001 [ms]
[OGL LOG][Proc: 0]p: solve: 27703.2 [ms]
[OGL LOG][Proc: 0]p: copy_x_back: 0.355 [ms]
[OGL LOG][lduLduBase.H:339] 
Statistics:
	Time per iteration: 18718 [mu s]
	Time per residual norm calculation: 7736.000000 [mu s]
	Time per iteration and DOF: 2.339750 [ns]
	Retrieve results bandwidth 1.408000 [GByte/s]
[OGL LOG][Proc: 0]p: solve_multi_gpu: 27779 [ms]
nonecudaGKOCG:  Solving for p, Initial residual = 0.204943, Final residual = 6.72109e-05, No Iterations 1480
[INFO] SolveP: 27804.3 [ms]
time step continuity errors : sum local = 2.83729e-09, global = -7.5959e-21, cumulative = -1.44137e-19
[INFO] ContinuityError: 8.686 [ms]
[INFO] CorrectBoundary: 0.175 [ms]
[INFO] PISOStep: 27886.1 [ms]
[INFO] MatrixAssemblyPI: 42.473 [ms]
[INFO] AdjustPhi: 1.442 [ms]
[INFO] ConstrainPressure: 0.003 [ms]
[INFO] MatrixAssemblyPII: 14.528 [ms]
[OGL LOG][Proc: 0]: global_index_init: 0.051 [ms]
[OGL LOG][Proc: 0]p_local_coeffs: call_update: 0 [ms]
[OGL LOG][Proc: 0]p_non_local_coeffs: call_update: 0 [ms]
[OGL LOG][Proc: 0]p: update_local_matrix_data: 9.411 [ms]
[OGL LOG][Proc: 0]p: update_non_local_matrix_data: 0.083 [ms]
[OGL LOG][Proc: 0]p_matrix: call_update: 57.727 [ms]
[OGL LOG][Proc: 0]p_rhs: call_update: 9.353 [ms]
[OGL LOG][Proc: 0]p: init_precond: 0.169 [ms]
[OGL LOG][StoppingCriterion.H:372] Creating stopping criterion with minIter 888 frequency 17
[OGL LOG][Proc: 0]p: generate_solver: 0.002 [ms]
[OGL LOG][Proc: 0]p: solve: 27704.9 [ms]
[OGL LOG][Proc: 0]p: copy_x_back: 0.366 [ms]
[OGL LOG][lduLduBase.H:339] 
Statistics:
	Time per iteration: 18719 [mu s]
	Time per residual norm calculation: 7724.000000 [mu s]
	Time per iteration and DOF: 2.339875 [ns]
	Retrieve results bandwidth 1.366000 [GByte/s]
[OGL LOG][Proc: 0]p: solve_multi_gpu: 27781.1 [ms]
nonecudaGKOCG:  Solving for p, Initial residual = 0.181093, Final residual = 6.29454e-05, No Iterations 1480
[INFO] SolveP: 27806.4 [ms]
time step continuity errors : sum local = 2.65278e-09, global = -5.12e-21, cumulative = -1.49257e-19
[INFO] ContinuityError: 13.198 [ms]
[INFO] CorrectBoundary: 0.18 [ms]
[INFO] PISOStep: 27890.8 [ms]
[INFO] TimeStep: 56119 [ms]
ExecutionTime = 1072.32 s  ClockTime = 1124 s

End

Finalising parallel run
