/*---------------------------------------------------------------------------*\
| =========                 |                                                 |
| \\      /  F ield         | OpenFOAM: The Open Source CFD Toolbox           |
|  \\    /   O peration     | Version:  2312                                  |
|   \\  /    A nd           | Website:  www.openfoam.com                      |
|    \\/     M anipulation  |                                                 |
\*---------------------------------------------------------------------------*/
Build  : a46b310f-20240104 OPENFOAM=2312 version=v2312
Arch   : "LSB;label=32;scalar=64"
Exec   : decomposePar -force
Date   : Feb 16 2024
Time   : 21:22:16
Host   : i20r02c04s08
PID    : 34143
--> FOAM Warning : 
    From Foam::fileName Foam::cwd_L()
    in file POSIX.C at line 552
    PWD is not the cwd() - reverting to physical description
I/O    : uncollated
--> FOAM Warning : 
    From Foam::fileName Foam::cwd_L()
    in file POSIX.C at line 552
    PWD is not the cwd() - reverting to physical description
Case   : /hppfs/scratch/0B/di35yan/lidDriven3D/workspace/9389df316d88d7f8c5b4265d15850391/case
nProcs : 1
trapFpe: Floating point exception trapping enabled (FOAM_SIGFPE).
fileModificationChecking : Monitoring run-time modified files using timeStampMaster (fileModificationSkew 5, maxFileModificationPolls 20)
allowSystemOperations : Allowing user-supplied system call operations

// * * * * * * * * * * * * * * * * * * * * * * * * * * * * * * * * * * * * * //
Create time

--> FOAM Warning : 
    From void* Foam::dlLibraryTable::openLibrary(const Foam::fileName&, bool)
    in file db/dynamicLibrary/dlLibraryTable/dlLibraryTable.C at line 188
    Could not load "libpetscFoam.so"
libpetscFoam.so: cannot open shared object file: No such file or directory


Decomposing mesh

Create mesh

Calculating distribution of cells
Decomposition method simple [24] (region region0)

Finished decomposition in 0.45 s

Calculating original mesh data

Distributing cells to processors

Distributing faces to processors

Distributing points to processors

Constructing processor meshes

Processor 0
    Number of cells = 41322
    Number of points = 45181
    Number of faces shared with processor 1 = 1650
    Number of faces shared with processor 4 = 841
    Number of faces shared with processor 8 = 1274
    Number of processor patches = 3
    Number of processor faces = 3765
    Number of boundary faces = 3733

Processor 1
    Number of cells = 41250
    Number of points = 45084
    Number of faces shared with processor 0 = 1650
    Number of faces shared with processor 2 = 1650
    Number of faces shared with processor 5 = 825
    Number of faces shared with processor 9 = 1250
    Number of processor patches = 4
    Number of processor faces = 5375
    Number of boundary faces = 2075

Processor 2
    Number of cells = 41250
    Number of points = 45084
    Number of faces shared with processor 1 = 1650
    Number of faces shared with processor 3 = 1650
    Number of faces shared with processor 6 = 825
    Number of faces shared with processor 10 = 1250
    Number of processor patches = 4
    Number of processor faces = 5375
    Number of boundary faces = 2075

Processor 3
    Number of cells = 41250
    Number of points = 45084
    Number of faces shared with processor 2 = 1650
    Number of faces shared with processor 7 = 825
    Number of faces shared with processor 11 = 1250
    Number of processor patches = 3
    Number of processor faces = 3725
    Number of boundary faces = 3725

Processor 4
    Number of cells = 42484
    Number of points = 46394
    Number of faces shared with processor 0 = 841
    Number of faces shared with processor 5 = 1696
    Number of faces shared with processor 8 = 2
    Number of faces shared with processor 12 = 1261
    Number of processor patches = 4
    Number of processor faces = 3800
    Number of boundary faces = 3800

Processor 5
    Number of cells = 42244
    Number of points = 46150
    Number of faces shared with processor 1 = 825
    Number of faces shared with processor 4 = 1696
    Number of faces shared with processor 6 = 1683
    Number of faces shared with processor 13 = 1287
    Number of faces shared with processor 14 = 1
    Number of processor patches = 5
    Number of processor faces = 5492
    Number of boundary faces = 2100

Processor 6
    Number of cells = 41928
    Number of points = 45821
    Number of faces shared with processor 2 = 825
    Number of faces shared with processor 5 = 1683
    Number of faces shared with processor 7 = 1670
    Number of faces shared with processor 14 = 1287
    Number of faces shared with processor 15 = 1
    Number of processor patches = 5
    Number of processor faces = 5466
    Number of boundary faces = 2100

Processor 7
    Number of cells = 41606
    Number of points = 45486
    Number of faces shared with processor 3 = 825
    Number of faces shared with processor 6 = 1670
    Number of faces shared with processor 15 = 1287
    Number of processor patches = 3
    Number of processor faces = 3782
    Number of boundary faces = 3758

Processor 8
    Number of cells = 42072
    Number of points = 45974
    Number of faces shared with processor 0 = 1274
    Number of faces shared with processor 4 = 2
    Number of faces shared with processor 9 = 1679
    Number of faces shared with processor 12 = 832
    Number of faces shared with processor 16 = 1287
    Number of faces shared with processor 17 = 1
    Number of processor patches = 6
    Number of processor faces = 5075
    Number of boundary faces = 2509

Processor 9
    Number of cells = 41823
    Number of points = 45712
    Number of faces shared with processor 1 = 1250
    Number of faces shared with processor 8 = 1679
    Number of faces shared with processor 10 = 1666
    Number of faces shared with processor 13 = 850
    Number of faces shared with processor 17 = 1287
    Number of faces shared with processor 18 = 1
    Number of processor patches = 6
    Number of processor faces = 6733
    Number of boundary faces = 825

Processor 10
    Number of cells = 41506
    Number of points = 45382
    Number of faces shared with processor 2 = 1250
    Number of faces shared with processor 9 = 1666
    Number of faces shared with processor 11 = 1654
    Number of faces shared with processor 14 = 850
    Number of faces shared with processor 18 = 1287
    Number of processor patches = 5
    Number of processor faces = 6707
    Number of boundary faces = 825

Processor 11
    Number of cells = 41266
    Number of points = 45112
    Number of faces shared with processor 3 = 1250
    Number of faces shared with processor 10 = 1654
    Number of faces shared with processor 15 = 832
    Number of faces shared with processor 19 = 1261
    Number of processor patches = 4
    Number of processor faces = 4997
    Number of boundary faces = 2475

Processor 12
    Number of cells = 41266
    Number of points = 45112
    Number of faces shared with processor 4 = 1261
    Number of faces shared with processor 8 = 832
    Number of faces shared with processor 13 = 1654
    Number of faces shared with processor 20 = 1250
    Number of processor patches = 4
    Number of processor faces = 4997
    Number of boundary faces = 2475

Processor 13
    Number of cells = 41506
    Number of points = 45382
    Number of faces shared with processor 5 = 1287
    Number of faces shared with processor 9 = 850
    Number of faces shared with processor 12 = 1654
    Number of faces shared with processor 14 = 1666
    Number of faces shared with processor 21 = 1250
    Number of processor patches = 5
    Number of processor faces = 6707
    Number of boundary faces = 825

Processor 14
    Number of cells = 41822
    Number of points = 45711
    Number of faces shared with processor 5 = 1
    Number of faces shared with processor 6 = 1287
    Number of faces shared with processor 10 = 850
    Number of faces shared with processor 13 = 1666
    Number of faces shared with processor 15 = 1679
    Number of faces shared with processor 22 = 1250
    Number of processor patches = 6
    Number of processor faces = 6733
    Number of boundary faces = 825

Processor 15
    Number of cells = 42072
    Number of points = 45974
    Number of faces shared with processor 6 = 1
    Number of faces shared with processor 7 = 1287
    Number of faces shared with processor 11 = 832
    Number of faces shared with processor 14 = 1679
    Number of faces shared with processor 19 = 2
    Number of faces shared with processor 23 = 1274
    Number of processor patches = 6
    Number of processor faces = 5075
    Number of boundary faces = 2509

Processor 16
    Number of cells = 41606
    Number of points = 45486
    Number of faces shared with processor 8 = 1287
    Number of faces shared with processor 17 = 1670
    Number of faces shared with processor 20 = 825
    Number of processor patches = 3
    Number of processor faces = 3782
    Number of boundary faces = 3758

Processor 17
    Number of cells = 41927
    Number of points = 45820
    Number of faces shared with processor 8 = 1
    Number of faces shared with processor 9 = 1287
    Number of faces shared with processor 16 = 1670
    Number of faces shared with processor 18 = 1683
    Number of faces shared with processor 21 = 825
    Number of processor patches = 5
    Number of processor faces = 5466
    Number of boundary faces = 2100

Processor 18
    Number of cells = 42244
    Number of points = 46150
    Number of faces shared with processor 9 = 1
    Number of faces shared with processor 10 = 1287
    Number of faces shared with processor 17 = 1683
    Number of faces shared with processor 19 = 1696
    Number of faces shared with processor 22 = 825
    Number of processor patches = 5
    Number of processor faces = 5492
    Number of boundary faces = 2100

Processor 19
    Number of cells = 42484
    Number of points = 46394
    Number of faces shared with processor 11 = 1261
    Number of faces shared with processor 15 = 2
    Number of faces shared with processor 18 = 1696
    Number of faces shared with processor 23 = 841
    Number of processor patches = 4
    Number of processor faces = 3800
    Number of boundary faces = 3800

Processor 20
    Number of cells = 41250
    Number of points = 45084
    Number of faces shared with processor 12 = 1250
    Number of faces shared with processor 16 = 825
    Number of faces shared with processor 21 = 1650
    Number of processor patches = 3
    Number of processor faces = 3725
    Number of boundary faces = 3725

Processor 21
    Number of cells = 41250
    Number of points = 45084
    Number of faces shared with processor 13 = 1250
    Number of faces shared with processor 17 = 825
    Number of faces shared with processor 20 = 1650
    Number of faces shared with processor 22 = 1650
    Number of processor patches = 4
    Number of processor faces = 5375
    Number of boundary faces = 2075

Processor 22
    Number of cells = 41250
    Number of points = 45084
    Number of faces shared with processor 14 = 1250
    Number of faces shared with processor 18 = 825
    Number of faces shared with processor 21 = 1650
    Number of faces shared with processor 23 = 1650
    Number of processor patches = 4
    Number of processor faces = 5375
    Number of boundary faces = 2075

Processor 23
    Number of cells = 41322
    Number of points = 45181
    Number of faces shared with processor 15 = 1274
    Number of faces shared with processor 19 = 841
    Number of faces shared with processor 22 = 1650
    Number of processor patches = 3
    Number of processor faces = 3765
    Number of boundary faces = 3733

Number of processor faces = 60292
Max number of cells = 42484 (1.9616% above average 41666.7)
Max number of processor patches = 6 (38.4615% above average 4.33333)
Max number of faces between processors = 6733 (34.0078% above average 5024.33)

Time = 0

Processor 0: field transfer
--> FOAM Warning : 
    From void* Foam::dlLibraryTable::openLibrary(const Foam::fileName&, bool)
    in file db/dynamicLibrary/dlLibraryTable/dlLibraryTable.C at line 188
    Could not load "libpetscFoam.so"
libpetscFoam.so: cannot open shared object file: No such file or directory
Processor 1: field transfer
--> FOAM Warning : 
    From void* Foam::dlLibraryTable::openLibrary(const Foam::fileName&, bool)
    in file db/dynamicLibrary/dlLibraryTable/dlLibraryTable.C at line 188
    Could not load "libpetscFoam.so"
libpetscFoam.so: cannot open shared object file: No such file or directory
Processor 2: field transfer
--> FOAM Warning : 
    From void* Foam::dlLibraryTable::openLibrary(const Foam::fileName&, bool)
    in file db/dynamicLibrary/dlLibraryTable/dlLibraryTable.C at line 188
    Could not load "libpetscFoam.so"
libpetscFoam.so: cannot open shared object file: No such file or directory
Processor 3: field transfer
--> FOAM Warning : 
    From void* Foam::dlLibraryTable::openLibrary(const Foam::fileName&, bool)
    in file db/dynamicLibrary/dlLibraryTable/dlLibraryTable.C at line 188
    Could not load "libpetscFoam.so"
libpetscFoam.so: cannot open shared object file: No such file or directory
Processor 4: field transfer
--> FOAM Warning : 
    From void* Foam::dlLibraryTable::openLibrary(const Foam::fileName&, bool)
    in file db/dynamicLibrary/dlLibraryTable/dlLibraryTable.C at line 188
    Could not load "libpetscFoam.so"
libpetscFoam.so: cannot open shared object file: No such file or directory
Processor 5: field transfer
--> FOAM Warning : 
    From void* Foam::dlLibraryTable::openLibrary(const Foam::fileName&, bool)
    in file db/dynamicLibrary/dlLibraryTable/dlLibraryTable.C at line 188
    Could not load "libpetscFoam.so"
libpetscFoam.so: cannot open shared object file: No such file or directory
Processor 6: field transfer
--> FOAM Warning : 
    From void* Foam::dlLibraryTable::openLibrary(const Foam::fileName&, bool)
    in file db/dynamicLibrary/dlLibraryTable/dlLibraryTable.C at line 188
    Could not load "libpetscFoam.so"
libpetscFoam.so: cannot open shared object file: No such file or directory
Processor 7: field transfer
--> FOAM Warning : 
    From void* Foam::dlLibraryTable::openLibrary(const Foam::fileName&, bool)
    in file db/dynamicLibrary/dlLibraryTable/dlLibraryTable.C at line 188
    Could not load "libpetscFoam.so"
libpetscFoam.so: cannot open shared object file: No such file or directory
Processor 8: field transfer
--> FOAM Warning : 
    From void* Foam::dlLibraryTable::openLibrary(const Foam::fileName&, bool)
    in file db/dynamicLibrary/dlLibraryTable/dlLibraryTable.C at line 188
    Could not load "libpetscFoam.so"
libpetscFoam.so: cannot open shared object file: No such file or directory
Processor 9: field transfer
--> FOAM Warning : 
    From void* Foam::dlLibraryTable::openLibrary(const Foam::fileName&, bool)
    in file db/dynamicLibrary/dlLibraryTable/dlLibraryTable.C at line 188
    Could not load "libpetscFoam.so"
libpetscFoam.so: cannot open shared object file: No such file or directory
Processor 10: field transfer
--> FOAM Warning : 
    From void* Foam::dlLibraryTable::openLibrary(const Foam::fileName&, bool)
    in file db/dynamicLibrary/dlLibraryTable/dlLibraryTable.C at line 188
    Could not load "libpetscFoam.so"
libpetscFoam.so: cannot open shared object file: No such file or directory
Processor 11: field transfer
--> FOAM Warning : 
    From void* Foam::dlLibraryTable::openLibrary(const Foam::fileName&, bool)
    in file db/dynamicLibrary/dlLibraryTable/dlLibraryTable.C at line 188
    Could not load "libpetscFoam.so"
libpetscFoam.so: cannot open shared object file: No such file or directory
Processor 12: field transfer
--> FOAM Warning : 
    From void* Foam::dlLibraryTable::openLibrary(const Foam::fileName&, bool)
    in file db/dynamicLibrary/dlLibraryTable/dlLibraryTable.C at line 188
    Could not load "libpetscFoam.so"
libpetscFoam.so: cannot open shared object file: No such file or directory
Processor 13: field transfer
--> FOAM Warning : 
    From void* Foam::dlLibraryTable::openLibrary(const Foam::fileName&, bool)
    in file db/dynamicLibrary/dlLibraryTable/dlLibraryTable.C at line 188
    Could not load "libpetscFoam.so"
libpetscFoam.so: cannot open shared object file: No such file or directory
Processor 14: field transfer
--> FOAM Warning : 
    From void* Foam::dlLibraryTable::openLibrary(const Foam::fileName&, bool)
    in file db/dynamicLibrary/dlLibraryTable/dlLibraryTable.C at line 188
    Could not load "libpetscFoam.so"
libpetscFoam.so: cannot open shared object file: No such file or directory
Processor 15: field transfer
--> FOAM Warning : 
    From void* Foam::dlLibraryTable::openLibrary(const Foam::fileName&, bool)
    in file db/dynamicLibrary/dlLibraryTable/dlLibraryTable.C at line 188
    Could not load "libpetscFoam.so"
libpetscFoam.so: cannot open shared object file: No such file or directory
Processor 16: field transfer
--> FOAM Warning : 
    From void* Foam::dlLibraryTable::openLibrary(const Foam::fileName&, bool)
    in file db/dynamicLibrary/dlLibraryTable/dlLibraryTable.C at line 188
    Could not load "libpetscFoam.so"
libpetscFoam.so: cannot open shared object file: No such file or directory
Processor 17: field transfer
--> FOAM Warning : 
    From void* Foam::dlLibraryTable::openLibrary(const Foam::fileName&, bool)
    in file db/dynamicLibrary/dlLibraryTable/dlLibraryTable.C at line 188
    Could not load "libpetscFoam.so"
libpetscFoam.so: cannot open shared object file: No such file or directory
Processor 18: field transfer
--> FOAM Warning : 
    From void* Foam::dlLibraryTable::openLibrary(const Foam::fileName&, bool)
    in file db/dynamicLibrary/dlLibraryTable/dlLibraryTable.C at line 188
    Could not load "libpetscFoam.so"
libpetscFoam.so: cannot open shared object file: No such file or directory
Processor 19: field transfer
--> FOAM Warning : 
    From void* Foam::dlLibraryTable::openLibrary(const Foam::fileName&, bool)
    in file db/dynamicLibrary/dlLibraryTable/dlLibraryTable.C at line 188
    Could not load "libpetscFoam.so"
libpetscFoam.so: cannot open shared object file: No such file or directory
Processor 20: field transfer
--> FOAM Warning : 
    From void* Foam::dlLibraryTable::openLibrary(const Foam::fileName&, bool)
    in file db/dynamicLibrary/dlLibraryTable/dlLibraryTable.C at line 188
    Could not load "libpetscFoam.so"
libpetscFoam.so: cannot open shared object file: No such file or directory
Processor 21: field transfer
--> FOAM Warning : 
    From void* Foam::dlLibraryTable::openLibrary(const Foam::fileName&, bool)
    in file db/dynamicLibrary/dlLibraryTable/dlLibraryTable.C at line 188
    Could not load "libpetscFoam.so"
libpetscFoam.so: cannot open shared object file: No such file or directory
Processor 22: field transfer
--> FOAM Warning : 
    From void* Foam::dlLibraryTable::openLibrary(const Foam::fileName&, bool)
    in file db/dynamicLibrary/dlLibraryTable/dlLibraryTable.C at line 188
    Could not load "libpetscFoam.so"
libpetscFoam.so: cannot open shared object file: No such file or directory
Processor 23: field transfer
--> FOAM Warning : 
    From void* Foam::dlLibraryTable::openLibrary(const Foam::fileName&, bool)
    in file db/dynamicLibrary/dlLibraryTable/dlLibraryTable.C at line 188
    Could not load "libpetscFoam.so"
libpetscFoam.so: cannot open shared object file: No such file or directory

End

