/*---------------------------------------------------------------------------*\
| =========                 |                                                 |
| \\      /  F ield         | OpenFOAM: The Open Source CFD Toolbox           |
|  \\    /   O peration     | Version:  2306                                  |
|   \\  /    A nd           | Website:  www.openfoam.com                      |
|    \\/     M anipulation  |                                                 |
\*---------------------------------------------------------------------------*/
Build  : a6e826bd55-20230630 OPENFOAM=2306 version=v2306
Arch   : "LSB;label=32;scalar=64"
Exec   : decomposePar -force
Date   : Aug 01 2023
Time   : 14:49:50
Host   : nla-gpu2.ianm.kit.edu
PID    : 35541
--> FOAM Warning : 
    From Foam::fileName Foam::cwd_L()
    in file POSIX.C at line 552
    PWD is not the cwd() - reverting to physical description
I/O    : uncollated
--> FOAM Warning : 
    From Foam::fileName Foam::cwd_L()
    in file POSIX.C at line 552
    PWD is not the cwd() - reverting to physical description
Case   : /home/greole/data/code/exasim_project/micro_benchmarks/WindsorBody/workspace/d04ade1822584997873867f0dbd5909f/case
nProcs : 1
trapFpe: Floating point exception trapping enabled (FOAM_SIGFPE).
fileModificationChecking : Monitoring run-time modified files using timeStampMaster (fileModificationSkew 5, maxFileModificationPolls 20)
allowSystemOperations : Allowing user-supplied system call operations

// * * * * * * * * * * * * * * * * * * * * * * * * * * * * * * * * * * * * * //
Create time

--> FOAM Warning : 
    From void* Foam::dlLibraryTable::openLibrary(const Foam::fileName&, bool)
    in file db/dynamicLibrary/dlLibraryTable/dlLibraryTable.C at line 188
    Could not load "libpetscFoam.so"
libpetscFoam.so: cannot open shared object file: No such file or directory


Decomposing mesh

Create mesh

Calculating distribution of cells
Decomposition method simple [8] (region region0)

Finished decomposition in 9.109999999999999 s

Calculating original mesh data

Distributing cells to processors

Distributing faces to processors

Distributing points to processors

Constructing processor meshes

Processor 0
    Number of cells = 1578729
    Number of points = 1662236
    Number of faces shared with processor 1 = 9747
    Number of faces shared with processor 4 = 1846
    Number of processor patches = 2
    Number of processor faces = 11593
    Number of boundary faces = 112166

Processor 1
    Number of cells = 1577182
    Number of points = 1628321
    Number of faces shared with processor 0 = 9747
    Number of faces shared with processor 2 = 14095
    Number of faces shared with processor 5 = 234
    Number of processor patches = 3
    Number of processor faces = 24076
    Number of boundary faces = 36281

Processor 2
    Number of cells = 1575917
    Number of points = 1623264
    Number of faces shared with processor 1 = 14095
    Number of faces shared with processor 3 = 14123
    Number of faces shared with processor 6 = 208
    Number of processor patches = 3
    Number of processor faces = 28426
    Number of boundary faces = 24310

Processor 3
    Number of cells = 1575308
    Number of points = 1642604
    Number of faces shared with processor 2 = 14123
    Number of faces shared with processor 7 = 1456
    Number of processor patches = 2
    Number of processor faces = 15579
    Number of boundary faces = 53447

Processor 4
    Number of cells = 1574839
    Number of points = 1657951
    Number of faces shared with processor 0 = 1846
    Number of faces shared with processor 5 = 9346
    Number of processor patches = 2
    Number of processor faces = 11192
    Number of boundary faces = 111805

Processor 5
    Number of cells = 1576386
    Number of points = 1627454
    Number of faces shared with processor 1 = 234
    Number of faces shared with processor 4 = 9346
    Number of faces shared with processor 6 = 14011
    Number of processor patches = 3
    Number of processor faces = 23591
    Number of boundary faces = 36599

Processor 6
    Number of cells = 1577651
    Number of points = 1624827
    Number of faces shared with processor 2 = 208
    Number of faces shared with processor 5 = 14011
    Number of faces shared with processor 7 = 14018
    Number of processor patches = 3
    Number of processor faces = 28237
    Number of boundary faces = 24268

Processor 7
    Number of cells = 1578260
    Number of points = 1645601
    Number of faces shared with processor 3 = 1456
    Number of faces shared with processor 6 = 14018
    Number of processor patches = 2
    Number of processor faces = 15474
    Number of boundary faces = 53532

Number of processor faces = 79084
Max number of cells = 1578729 (0.123352342489523% above average 1576784)
Max number of processor patches = 3 (20% above average 2.5)
Max number of faces between processors = 28426 (43.77623792423246% above average 19771)

Time = 0

Processor 0: field transfer
--> FOAM Warning : 
    From void* Foam::dlLibraryTable::openLibrary(const Foam::fileName&, bool)
    in file db/dynamicLibrary/dlLibraryTable/dlLibraryTable.C at line 188
    Could not load "libpetscFoam.so"
libpetscFoam.so: cannot open shared object file: No such file or directory
Processor 1: field transfer
--> FOAM Warning : 
    From void* Foam::dlLibraryTable::openLibrary(const Foam::fileName&, bool)
    in file db/dynamicLibrary/dlLibraryTable/dlLibraryTable.C at line 188
    Could not load "libpetscFoam.so"
libpetscFoam.so: cannot open shared object file: No such file or directory
Processor 2: field transfer
--> FOAM Warning : 
    From void* Foam::dlLibraryTable::openLibrary(const Foam::fileName&, bool)
    in file db/dynamicLibrary/dlLibraryTable/dlLibraryTable.C at line 188
    Could not load "libpetscFoam.so"
libpetscFoam.so: cannot open shared object file: No such file or directory
Processor 3: field transfer
--> FOAM Warning : 
    From void* Foam::dlLibraryTable::openLibrary(const Foam::fileName&, bool)
    in file db/dynamicLibrary/dlLibraryTable/dlLibraryTable.C at line 188
    Could not load "libpetscFoam.so"
libpetscFoam.so: cannot open shared object file: No such file or directory
Processor 4: field transfer
--> FOAM Warning : 
    From void* Foam::dlLibraryTable::openLibrary(const Foam::fileName&, bool)
    in file db/dynamicLibrary/dlLibraryTable/dlLibraryTable.C at line 188
    Could not load "libpetscFoam.so"
libpetscFoam.so: cannot open shared object file: No such file or directory
Processor 5: field transfer
--> FOAM Warning : 
    From void* Foam::dlLibraryTable::openLibrary(const Foam::fileName&, bool)
    in file db/dynamicLibrary/dlLibraryTable/dlLibraryTable.C at line 188
    Could not load "libpetscFoam.so"
libpetscFoam.so: cannot open shared object file: No such file or directory
Processor 6: field transfer
--> FOAM Warning : 
    From void* Foam::dlLibraryTable::openLibrary(const Foam::fileName&, bool)
    in file db/dynamicLibrary/dlLibraryTable/dlLibraryTable.C at line 188
    Could not load "libpetscFoam.so"
libpetscFoam.so: cannot open shared object file: No such file or directory
Processor 7: field transfer
--> FOAM Warning : 
    From void* Foam::dlLibraryTable::openLibrary(const Foam::fileName&, bool)
    in file db/dynamicLibrary/dlLibraryTable/dlLibraryTable.C at line 188
    Could not load "libpetscFoam.so"
libpetscFoam.so: cannot open shared object file: No such file or directory

End

