/*---------------------------------------------------------------------------*\
| =========                 |                                                 |
| \\      /  F ield         | OpenFOAM: The Open Source CFD Toolbox           |
|  \\    /   O peration     | Version:  2306                                  |
|   \\  /    A nd           | Website:  www.openfoam.com                      |
|    \\/     M anipulation  |                                                 |
\*---------------------------------------------------------------------------*/
Build  : a6e826bd55-20230630 OPENFOAM=2306 version=v2306
Arch   : "LSB;label=32;scalar=64"
Exec   : icoFoam -parallel -case /tmp/lidDrivenCavity/workspace/66c3c7bebcefeaff0f9d07b3a9198733/case
Date   : Jan 10 2024
Time   : 17:33:12
Host   : nla-gpu2.ianm.kit.edu
PID    : 433819
I/O    : uncollated
Case   : /tmp/lidDrivenCavity/workspace/66c3c7bebcefeaff0f9d07b3a9198733/case
nProcs : 32
Hosts  :
(
    (nla-gpu2.ianm.kit.edu 32)
)
Pstream initialized with:
    floatTransfer      : false
    nProcsSimpleSum    : 0
    nonBlockingExchange: 0 (tuning: 0)
    exchange algorithm : -1
    commsType          : nonBlocking
    polling iterations : 0
trapFpe: Floating point exception trapping enabled (FOAM_SIGFPE).
fileModificationChecking : Monitoring run-time modified files using timeStampMaster (fileModificationSkew 5, maxFileModificationPolls 20)
allowSystemOperations : Allowing user-supplied system call operations

// * * * * * * * * * * * * * * * * * * * * * * * * * * * * * * * * * * * * * //
Create time

--> FOAM Warning : 
    From void* Foam::dlLibraryTable::openLibrary(const Foam::fileName&, bool)
    in file db/dynamicLibrary/dlLibraryTable/dlLibraryTable.C at line 188
    Could not load "libpetscFoam.so"
libpetscFoam.so: cannot open shared object file: No such file or directory
Create mesh for time = 0


PISO: Operating solver in PISO mode

Reading transportProperties

Reading field p

Reading field U

Reading/calculating face flux field phi


Starting time loop

Time = 0.000125

Courant Number mean: 8.02505e-18 max: 4.85723e-14
[INFO] MatrixAssemblyU: 566.955 [ms]
DILUPBiCGStab:  Solving for Ux, Initial residual = 1, Final residual = 0.0215184, No Iterations 5
DILUPBiCGStab:  Solving for Uy:  solution singularity
DILUPBiCGStab:  Solving for Uz:  solution singularity
[INFO] MomentumPredictor: 2063.58 [ms]
[INFO] MatrixAssemblyPI: 591.275 [ms]
[INFO] AdjustPhi: 25.025 [ms]
[INFO] ConstrainPressure: 0.01 [ms]
[INFO] MatrixAssemblyPII: 166.183 [ms]
[OGL LOG][lduLduBase.H:119] Initialising OGL
	OGL commit:  82f220c+
	Branch: feat/on_device_permute 
	Build type: Release
	Ginkgo version: 1.8.0 ( develop)
	Ginkgo commit: sparse-communicator
	MPI is GPU aware: 1
	Forces host buffer based communication: 0
	CPU ranks per GPU: 1
	Matrix format: Ell
	End OGL_INFO
[OGL LOG][Proc: 0]: global_index_init: 19.948 [ms]
[OGL LOG][Proc: 0]p_local_cols: call_init: 0.019 [ms]
[OGL LOG][Proc: 0]p_local_rows: call_init: 0.01 [ms]
[OGL LOG][Proc: 0]p_local_ldu_map: call_init: 0.151 [ms]
[OGL LOG][Proc: 0]p_local_coeffs: call_init: 0.333 [ms]
[OGL LOG][Proc: 0]p_non_local_cols: call_init: 0.006 [ms]
[OGL LOG][Proc: 0]p_non_local_rows: call_init: 0.003 [ms]
[OGL LOG][Proc: 0]p_non_local_ldu_map: call_init: 0.002 [ms]
[OGL LOG][Proc: 0]p_non_local_coeffs: call_init: 0.003 [ms]
[OGL LOG][Proc: 0]p: init_local_sparsity_pattern: 791.952 [ms]
[OGL LOG][Proc: 0]p: init_non_local_sparsity_pattern: 6.243 [ms]
[OGL LOG][Proc: 0]p: update_local_matrix_data: 149.971 [ms]
[OGL LOG][Proc: 0]p: update_non_local_matrix_data: 0.209 [ms]
[OGL LOG][Proc: 0]device_partition: call_init: 0.123 [ms]
[OGL LOG][Proc: 0]p_matrix: call_init: 334.669 [ms]
[OGL LOG][Proc: 0]p_rhs: call_init: 18.406 [ms]
[OGL LOG][Proc: 0]p_solution: call_init: 5.071 [ms]
[OGL LOG][Preconditioner.H:346] Generate preconditioner Multigrid MaxLevels 9 MinCoarseRows 10 ZeroGuess 1 Cycle v
[OGL LOG][Proc: 0]p: init_precond: 397.038 [ms]
[OGL LOG][StoppingCriterion.H:239] Creating stopping criterion with minIter 0 frequency 1
[OGL LOG][Proc: 0]p: generate_solver: 0.001 [ms]
[OGL LOG][Proc: 0]p: solve: 10478.9 [ms]
[OGL LOG][Proc: 0]p: copy_x_back: 9.959 [ms]
[OGL LOG][lduLduBase.H:330] 
Statistics:
	Time per iteration: 26528 [mu s]
	Time per residual norm calculation: 593.000000 [mu s]
	Time per iteration and DOF: 0.414500 [ns]
	Retrieve results bandwidth 1.606000 [GByte/s]
[OGL LOG][Proc: 0]p: solve_multi_gpu: 11256 [ms]
MultigridhipGKOCG:  Solving for p, Initial residual = 1, Final residual = 9.99188e-05, No Iterations 395
[INFO] SolveP: 12590.8 [ms]
time step continuity errors : sum local = 2.5362e-09, global = -5.27265e-22, cumulative = -5.27265e-22
[INFO] ContinuityError: 59.724 [ms]
[INFO] CorrectBoundary: 2.984 [ms]
[INFO] PISOStep: 13624 [ms]
[INFO] MatrixAssemblyPI: 559.929 [ms]
[INFO] AdjustPhi: 23.68 [ms]
[INFO] ConstrainPressure: 0.003 [ms]
[INFO] MatrixAssemblyPII: 166.873 [ms]
[OGL LOG][Proc: 0]: global_index_init: 0.26 [ms]
[OGL LOG][Proc: 0]p_local_coeffs: call_update: 0.001 [ms]
[OGL LOG][Proc: 0]p_non_local_coeffs: call_update: 0 [ms]
[OGL LOG][Proc: 0]p: update_local_matrix_data: 94.419 [ms]
[OGL LOG][Proc: 0]p: update_non_local_matrix_data: 0.223 [ms]
[OGL LOG][Proc: 0]p: regenerate_distributed_matrix: 286.274 [ms]
[OGL LOG][Proc: 0]p_matrix: call_update: 288.223 [ms]
[OGL LOG][Proc: 0]p_rhs: call_update: 24.502 [ms]
[OGL LOG][Preconditioner.H:346] Generate preconditioner Multigrid MaxLevels 9 MinCoarseRows 10 ZeroGuess 1 Cycle v
[OGL LOG][Proc: 0]p: init_precond: 355.775 [ms]
[OGL LOG][StoppingCriterion.H:239] Creating stopping criterion with minIter 237 frequency 1
[OGL LOG][Proc: 0]p: generate_solver: 0 [ms]
[OGL LOG][Proc: 0]p: solve: 8176 [ms]
[OGL LOG][Proc: 0]p: copy_x_back: 7.124 [ms]
[OGL LOG][lduLduBase.H:330] 
Statistics:
	Time per iteration: 21017 [mu s]
	Time per residual norm calculation: 576.000000 [mu s]
	Time per iteration and DOF: 0.328391 [ns]
	Retrieve results bandwidth 2.245000 [GByte/s]
[OGL LOG][Proc: 0]p: solve_multi_gpu: 8877.72 [ms]
MultigridhipGKOCG:  Solving for p, Initial residual = 0.822062, Final residual = 9.29447e-05, No Iterations 389
[INFO] SolveP: 9000.19 [ms]
time step continuity errors : sum local = 2.84295e-09, global = 5.15582e-22, cumulative = -1.16823e-23
[INFO] ContinuityError: 63.624 [ms]
[INFO] CorrectBoundary: 3.985 [ms]
[INFO] PISOStep: 10004.7 [ms]
[INFO] TimeStep: 26322.1 [ms]
ExecutionTime = 28.81 s  ClockTime = 29 s

Time = 0.00025

Courant Number mean: 0.0108529 max: 0.437705
[INFO] MatrixAssemblyU: 515.9 [ms]
DILUPBiCGStab:  Solving for Ux, Initial residual = 0.108185, Final residual = 0.0135502, No Iterations 5
DILUPBiCGStab:  Solving for Uy, Initial residual = 0.484596, Final residual = 0.0533589, No Iterations 5
DILUPBiCGStab:  Solving for Uz, Initial residual = 0.990007, Final residual = 0.120255, No Iterations 5
[INFO] MomentumPredictor: 3966.94 [ms]
[INFO] MatrixAssemblyPI: 575.768 [ms]
[INFO] AdjustPhi: 29.711 [ms]
[INFO] ConstrainPressure: 0.003 [ms]
[INFO] MatrixAssemblyPII: 167.193 [ms]
[OGL LOG][Proc: 0]: global_index_init: 0.047 [ms]
[OGL LOG][Proc: 0]p_local_coeffs: call_update: 0 [ms]
[OGL LOG][Proc: 0]p_non_local_coeffs: call_update: 0 [ms]
[OGL LOG][Proc: 0]p: update_local_matrix_data: 94.827 [ms]
[OGL LOG][Proc: 0]p: update_non_local_matrix_data: 0.199 [ms]
[OGL LOG][Proc: 0]p: regenerate_distributed_matrix: 274.89 [ms]
[OGL LOG][Proc: 0]p_matrix: call_update: 276.663 [ms]
[OGL LOG][Proc: 0]p_rhs: call_update: 30.03 [ms]
[OGL LOG][Preconditioner.H:346] Generate preconditioner Multigrid MaxLevels 9 MinCoarseRows 10 ZeroGuess 1 Cycle v
[OGL LOG][Proc: 0]p: init_precond: 344.205 [ms]
[OGL LOG][StoppingCriterion.H:239] Creating stopping criterion with minIter 233 frequency 2
[OGL LOG][Proc: 0]p: generate_solver: 0 [ms]
[OGL LOG][Proc: 0]p: solve: 7550.61 [ms]
[OGL LOG][Proc: 0]p: copy_x_back: 10.626 [ms]
[OGL LOG][lduLduBase.H:330] 
Statistics:
	Time per iteration: 20915 [mu s]
	Time per residual norm calculation: 534.000000 [mu s]
	Time per iteration and DOF: 0.326797 [ns]
	Retrieve results bandwidth 1.505000 [GByte/s]
[OGL LOG][Proc: 0]p: solve_multi_gpu: 8233.8 [ms]
MultigridhipGKOCG:  Solving for p, Initial residual = 0.908276, Final residual = 9.02009e-05, No Iterations 361
[INFO] SolveP: 8348.87 [ms]
time step continuity errors : sum local = 6.4771e-09, global = 8.92043e-22, cumulative = 8.80361e-22
[INFO] ContinuityError: 65.43 [ms]
[INFO] CorrectBoundary: 1.71 [ms]
[INFO] PISOStep: 9373.28 [ms]
[INFO] MatrixAssemblyPI: 550.941 [ms]
[INFO] AdjustPhi: 35.472 [ms]
[INFO] ConstrainPressure: 0.003 [ms]
[INFO] MatrixAssemblyPII: 166.264 [ms]
[OGL LOG][Proc: 0]: global_index_init: 0.158 [ms]
[OGL LOG][Proc: 0]p_local_coeffs: call_update: 0 [ms]
[OGL LOG][Proc: 0]p_non_local_coeffs: call_update: 0 [ms]
[OGL LOG][Proc: 0]p: update_local_matrix_data: 103.932 [ms]
[OGL LOG][Proc: 0]p: update_non_local_matrix_data: 0.341 [ms]
[OGL LOG][Proc: 0]p: regenerate_distributed_matrix: 277.977 [ms]
[OGL LOG][Proc: 0]p_matrix: call_update: 279.764 [ms]
[OGL LOG][Proc: 0]p_rhs: call_update: 37.836 [ms]
[OGL LOG][Preconditioner.H:346] Generate preconditioner Multigrid MaxLevels 9 MinCoarseRows 10 ZeroGuess 1 Cycle v
[OGL LOG][Proc: 0]p: init_precond: 354.524 [ms]
[OGL LOG][StoppingCriterion.H:239] Creating stopping criterion with minIter 216 frequency 1
[OGL LOG][Proc: 0]p: generate_solver: 0 [ms]
[OGL LOG][Proc: 0]p: solve: 7648.14 [ms]
[OGL LOG][Proc: 0]p: copy_x_back: 11.432 [ms]
[OGL LOG][lduLduBase.H:330] 
Statistics:
	Time per iteration: 21244 [mu s]
	Time per residual norm calculation: 527.000000 [mu s]
	Time per iteration and DOF: 0.331937 [ns]
	Retrieve results bandwidth 1.399000 [GByte/s]
[OGL LOG][Proc: 0]p: solve_multi_gpu: 8347.05 [ms]
MultigridhipGKOCG:  Solving for p, Initial residual = 0.859103, Final residual = 9.59024e-05, No Iterations 360
[INFO] SolveP: 8471.76 [ms]
time step continuity errors : sum local = 7.01589e-09, global = 7.31234e-22, cumulative = 1.6116e-21
[INFO] ContinuityError: 60.641 [ms]
[INFO] CorrectBoundary: 1.15 [ms]
[INFO] PISOStep: 9475.38 [ms]
[INFO] TimeStep: 23393.5 [ms]
ExecutionTime = 52.59 s  ClockTime = 52 s

Time = 0.000375

Courant Number mean: 0.0169392 max: 0.511584
[INFO] MatrixAssemblyU: 512.138 [ms]
DILUPBiCGStab:  Solving for Ux, Initial residual = 0.0537543, Final residual = 0.00550187, No Iterations 5
DILUPBiCGStab:  Solving for Uy, Initial residual = 0.262015, Final residual = 0.0267489, No Iterations 5
DILUPBiCGStab:  Solving for Uz, Initial residual = 0.870426, Final residual = 0.0868869, No Iterations 5
[INFO] MomentumPredictor: 3950.13 [ms]
[INFO] MatrixAssemblyPI: 576.369 [ms]
[INFO] AdjustPhi: 25.81 [ms]
[INFO] ConstrainPressure: 0.003 [ms]
[INFO] MatrixAssemblyPII: 166.305 [ms]
[OGL LOG][Proc: 0]: global_index_init: 0.513 [ms]
[OGL LOG][Proc: 0]p_local_coeffs: call_update: 0 [ms]
[OGL LOG][Proc: 0]p_non_local_coeffs: call_update: 0 [ms]
[OGL LOG][Proc: 0]p: update_local_matrix_data: 87.317 [ms]
[OGL LOG][Proc: 0]p: update_non_local_matrix_data: 0.212 [ms]
[OGL LOG][Proc: 0]p: regenerate_distributed_matrix: 254.681 [ms]
[OGL LOG][Proc: 0]p_matrix: call_update: 258.469 [ms]
[OGL LOG][Proc: 0]p_rhs: call_update: 45.33 [ms]
[OGL LOG][Preconditioner.H:346] Generate preconditioner Multigrid MaxLevels 9 MinCoarseRows 10 ZeroGuess 1 Cycle v
[OGL LOG][Proc: 0]p: init_precond: 349.986 [ms]
[OGL LOG][StoppingCriterion.H:239] Creating stopping criterion with minIter 216 frequency 1
[OGL LOG][Proc: 0]p: generate_solver: 0 [ms]
[OGL LOG][Proc: 0]p: solve: 4674.82 [ms]
[OGL LOG][Proc: 0]p: copy_x_back: 10.046 [ms]
[OGL LOG][lduLduBase.H:330] 
Statistics:
	Time per iteration: 21542 [mu s]
	Time per residual norm calculation: 547.000000 [mu s]
	Time per iteration and DOF: 0.336594 [ns]
	Retrieve results bandwidth 1.592000 [GByte/s]
[OGL LOG][Proc: 0]p: solve_multi_gpu: 5366.51 [ms]
MultigridhipGKOCG:  Solving for p, Initial residual = 0.941494, Final residual = 3.14981e-05, No Iterations 217
[INFO] SolveP: 5475.66 [ms]
time step continuity errors : sum local = 3.08032e-09, global = 6.22815e-22, cumulative = 2.23441e-21
[INFO] ContinuityError: 61.342 [ms]
[INFO] CorrectBoundary: 1.019 [ms]
[INFO] PISOStep: 6494.11 [ms]
[INFO] MatrixAssemblyPI: 558.636 [ms]
[INFO] AdjustPhi: 25.209 [ms]
[INFO] ConstrainPressure: 0.003 [ms]
[INFO] MatrixAssemblyPII: 165.667 [ms]
[OGL LOG][Proc: 0]: global_index_init: 1.977 [ms]
[OGL LOG][Proc: 0]p_local_coeffs: call_update: 0 [ms]
[OGL LOG][Proc: 0]p_non_local_coeffs: call_update: 0 [ms]
[OGL LOG][Proc: 0]p: update_local_matrix_data: 89.099 [ms]
[OGL LOG][Proc: 0]p: update_non_local_matrix_data: 0.267 [ms]
[OGL LOG][Proc: 0]p: regenerate_distributed_matrix: 282.887 [ms]
[OGL LOG][Proc: 0]p_matrix: call_update: 287.378 [ms]
[OGL LOG][Proc: 0]p_rhs: call_update: 18.29 [ms]
[OGL LOG][Preconditioner.H:346] Generate preconditioner Multigrid MaxLevels 9 MinCoarseRows 10 ZeroGuess 1 Cycle v
[OGL LOG][Proc: 0]p: init_precond: 349.476 [ms]
[OGL LOG][StoppingCriterion.H:239] Creating stopping criterion with minIter 130 frequency 1
[OGL LOG][Proc: 0]p: generate_solver: 0 [ms]
[OGL LOG][Proc: 0]p: solve: 3644.2 [ms]
[OGL LOG][Proc: 0]p: copy_x_back: 11.682 [ms]
[OGL LOG][lduLduBase.H:330] 
Statistics:
	Time per iteration: 21691 [mu s]
	Time per residual norm calculation: 545.000000 [mu s]
	Time per iteration and DOF: 0.338922 [ns]
	Retrieve results bandwidth 1.369000 [GByte/s]
[OGL LOG][Proc: 0]p: solve_multi_gpu: 4333.43 [ms]
MultigridhipGKOCG:  Solving for p, Initial residual = 0.908963, Final residual = 9.50906e-05, No Iterations 168
[INFO] SolveP: 4444.26 [ms]
time step continuity errors : sum local = 8.52122e-09, global = -7.23783e-25, cumulative = 2.23369e-21
[INFO] ContinuityError: 61.727 [ms]
[INFO] CorrectBoundary: 3.016 [ms]
[INFO] PISOStep: 5443.85 [ms]
[INFO] TimeStep: 16462 [ms]
ExecutionTime = 69.28 s  ClockTime = 69 s

Time = 0.0005

Courant Number mean: 0.020547 max: 0.47757
[INFO] MatrixAssemblyU: 497.21 [ms]
DILUPBiCGStab:  Solving for Ux, Initial residual = 0.0416397, Final residual = 0.00508218, No Iterations 5
DILUPBiCGStab:  Solving for Uy, Initial residual = 0.213966, Final residual = 0.0244123, No Iterations 5
DILUPBiCGStab:  Solving for Uz, Initial residual = 0.7835, Final residual = 0.0636114, No Iterations 5
[INFO] MomentumPredictor: 3950.53 [ms]
[INFO] MatrixAssemblyPI: 575.524 [ms]
[INFO] AdjustPhi: 25.105 [ms]
[INFO] ConstrainPressure: 0.003 [ms]
[INFO] MatrixAssemblyPII: 164.552 [ms]
[OGL LOG][Proc: 0]: global_index_init: 0.041 [ms]
[OGL LOG][Proc: 0]p_local_coeffs: call_update: 0 [ms]
[OGL LOG][Proc: 0]p_non_local_coeffs: call_update: 0 [ms]
[OGL LOG][Proc: 0]p: update_local_matrix_data: 89.627 [ms]
[OGL LOG][Proc: 0]p: update_non_local_matrix_data: 0.27 [ms]
[OGL LOG][Proc: 0]p: regenerate_distributed_matrix: 265.217 [ms]
[OGL LOG][Proc: 0]p_matrix: call_update: 269.732 [ms]
[OGL LOG][Proc: 0]p_rhs: call_update: 33.611 [ms]
[OGL LOG][Preconditioner.H:346] Generate preconditioner Multigrid MaxLevels 9 MinCoarseRows 10 ZeroGuess 1 Cycle v
[OGL LOG][Proc: 0]p: init_precond: 314.504 [ms]
[OGL LOG][StoppingCriterion.H:239] Creating stopping criterion with minIter 100 frequency 1
[OGL LOG][Proc: 0]p: generate_solver: 0 [ms]
[OGL LOG][Proc: 0]p: solve: 3649.11 [ms]
[OGL LOG][Proc: 0]p: copy_x_back: 10.809 [ms]
[OGL LOG][lduLduBase.H:330] 
Statistics:
	Time per iteration: 21982 [mu s]
	Time per residual norm calculation: 536.000000 [mu s]
	Time per iteration and DOF: 0.343469 [ns]
	Retrieve results bandwidth 1.480000 [GByte/s]
[OGL LOG][Proc: 0]p: solve_multi_gpu: 4312.41 [ms]
MultigridhipGKOCG:  Solving for p, Initial residual = 0.938263, Final residual = 9.04537e-05, No Iterations 166
[INFO] SolveP: 4421.6 [ms]
time step continuity errors : sum local = 1.04275e-08, global = 2.75089e-22, cumulative = 2.50878e-21
[INFO] ContinuityError: 61.901 [ms]
[INFO] CorrectBoundary: 2.047 [ms]
[INFO] PISOStep: 5438.59 [ms]
[INFO] MatrixAssemblyPI: 558.196 [ms]
[INFO] AdjustPhi: 25.682 [ms]
[INFO] ConstrainPressure: 0.003 [ms]
[INFO] MatrixAssemblyPII: 166.119 [ms]
[OGL LOG][Proc: 0]: global_index_init: 0.061 [ms]
[OGL LOG][Proc: 0]p_local_coeffs: call_update: 0 [ms]
[OGL LOG][Proc: 0]p_non_local_coeffs: call_update: 0 [ms]
[OGL LOG][Proc: 0]p: update_local_matrix_data: 90.101 [ms]
[OGL LOG][Proc: 0]p: update_non_local_matrix_data: 0.229 [ms]
[OGL LOG][Proc: 0]p: regenerate_distributed_matrix: 261.867 [ms]
[OGL LOG][Proc: 0]p_matrix: call_update: 263.36 [ms]
[OGL LOG][Proc: 0]p_rhs: call_update: 30.648 [ms]
[OGL LOG][Preconditioner.H:346] Generate preconditioner Multigrid MaxLevels 9 MinCoarseRows 10 ZeroGuess 1 Cycle v
[OGL LOG][Proc: 0]p: init_precond: 361.598 [ms]
[OGL LOG][StoppingCriterion.H:239] Creating stopping criterion with minIter 99 frequency 1
[OGL LOG][Proc: 0]p: generate_solver: 0 [ms]
[OGL LOG][Proc: 0]p: solve: 3168.31 [ms]
[OGL LOG][Proc: 0]p: copy_x_back: 10.487 [ms]
[OGL LOG][lduLduBase.H:330] 
Statistics:
	Time per iteration: 21850 [mu s]
	Time per residual norm calculation: 535.000000 [mu s]
	Time per iteration and DOF: 0.341406 [ns]
	Retrieve results bandwidth 1.525000 [GByte/s]
[OGL LOG][Proc: 0]p: solve_multi_gpu: 3857.58 [ms]
MultigridhipGKOCG:  Solving for p, Initial residual = 0.880419, Final residual = 9.73868e-05, No Iterations 145
[INFO] SolveP: 3973.35 [ms]
time step continuity errors : sum local = 1.09929e-08, global = 1.07292e-21, cumulative = 3.58169e-21
[INFO] ContinuityError: 62.604 [ms]
[INFO] CorrectBoundary: 4.519 [ms]
[INFO] PISOStep: 4975.45 [ms]
[INFO] TimeStep: 14923.6 [ms]
ExecutionTime = 84.4 s  ClockTime = 84 s

Time = 0.000625

Courant Number mean: 0.0236168 max: 0.556183
[INFO] MatrixAssemblyU: 510.795 [ms]
DILUPBiCGStab:  Solving for Ux, Initial residual = 0.0375445, Final residual = 0.00460071, No Iterations 5
DILUPBiCGStab:  Solving for Uy, Initial residual = 0.184838, Final residual = 0.0202884, No Iterations 5
DILUPBiCGStab:  Solving for Uz, Initial residual = 0.753807, Final residual = 0.0566844, No Iterations 5
[INFO] MomentumPredictor: 3967.63 [ms]
[INFO] MatrixAssemblyPI: 576.408 [ms]
[INFO] AdjustPhi: 23.598 [ms]
[INFO] ConstrainPressure: 0.003 [ms]
[INFO] MatrixAssemblyPII: 166.038 [ms]
[OGL LOG][Proc: 0]: global_index_init: 0.142 [ms]
[OGL LOG][Proc: 0]p_local_coeffs: call_update: 0 [ms]
[OGL LOG][Proc: 0]p_non_local_coeffs: call_update: 0 [ms]
[OGL LOG][Proc: 0]p: update_local_matrix_data: 89.843 [ms]
[OGL LOG][Proc: 0]p: update_non_local_matrix_data: 0.251 [ms]
[OGL LOG][Proc: 0]p: regenerate_distributed_matrix: 259.698 [ms]
[OGL LOG][Proc: 0]p_matrix: call_update: 261.485 [ms]
[OGL LOG][Proc: 0]p_rhs: call_update: 29.057 [ms]
[OGL LOG][Preconditioner.H:346] Generate preconditioner Multigrid MaxLevels 9 MinCoarseRows 10 ZeroGuess 1 Cycle v
[OGL LOG][Proc: 0]p: init_precond: 346.049 [ms]
[OGL LOG][StoppingCriterion.H:239] Creating stopping criterion with minIter 87 frequency 1
[OGL LOG][Proc: 0]p: generate_solver: 0 [ms]
[OGL LOG][Proc: 0]p: solve: 6676.4 [ms]
[OGL LOG][Proc: 0]p: copy_x_back: 10.82 [ms]
[OGL LOG][lduLduBase.H:330] 
Statistics:
	Time per iteration: 21536 [mu s]
	Time per residual norm calculation: 564.000000 [mu s]
	Time per iteration and DOF: 0.336500 [ns]
	Retrieve results bandwidth 1.478000 [GByte/s]
[OGL LOG][Proc: 0]p: solve_multi_gpu: 7344.11 [ms]
MultigridhipGKOCG:  Solving for p, Initial residual = 0.954418, Final residual = 9.93881e-05, No Iterations 310
[INFO] SolveP: 7454.85 [ms]
time step continuity errors : sum local = 1.24587e-08, global = 1.71123e-23, cumulative = 3.59881e-21
[INFO] ContinuityError: 57.888 [ms]
[INFO] CorrectBoundary: 1.194 [ms]
[INFO] PISOStep: 8472.47 [ms]
[INFO] MatrixAssemblyPI: 558.819 [ms]
[INFO] AdjustPhi: 24.171 [ms]
[INFO] ConstrainPressure: 0.004 [ms]
[INFO] MatrixAssemblyPII: 166.626 [ms]
[OGL LOG][Proc: 0]: global_index_init: 0.048 [ms]
[OGL LOG][Proc: 0]p_local_coeffs: call_update: 0 [ms]
[OGL LOG][Proc: 0]p_non_local_coeffs: call_update: 0 [ms]
[OGL LOG][Proc: 0]p: update_local_matrix_data: 93.02 [ms]
[OGL LOG][Proc: 0]p: update_non_local_matrix_data: 0.338 [ms]
[OGL LOG][Proc: 0]p: regenerate_distributed_matrix: 268.739 [ms]
[OGL LOG][Proc: 0]p_matrix: call_update: 270.538 [ms]
[OGL LOG][Proc: 0]p_rhs: call_update: 19.931 [ms]
[OGL LOG][Preconditioner.H:346] Generate preconditioner Multigrid MaxLevels 9 MinCoarseRows 10 ZeroGuess 1 Cycle v
[OGL LOG][Proc: 0]p: init_precond: 330.553 [ms]
[OGL LOG][StoppingCriterion.H:239] Creating stopping criterion with minIter 186 frequency 1
[OGL LOG][Proc: 0]p: generate_solver: 0 [ms]
[OGL LOG][Proc: 0]p: solve: 6752.73 [ms]
[OGL LOG][Proc: 0]p: copy_x_back: 11.627 [ms]
[OGL LOG][lduLduBase.H:330] 
Statistics:
	Time per iteration: 21712 [mu s]
	Time per residual norm calculation: 572.000000 [mu s]
	Time per iteration and DOF: 0.339250 [ns]
	Retrieve results bandwidth 1.376000 [GByte/s]
[OGL LOG][Proc: 0]p: solve_multi_gpu: 7412.05 [ms]
MultigridhipGKOCG:  Solving for p, Initial residual = 0.915172, Final residual = 9.99818e-05, No Iterations 311
[INFO] SolveP: 7524.95 [ms]
time step continuity errors : sum local = 1.24592e-08, global = 5.71743e-22, cumulative = 4.17055e-21
[INFO] ContinuityError: 58.539 [ms]
[INFO] CorrectBoundary: 0.92 [ms]
[INFO] PISOStep: 8524.28 [ms]
[INFO] TimeStep: 21536.5 [ms]
ExecutionTime = 106.4 s  ClockTime = 105 s

Time = 0.00075

Courant Number mean: 0.0259523 max: 0.483348
[INFO] MatrixAssemblyU: 507.248 [ms]
DILUPBiCGStab:  Solving for Ux, Initial residual = 0.0352908, Final residual = 0.00436882, No Iterations 5
DILUPBiCGStab:  Solving for Uy, Initial residual = 0.171784, Final residual = 0.0174999, No Iterations 5
DILUPBiCGStab:  Solving for Uz, Initial residual = 0.703347, Final residual = 0.0477904, No Iterations 5
[INFO] MomentumPredictor: 3953.61 [ms]
[INFO] MatrixAssemblyPI: 574.453 [ms]
[INFO] AdjustPhi: 27.452 [ms]
[INFO] ConstrainPressure: 0.004 [ms]
[INFO] MatrixAssemblyPII: 159.925 [ms]
[OGL LOG][Proc: 0]: global_index_init: 0.643 [ms]
[OGL LOG][Proc: 0]p_local_coeffs: call_update: 0 [ms]
[OGL LOG][Proc: 0]p_non_local_coeffs: call_update: 0 [ms]
[OGL LOG][Proc: 0]p: update_local_matrix_data: 79.28 [ms]
[OGL LOG][Proc: 0]p: update_non_local_matrix_data: 0.198 [ms]
[OGL LOG][Proc: 0]p: regenerate_distributed_matrix: 267.044 [ms]
[OGL LOG][Proc: 0]p_matrix: call_update: 268.975 [ms]
[OGL LOG][Proc: 0]p_rhs: call_update: 12.736 [ms]
[OGL LOG][Preconditioner.H:346] Generate preconditioner Multigrid MaxLevels 9 MinCoarseRows 10 ZeroGuess 1 Cycle v
[OGL LOG][Proc: 0]p: init_precond: 344.703 [ms]
[OGL LOG][StoppingCriterion.H:239] Creating stopping criterion with minIter 186 frequency 1
[OGL LOG][Proc: 0]p: generate_solver: 0 [ms]
[OGL LOG][Proc: 0]p: solve: 6912.85 [ms]
[OGL LOG][Proc: 0]p: copy_x_back: 10.857 [ms]
[OGL LOG][lduLduBase.H:330] 
Statistics:
	Time per iteration: 21270 [mu s]
	Time per residual norm calculation: 543.000000 [mu s]
	Time per iteration and DOF: 0.332344 [ns]
	Retrieve results bandwidth 1.473000 [GByte/s]
[OGL LOG][Proc: 0]p: solve_multi_gpu: 7585.7 [ms]
MultigridhipGKOCG:  Solving for p, Initial residual = 0.951505, Final residual = 9.94123e-05, No Iterations 325
[INFO] SolveP: 7684.98 [ms]
time step continuity errors : sum local = 1.44126e-08, global = -7.41716e-23, cumulative = 4.09638e-21
[INFO] ContinuityError: 58.624 [ms]
[INFO] CorrectBoundary: 1.591 [ms]
[INFO] PISOStep: 8702.98 [ms]
[INFO] MatrixAssemblyPI: 559.017 [ms]
[INFO] AdjustPhi: 24.356 [ms]
[INFO] ConstrainPressure: 0.003 [ms]
[INFO] MatrixAssemblyPII: 166.069 [ms]
[OGL LOG][Proc: 0]: global_index_init: 0.151 [ms]
[OGL LOG][Proc: 0]p_local_coeffs: call_update: 0 [ms]
[OGL LOG][Proc: 0]p_non_local_coeffs: call_update: 0 [ms]
[OGL LOG][Proc: 0]p: update_local_matrix_data: 88.029 [ms]
[OGL LOG][Proc: 0]p: update_non_local_matrix_data: 0.263 [ms]
[OGL LOG][Proc: 0]p: regenerate_distributed_matrix: 266.406 [ms]
[OGL LOG][Proc: 0]p_matrix: call_update: 268.086 [ms]
[OGL LOG][Proc: 0]p_rhs: call_update: 55.519 [ms]
[OGL LOG][Preconditioner.H:346] Generate preconditioner Multigrid MaxLevels 9 MinCoarseRows 10 ZeroGuess 1 Cycle v
[OGL LOG][Proc: 0]p: init_precond: 330.056 [ms]
[OGL LOG][StoppingCriterion.H:239] Creating stopping criterion with minIter 195 frequency 1
[OGL LOG][Proc: 0]p: generate_solver: 0 [ms]
[OGL LOG][Proc: 0]p: solve: 7080.28 [ms]
[OGL LOG][Proc: 0]p: copy_x_back: 11.838 [ms]
[OGL LOG][lduLduBase.H:330] 
Statistics:
	Time per iteration: 21852 [mu s]
	Time per residual norm calculation: 560.000000 [mu s]
	Time per iteration and DOF: 0.341438 [ns]
	Retrieve results bandwidth 1.351000 [GByte/s]
[OGL LOG][Proc: 0]p: solve_multi_gpu: 7769.84 [ms]
MultigridhipGKOCG:  Solving for p, Initial residual = 0.891305, Final residual = 9.53342e-05, No Iterations 324
[INFO] SolveP: 7879.71 [ms]
time step continuity errors : sum local = 1.404e-08, global = 3.04422e-22, cumulative = 4.4008e-21
[INFO] ContinuityError: 62.623 [ms]
[INFO] CorrectBoundary: 1.251 [ms]
[INFO] PISOStep: 8879.66 [ms]
[INFO] TimeStep: 22105.5 [ms]
ExecutionTime = 129.02 s  ClockTime = 127 s

Time = 0.000875

Courant Number mean: 0.0281459 max: 0.612449
[INFO] MatrixAssemblyU: 509.68 [ms]
DILUPBiCGStab:  Solving for Ux, Initial residual = 0.0351386, Final residual = 0.00419875, No Iterations 5
DILUPBiCGStab:  Solving for Uy, Initial residual = 0.176229, Final residual = 0.0164881, No Iterations 5
DILUPBiCGStab:  Solving for Uz, Initial residual = 0.698832, Final residual = 0.0439174, No Iterations 5
[INFO] MomentumPredictor: 3951.84 [ms]
[INFO] MatrixAssemblyPI: 576.525 [ms]
[INFO] AdjustPhi: 27.194 [ms]
[INFO] ConstrainPressure: 0.003 [ms]
[INFO] MatrixAssemblyPII: 165.861 [ms]
[OGL LOG][Proc: 0]: global_index_init: 0.081 [ms]
[OGL LOG][Proc: 0]p_local_coeffs: call_update: 0 [ms]
[OGL LOG][Proc: 0]p_non_local_coeffs: call_update: 0 [ms]
[OGL LOG][Proc: 0]p: update_local_matrix_data: 101.046 [ms]
[OGL LOG][Proc: 0]p: update_non_local_matrix_data: 0.22 [ms]
[OGL LOG][Proc: 0]p: regenerate_distributed_matrix: 260.721 [ms]
[OGL LOG][Proc: 0]p_matrix: call_update: 262.423 [ms]
[OGL LOG][Proc: 0]p_rhs: call_update: 45.147 [ms]
[OGL LOG][Preconditioner.H:346] Generate preconditioner Multigrid MaxLevels 9 MinCoarseRows 10 ZeroGuess 1 Cycle v
[OGL LOG][Proc: 0]p: init_precond: 371.256 [ms]
[OGL LOG][StoppingCriterion.H:239] Creating stopping criterion with minIter 194 frequency 1
[OGL LOG][Proc: 0]p: generate_solver: 0 [ms]
[OGL LOG][Proc: 0]p: solve: 6456.88 [ms]
[OGL LOG][Proc: 0]p: copy_x_back: 10.852 [ms]
[OGL LOG][lduLduBase.H:330] 
Statistics:
	Time per iteration: 21309 [mu s]
	Time per residual norm calculation: 524.000000 [mu s]
	Time per iteration and DOF: 0.332953 [ns]
	Retrieve results bandwidth 1.474000 [GByte/s]
[OGL LOG][Proc: 0]p: solve_multi_gpu: 7178.1 [ms]
MultigridhipGKOCG:  Solving for p, Initial residual = 0.962331, Final residual = 9.97003e-05, No Iterations 303
[INFO] SolveP: 7298.64 [ms]
time step continuity errors : sum local = 1.63485e-08, global = 9.3949e-22, cumulative = 5.34029e-21
[INFO] ContinuityError: 64.148 [ms]
[INFO] CorrectBoundary: 1.416 [ms]
[INFO] PISOStep: 8319.89 [ms]
[INFO] MatrixAssemblyPI: 558.387 [ms]
[INFO] AdjustPhi: 24.708 [ms]
[INFO] ConstrainPressure: 0.003 [ms]
[INFO] MatrixAssemblyPII: 166.783 [ms]
[OGL LOG][Proc: 0]: global_index_init: 0.036 [ms]
[OGL LOG][Proc: 0]p_local_coeffs: call_update: 0 [ms]
[OGL LOG][Proc: 0]p_non_local_coeffs: call_update: 0 [ms]
[OGL LOG][Proc: 0]p: update_local_matrix_data: 101.399 [ms]
[OGL LOG][Proc: 0]p: update_non_local_matrix_data: 0.163 [ms]
[OGL LOG][Proc: 0]p: regenerate_distributed_matrix: 262.68 [ms]
[OGL LOG][Proc: 0]p_matrix: call_update: 264.654 [ms]
[OGL LOG][Proc: 0]p_rhs: call_update: 27.376 [ms]
[OGL LOG][Preconditioner.H:346] Generate preconditioner Multigrid MaxLevels 9 MinCoarseRows 10 ZeroGuess 1 Cycle v
[OGL LOG][Proc: 0]p: init_precond: 346.096 [ms]
[OGL LOG][StoppingCriterion.H:239] Creating stopping criterion with minIter 181 frequency 1
[OGL LOG][Proc: 0]p: generate_solver: 0 [ms]
[OGL LOG][Proc: 0]p: solve: 6607.32 [ms]
[OGL LOG][Proc: 0]p: copy_x_back: 10.794 [ms]
[OGL LOG][lduLduBase.H:330] 
Statistics:
	Time per iteration: 21806 [mu s]
	Time per residual norm calculation: 570.000000 [mu s]
	Time per iteration and DOF: 0.340719 [ns]
	Retrieve results bandwidth 1.482000 [GByte/s]
[OGL LOG][Proc: 0]p: solve_multi_gpu: 7294.49 [ms]
MultigridhipGKOCG:  Solving for p, Initial residual = 0.917607, Final residual = 9.51242e-05, No Iterations 303
[INFO] SolveP: 7415.6 [ms]
time step continuity errors : sum local = 1.55418e-08, global = 1.07376e-21, cumulative = 6.41405e-21
[INFO] ContinuityError: 62.386 [ms]
[INFO] CorrectBoundary: 3.123 [ms]
[INFO] PISOStep: 8416.6 [ms]
[INFO] TimeStep: 21260 [ms]
ExecutionTime = 150.76 s  ClockTime = 149 s

Time = 0.001

Courant Number mean: 0.029892 max: 0.491035
[INFO] MatrixAssemblyU: 502.844 [ms]
DILUPBiCGStab:  Solving for Ux, Initial residual = 0.0361857, Final residual = 0.00403737, No Iterations 5
DILUPBiCGStab:  Solving for Uy, Initial residual = 0.170138, Final residual = 0.0143867, No Iterations 5
DILUPBiCGStab:  Solving for Uz, Initial residual = 0.683099, Final residual = 0.0392065, No Iterations 5
[INFO] MomentumPredictor: 3969.71 [ms]
[INFO] MatrixAssemblyPI: 575.473 [ms]
[INFO] AdjustPhi: 23.991 [ms]
[INFO] ConstrainPressure: 0.003 [ms]
[INFO] MatrixAssemblyPII: 166.77 [ms]
[OGL LOG][Proc: 0]: global_index_init: 0.108 [ms]
[OGL LOG][Proc: 0]p_local_coeffs: call_update: 0 [ms]
[OGL LOG][Proc: 0]p_non_local_coeffs: call_update: 0 [ms]
[OGL LOG][Proc: 0]p: update_local_matrix_data: 85.874 [ms]
[OGL LOG][Proc: 0]p: update_non_local_matrix_data: 0.274 [ms]
[OGL LOG][Proc: 0]p: regenerate_distributed_matrix: 256.76 [ms]
[OGL LOG][Proc: 0]p_matrix: call_update: 258.406 [ms]
[OGL LOG][Proc: 0]p_rhs: call_update: 53.104 [ms]
[OGL LOG][Preconditioner.H:346] Generate preconditioner Multigrid MaxLevels 9 MinCoarseRows 10 ZeroGuess 1 Cycle v
[OGL LOG][Proc: 0]p: init_precond: 342.876 [ms]
[OGL LOG][StoppingCriterion.H:239] Creating stopping criterion with minIter 181 frequency 1
[OGL LOG][Proc: 0]p: generate_solver: 0 [ms]
[OGL LOG][Proc: 0]p: solve: 6896.07 [ms]
[OGL LOG][Proc: 0]p: copy_x_back: 8.392 [ms]
[OGL LOG][lduLduBase.H:330] 
Statistics:
	Time per iteration: 21483 [mu s]
	Time per residual norm calculation: 584.000000 [mu s]
	Time per iteration and DOF: 0.335672 [ns]
	Retrieve results bandwidth 1.906000 [GByte/s]
[OGL LOG][Proc: 0]p: solve_multi_gpu: 7594.1 [ms]
MultigridhipGKOCG:  Solving for p, Initial residual = 0.96026, Final residual = 8.94371e-05, No Iterations 321
[INFO] SolveP: 7700.04 [ms]
time step continuity errors : sum local = 1.68823e-08, global = 2.90832e-22, cumulative = 6.70489e-21
[INFO] ContinuityError: 59.842 [ms]
[INFO] CorrectBoundary: 1.088 [ms]
[INFO] PISOStep: 8716.01 [ms]
[INFO] MatrixAssemblyPI: 557.822 [ms]
[INFO] AdjustPhi: 25.504 [ms]
[INFO] ConstrainPressure: 0.003 [ms]
[INFO] MatrixAssemblyPII: 165.311 [ms]
[OGL LOG][Proc: 0]: global_index_init: 0.295 [ms]
[OGL LOG][Proc: 0]p_local_coeffs: call_update: 0 [ms]
[OGL LOG][Proc: 0]p_non_local_coeffs: call_update: 0 [ms]
[OGL LOG][Proc: 0]p: update_local_matrix_data: 88.623 [ms]
[OGL LOG][Proc: 0]p: update_non_local_matrix_data: 0.215 [ms]
[OGL LOG][Proc: 0]p: regenerate_distributed_matrix: 269.95 [ms]
[OGL LOG][Proc: 0]p_matrix: call_update: 271.65 [ms]
[OGL LOG][Proc: 0]p_rhs: call_update: 19.256 [ms]
[OGL LOG][Preconditioner.H:346] Generate preconditioner Multigrid MaxLevels 9 MinCoarseRows 10 ZeroGuess 1 Cycle v
[OGL LOG][Proc: 0]p: init_precond: 361.554 [ms]
[OGL LOG][StoppingCriterion.H:239] Creating stopping criterion with minIter 192 frequency 1
[OGL LOG][Proc: 0]p: generate_solver: 0 [ms]
[OGL LOG][Proc: 0]p: solve: 6941.84 [ms]
[OGL LOG][Proc: 0]p: copy_x_back: 11.53 [ms]
[OGL LOG][lduLduBase.H:330] 
Statistics:
	Time per iteration: 21693 [mu s]
	Time per residual norm calculation: 635.000000 [mu s]
	Time per iteration and DOF: 0.338953 [ns]
	Retrieve results bandwidth 1.387000 [GByte/s]
[OGL LOG][Proc: 0]p: solve_multi_gpu: 7635.46 [ms]
MultigridhipGKOCG:  Solving for p, Initial residual = 0.898173, Final residual = 9.53446e-05, No Iterations 320
[INFO] SolveP: 7744.12 [ms]
time step continuity errors : sum local = 1.82596e-08, global = 7.18038e-22, cumulative = 7.42292e-21
[INFO] ContinuityError: 60.403 [ms]
[INFO] CorrectBoundary: 1.099 [ms]
[INFO] PISOStep: 8743.27 [ms]
[INFO] TimeStep: 21993.2 [ms]
ExecutionTime = 173.24 s  ClockTime = 171 s

Time = 0.001125

Courant Number mean: 0.031694 max: 0.696041
[INFO] MatrixAssemblyU: 511.624 [ms]
DILUPBiCGStab:  Solving for Ux, Initial residual = 0.0374435, Final residual = 0.0038275, No Iterations 5
DILUPBiCGStab:  Solving for Uy, Initial residual = 0.18677, Final residual = 0.0147401, No Iterations 5
DILUPBiCGStab:  Solving for Uz, Initial residual = 0.692149, Final residual = 0.0376067, No Iterations 5
[INFO] MomentumPredictor: 3943 [ms]
[INFO] MatrixAssemblyPI: 574.83 [ms]
[INFO] AdjustPhi: 25.367 [ms]
[INFO] ConstrainPressure: 0.003 [ms]
[INFO] MatrixAssemblyPII: 166.8 [ms]
[OGL LOG][Proc: 0]: global_index_init: 0.132 [ms]
[OGL LOG][Proc: 0]p_local_coeffs: call_update: 0 [ms]
[OGL LOG][Proc: 0]p_non_local_coeffs: call_update: 0 [ms]
[OGL LOG][Proc: 0]p: update_local_matrix_data: 103.076 [ms]
[OGL LOG][Proc: 0]p: update_non_local_matrix_data: 0.318 [ms]
[OGL LOG][Proc: 0]p: regenerate_distributed_matrix: 255.786 [ms]
[OGL LOG][Proc: 0]p_matrix: call_update: 257.537 [ms]
[OGL LOG][Proc: 0]p_rhs: call_update: 35.842 [ms]
[OGL LOG][Preconditioner.H:346] Generate preconditioner Multigrid MaxLevels 9 MinCoarseRows 10 ZeroGuess 1 Cycle v
[OGL LOG][Proc: 0]p: init_precond: 355.592 [ms]
[OGL LOG][StoppingCriterion.H:239] Creating stopping criterion with minIter 192 frequency 1
[OGL LOG][Proc: 0]p: generate_solver: 0 [ms]
[OGL LOG][Proc: 0]p: solve: 6420.84 [ms]
[OGL LOG][Proc: 0]p: copy_x_back: 11.701 [ms]
[OGL LOG][lduLduBase.H:330] 
Statistics:
	Time per iteration: 21402 [mu s]
	Time per residual norm calculation: 519.000000 [mu s]
	Time per iteration and DOF: 0.334406 [ns]
	Retrieve results bandwidth 1.367000 [GByte/s]
[OGL LOG][Proc: 0]p: solve_multi_gpu: 7095.92 [ms]
MultigridhipGKOCG:  Solving for p, Initial residual = 0.968106, Final residual = 9.69032e-05, No Iterations 300
[INFO] SolveP: 7218.41 [ms]
time step continuity errors : sum local = 2.09416e-08, global = 7.50847e-22, cumulative = 8.17377e-21
[INFO] ContinuityError: 66.302 [ms]
[INFO] CorrectBoundary: 1.403 [ms]
[INFO] PISOStep: 8235.4 [ms]
[INFO] MatrixAssemblyPI: 558.304 [ms]
[INFO] AdjustPhi: 25.201 [ms]
[INFO] ConstrainPressure: 0.003 [ms]
[INFO] MatrixAssemblyPII: 166.907 [ms]
[OGL LOG][Proc: 0]: global_index_init: 0.081 [ms]
[OGL LOG][Proc: 0]p_local_coeffs: call_update: 0 [ms]
[OGL LOG][Proc: 0]p_non_local_coeffs: call_update: 0 [ms]
[OGL LOG][Proc: 0]p: update_local_matrix_data: 80.176 [ms]
[OGL LOG][Proc: 0]p: update_non_local_matrix_data: 0.237 [ms]
[OGL LOG][Proc: 0]p: regenerate_distributed_matrix: 272.849 [ms]
[OGL LOG][Proc: 0]p_matrix: call_update: 274.576 [ms]
[OGL LOG][Proc: 0]p_rhs: call_update: 24.45 [ms]
[OGL LOG][Preconditioner.H:346] Generate preconditioner Multigrid MaxLevels 9 MinCoarseRows 10 ZeroGuess 1 Cycle v
[OGL LOG][Proc: 0]p: init_precond: 435.574 [ms]
[OGL LOG][StoppingCriterion.H:239] Creating stopping criterion with minIter 180 frequency 1
[OGL LOG][Proc: 0]p: generate_solver: 0 [ms]
[OGL LOG][Proc: 0]p: solve: 6412.08 [ms]
[OGL LOG][Proc: 0]p: copy_x_back: 11.462 [ms]
[OGL LOG][lduLduBase.H:330] 
Statistics:
	Time per iteration: 21445 [mu s]
	Time per residual norm calculation: 590.000000 [mu s]
	Time per iteration and DOF: 0.335078 [ns]
	Retrieve results bandwidth 1.395000 [GByte/s]
[OGL LOG][Proc: 0]p: solve_multi_gpu: 7189.58 [ms]
MultigridhipGKOCG:  Solving for p, Initial residual = 0.918666, Final residual = 9.62777e-05, No Iterations 299
[INFO] SolveP: 7289.17 [ms]
time step continuity errors : sum local = 2.07816e-08, global = 9.91092e-22, cumulative = 9.16486e-21
[INFO] ContinuityError: 65.644 [ms]
[INFO] CorrectBoundary: 0.871 [ms]
[INFO] PISOStep: 8291.22 [ms]
[INFO] TimeStep: 21043.9 [ms]
ExecutionTime = 194.7 s  ClockTime = 192 s

Time = 0.00125

Courant Number mean: 0.0331067 max: 0.507084
[INFO] MatrixAssemblyU: 509.606 [ms]
DILUPBiCGStab:  Solving for Ux, Initial residual = 0.0407972, Final residual = 0.00389195, No Iterations 5
DILUPBiCGStab:  Solving for Uy, Initial residual = 0.185578, Final residual = 0.0130472, No Iterations 5
DILUPBiCGStab:  Solving for Uz, Initial residual = 0.695416, Final residual = 0.0370407, No Iterations 5
[INFO] MomentumPredictor: 3942.72 [ms]
[INFO] MatrixAssemblyPI: 576.182 [ms]
[INFO] AdjustPhi: 23.545 [ms]
[INFO] ConstrainPressure: 0.003 [ms]
[INFO] MatrixAssemblyPII: 166.015 [ms]
[OGL LOG][Proc: 0]: global_index_init: 0.037 [ms]
[OGL LOG][Proc: 0]p_local_coeffs: call_update: 0 [ms]
[OGL LOG][Proc: 0]p_non_local_coeffs: call_update: 0 [ms]
[OGL LOG][Proc: 0]p: update_local_matrix_data: 89.999 [ms]
[OGL LOG][Proc: 0]p: update_non_local_matrix_data: 0.241 [ms]
[OGL LOG][Proc: 0]p: regenerate_distributed_matrix: 258.684 [ms]
[OGL LOG][Proc: 0]p_matrix: call_update: 260.426 [ms]
[OGL LOG][Proc: 0]p_rhs: call_update: 32.704 [ms]
[OGL LOG][Preconditioner.H:346] Generate preconditioner Multigrid MaxLevels 9 MinCoarseRows 10 ZeroGuess 1 Cycle v
[OGL LOG][Proc: 0]p: init_precond: 353.641 [ms]
[OGL LOG][StoppingCriterion.H:239] Creating stopping criterion with minIter 179 frequency 1
[OGL LOG][Proc: 0]p: generate_solver: 0 [ms]
[OGL LOG][Proc: 0]p: solve: 6525.08 [ms]
[OGL LOG][Proc: 0]p: copy_x_back: 10.772 [ms]
[OGL LOG][lduLduBase.H:330] 
Statistics:
	Time per iteration: 21464 [mu s]
	Time per residual norm calculation: 555.000000 [mu s]
	Time per iteration and DOF: 0.335375 [ns]
	Retrieve results bandwidth 1.485000 [GByte/s]
[OGL LOG][Proc: 0]p: solve_multi_gpu: 7208.33 [ms]
MultigridhipGKOCG:  Solving for p, Initial residual = 0.96747, Final residual = 9.23378e-05, No Iterations 304
[INFO] SolveP: 7318.24 [ms]
time step continuity errors : sum local = 2.32445e-08, global = 9.0734e-22, cumulative = 1.00722e-20
[INFO] ContinuityError: 54.658 [ms]
[INFO] CorrectBoundary: 1.851 [ms]
[INFO] PISOStep: 8334.14 [ms]
[INFO] MatrixAssemblyPI: 557.477 [ms]
[INFO] AdjustPhi: 25.455 [ms]
[INFO] ConstrainPressure: 0.003 [ms]
[INFO] MatrixAssemblyPII: 166.576 [ms]
[OGL LOG][Proc: 0]: global_index_init: 0.12 [ms]
[OGL LOG][Proc: 0]p_local_coeffs: call_update: 0 [ms]
[OGL LOG][Proc: 0]p_non_local_coeffs: call_update: 0 [ms]
[OGL LOG][Proc: 0]p: update_local_matrix_data: 95.131 [ms]
[OGL LOG][Proc: 0]p: update_non_local_matrix_data: 0.207 [ms]
[OGL LOG][Proc: 0]p: regenerate_distributed_matrix: 262.743 [ms]
[OGL LOG][Proc: 0]p_matrix: call_update: 264.495 [ms]
[OGL LOG][Proc: 0]p_rhs: call_update: 33.337 [ms]
[OGL LOG][Preconditioner.H:346] Generate preconditioner Multigrid MaxLevels 9 MinCoarseRows 10 ZeroGuess 1 Cycle v
[OGL LOG][Proc: 0]p: init_precond: 386.36 [ms]
[OGL LOG][StoppingCriterion.H:239] Creating stopping criterion with minIter 182 frequency 1
[OGL LOG][Proc: 0]p: generate_solver: 0 [ms]
[OGL LOG][Proc: 0]p: solve: 6423.65 [ms]
[OGL LOG][Proc: 0]p: copy_x_back: 11.845 [ms]
[OGL LOG][lduLduBase.H:330] 
Statistics:
	Time per iteration: 21200 [mu s]
	Time per residual norm calculation: 622.000000 [mu s]
	Time per iteration and DOF: 0.331250 [ns]
	Retrieve results bandwidth 1.350000 [GByte/s]
[OGL LOG][Proc: 0]p: solve_multi_gpu: 7139.6 [ms]
MultigridhipGKOCG:  Solving for p, Initial residual = 0.903774, Final residual = 9.89125e-05, No Iterations 303
[INFO] SolveP: 7254.64 [ms]
time step continuity errors : sum local = 2.52285e-08, global = 8.65179e-23, cumulative = 1.01587e-20
[INFO] ContinuityError: 60.658 [ms]
[INFO] CorrectBoundary: 1.401 [ms]
[INFO] PISOStep: 8252.35 [ms]
[INFO] TimeStep: 21100.2 [ms]
ExecutionTime = 216.25 s  ClockTime = 213 s

Time = 0.001375

Courant Number mean: 0.0347049 max: 0.825591
[INFO] MatrixAssemblyU: 508.219 [ms]
DILUPBiCGStab:  Solving for Ux, Initial residual = 0.0436071, Final residual = 0.00374492, No Iterations 5
DILUPBiCGStab:  Solving for Uy, Initial residual = 0.209251, Final residual = 0.0140899, No Iterations 5
DILUPBiCGStab:  Solving for Uz, Initial residual = 0.708308, Final residual = 0.0375768, No Iterations 5
[INFO] MomentumPredictor: 3958.52 [ms]
[INFO] MatrixAssemblyPI: 575.6 [ms]
[INFO] AdjustPhi: 30.343 [ms]
[INFO] ConstrainPressure: 0.003 [ms]
[INFO] MatrixAssemblyPII: 166.857 [ms]
[OGL LOG][Proc: 0]: global_index_init: 0.064 [ms]
[OGL LOG][Proc: 0]p_local_coeffs: call_update: 0 [ms]
[OGL LOG][Proc: 0]p_non_local_coeffs: call_update: 0 [ms]
[OGL LOG][Proc: 0]p: update_local_matrix_data: 91.859 [ms]
[OGL LOG][Proc: 0]p: update_non_local_matrix_data: 0.251 [ms]
[OGL LOG][Proc: 0]p: regenerate_distributed_matrix: 265.438 [ms]
[OGL LOG][Proc: 0]p_matrix: call_update: 267.182 [ms]
[OGL LOG][Proc: 0]p_rhs: call_update: 38.747 [ms]
[OGL LOG][Preconditioner.H:346] Generate preconditioner Multigrid MaxLevels 9 MinCoarseRows 10 ZeroGuess 1 Cycle v
[OGL LOG][Proc: 0]p: init_precond: 365.711 [ms]
[OGL LOG][StoppingCriterion.H:239] Creating stopping criterion with minIter 181 frequency 1
[OGL LOG][Proc: 0]p: generate_solver: 0 [ms]
[OGL LOG][Proc: 0]p: solve: 6237.37 [ms]
[OGL LOG][Proc: 0]p: copy_x_back: 12.184 [ms]
[OGL LOG][lduLduBase.H:330] 
Statistics:
	Time per iteration: 21360 [mu s]
	Time per residual norm calculation: 599.000000 [mu s]
	Time per iteration and DOF: 0.333750 [ns]
	Retrieve results bandwidth 1.313000 [GByte/s]
[OGL LOG][Proc: 0]p: solve_multi_gpu: 6948.09 [ms]
MultigridhipGKOCG:  Solving for p, Initial residual = 0.973044, Final residual = 9.6874e-05, No Iterations 292
[INFO] SolveP: 7059.97 [ms]
time step continuity errors : sum local = 2.827e-08, global = -4.06714e-22, cumulative = 9.75201e-21
[INFO] ContinuityError: 65.918 [ms]
[INFO] CorrectBoundary: 0.866 [ms]
[INFO] PISOStep: 8087.69 [ms]
[INFO] MatrixAssemblyPI: 558.369 [ms]
[INFO] AdjustPhi: 24.917 [ms]
[INFO] ConstrainPressure: 0.002 [ms]
[INFO] MatrixAssemblyPII: 165.636 [ms]
[OGL LOG][Proc: 0]: global_index_init: 0.04 [ms]
[OGL LOG][Proc: 0]p_local_coeffs: call_update: 0 [ms]
[OGL LOG][Proc: 0]p_non_local_coeffs: call_update: 0 [ms]
[OGL LOG][Proc: 0]p: update_local_matrix_data: 86.953 [ms]
[OGL LOG][Proc: 0]p: update_non_local_matrix_data: 0.213 [ms]
[OGL LOG][Proc: 0]p: regenerate_distributed_matrix: 276.873 [ms]
[OGL LOG][Proc: 0]p_matrix: call_update: 279.087 [ms]
[OGL LOG][Proc: 0]p_rhs: call_update: 18.066 [ms]
[OGL LOG][Preconditioner.H:346] Generate preconditioner Multigrid MaxLevels 9 MinCoarseRows 10 ZeroGuess 1 Cycle v
[OGL LOG][Proc: 0]p: init_precond: 371.955 [ms]
[OGL LOG][StoppingCriterion.H:239] Creating stopping criterion with minIter 175 frequency 1
[OGL LOG][Proc: 0]p: generate_solver: 0 [ms]
[OGL LOG][Proc: 0]p: solve: 6268.78 [ms]
[OGL LOG][Proc: 0]p: copy_x_back: 11.632 [ms]
[OGL LOG][lduLduBase.H:330] 
Statistics:
	Time per iteration: 21468 [mu s]
	Time per residual norm calculation: 534.000000 [mu s]
	Time per iteration and DOF: 0.335437 [ns]
	Retrieve results bandwidth 1.375000 [GByte/s]
[OGL LOG][Proc: 0]p: solve_multi_gpu: 6973.27 [ms]
MultigridhipGKOCG:  Solving for p, Initial residual = 0.91948, Final residual = 9.28069e-05, No Iterations 292
[INFO] SolveP: 7082.44 [ms]
time step continuity errors : sum local = 2.7098e-08, global = 1.9515e-22, cumulative = 9.94716e-21
[INFO] ContinuityError: 61.435 [ms]
[INFO] CorrectBoundary: 1.368 [ms]
[INFO] PISOStep: 8080.38 [ms]
[INFO] TimeStep: 20697.4 [ms]
ExecutionTime = 237.39 s  ClockTime = 234 s

Time = 0.0015

Courant Number mean: 0.0359041 max: 0.597549
[INFO] MatrixAssemblyU: 511.673 [ms]
DILUPBiCGStab:  Solving for Ux, Initial residual = 0.0488534, Final residual = 0.00389395, No Iterations 5
DILUPBiCGStab:  Solving for Uy, Initial residual = 0.213708, Final residual = 0.0129916, No Iterations 5
DILUPBiCGStab:  Solving for Uz, Initial residual = 0.711372, Final residual = 0.0356709, No Iterations 5
[INFO] MomentumPredictor: 3940.98 [ms]
[INFO] MatrixAssemblyPI: 574.972 [ms]
[INFO] AdjustPhi: 24.73 [ms]
[INFO] ConstrainPressure: 0.003 [ms]
[INFO] MatrixAssemblyPII: 167.082 [ms]
[OGL LOG][Proc: 0]: global_index_init: 0.043 [ms]
[OGL LOG][Proc: 0]p_local_coeffs: call_update: 0 [ms]
[OGL LOG][Proc: 0]p_non_local_coeffs: call_update: 0 [ms]
[OGL LOG][Proc: 0]p: update_local_matrix_data: 104.147 [ms]
[OGL LOG][Proc: 0]p: update_non_local_matrix_data: 0.234 [ms]
[OGL LOG][Proc: 0]p: regenerate_distributed_matrix: 257.316 [ms]
[OGL LOG][Proc: 0]p_matrix: call_update: 259.168 [ms]
[OGL LOG][Proc: 0]p_rhs: call_update: 24.069 [ms]
[OGL LOG][Preconditioner.H:346] Generate preconditioner Multigrid MaxLevels 9 MinCoarseRows 10 ZeroGuess 1 Cycle v
[OGL LOG][Proc: 0]p: init_precond: 346.783 [ms]
[OGL LOG][StoppingCriterion.H:239] Creating stopping criterion with minIter 175 frequency 1
[OGL LOG][Proc: 0]p: generate_solver: 0 [ms]
[OGL LOG][Proc: 0]p: solve: 6400.81 [ms]
[OGL LOG][Proc: 0]p: copy_x_back: 10.202 [ms]
[OGL LOG][lduLduBase.H:330] 
Statistics:
	Time per iteration: 21265 [mu s]
	Time per residual norm calculation: 561.000000 [mu s]
	Time per iteration and DOF: 0.332266 [ns]
	Retrieve results bandwidth 1.568000 [GByte/s]
[OGL LOG][Proc: 0]p: solve_multi_gpu: 7066.02 [ms]
MultigridhipGKOCG:  Solving for p, Initial residual = 0.973291, Final residual = 9.84164e-05, No Iterations 301
[INFO] SolveP: 7190.53 [ms]
time step continuity errors : sum local = 3.36867e-08, global = -4.49573e-22, cumulative = 9.49758e-21
[INFO] ContinuityError: 60.001 [ms]
[INFO] CorrectBoundary: 2.734 [ms]
[INFO] PISOStep: 8207.33 [ms]
[INFO] MatrixAssemblyPI: 557.475 [ms]
[INFO] AdjustPhi: 25.438 [ms]
[INFO] ConstrainPressure: 0.003 [ms]
[INFO] MatrixAssemblyPII: 166.937 [ms]
[OGL LOG][Proc: 0]: global_index_init: 0.134 [ms]
[OGL LOG][Proc: 0]p_local_coeffs: call_update: 0 [ms]
[OGL LOG][Proc: 0]p_non_local_coeffs: call_update: 0 [ms]
[OGL LOG][Proc: 0]p: update_local_matrix_data: 83.102 [ms]
[OGL LOG][Proc: 0]p: update_non_local_matrix_data: 0.204 [ms]
[OGL LOG][Proc: 0]p: regenerate_distributed_matrix: 268.323 [ms]
[OGL LOG][Proc: 0]p_matrix: call_update: 269.759 [ms]
[OGL LOG][Proc: 0]p_rhs: call_update: 39.002 [ms]
[OGL LOG][Preconditioner.H:346] Generate preconditioner Multigrid MaxLevels 9 MinCoarseRows 10 ZeroGuess 1 Cycle v
[OGL LOG][Proc: 0]p: init_precond: 345.201 [ms]
[OGL LOG][StoppingCriterion.H:239] Creating stopping criterion with minIter 180 frequency 1
[OGL LOG][Proc: 0]p: generate_solver: 0 [ms]
[OGL LOG][Proc: 0]p: solve: 6466.05 [ms]
[OGL LOG][Proc: 0]p: copy_x_back: 11.604 [ms]
[OGL LOG][lduLduBase.H:330] 
Statistics:
	Time per iteration: 21553 [mu s]
	Time per residual norm calculation: 531.000000 [mu s]
	Time per iteration and DOF: 0.336766 [ns]
	Retrieve results bandwidth 1.378000 [GByte/s]
[OGL LOG][Proc: 0]p: solve_multi_gpu: 7166.56 [ms]
MultigridhipGKOCG:  Solving for p, Initial residual = 0.908625, Final residual = 9.93351e-05, No Iterations 300
[INFO] SolveP: 7269.58 [ms]
time step continuity errors : sum local = 3.44109e-08, global = 1.21302e-21, cumulative = 1.07106e-20
[INFO] ContinuityError: 62.517 [ms]
[INFO] CorrectBoundary: 1.278 [ms]
[INFO] PISOStep: 8269.9 [ms]
[INFO] TimeStep: 20991.6 [ms]
ExecutionTime = 258.87 s  ClockTime = 255 s

Time = 0.001625

Courant Number mean: 0.0373978 max: 1.14774
[INFO] MatrixAssemblyU: 506.507 [ms]
DILUPBiCGStab:  Solving for Ux, Initial residual = 0.0536507, Final residual = 0.00389272, No Iterations 5
DILUPBiCGStab:  Solving for Uy, Initial residual = 0.241858, Final residual = 0.0142132, No Iterations 5
DILUPBiCGStab:  Solving for Uz, Initial residual = 0.723338, Final residual = 0.0369178, No Iterations 5
[INFO] MomentumPredictor: 3936.01 [ms]
[INFO] MatrixAssemblyPI: 574.523 [ms]
[INFO] AdjustPhi: 25.575 [ms]
[INFO] ConstrainPressure: 0.004 [ms]
[INFO] MatrixAssemblyPII: 165.561 [ms]
[OGL LOG][Proc: 0]: global_index_init: 0.077 [ms]
[OGL LOG][Proc: 0]p_local_coeffs: call_update: 0 [ms]
[OGL LOG][Proc: 0]p_non_local_coeffs: call_update: 0 [ms]
[OGL LOG][Proc: 0]p: update_local_matrix_data: 85.755 [ms]
[OGL LOG][Proc: 0]p: update_non_local_matrix_data: 0.198 [ms]
[OGL LOG][Proc: 0]p: regenerate_distributed_matrix: 257.106 [ms]
[OGL LOG][Proc: 0]p_matrix: call_update: 258.781 [ms]
[OGL LOG][Proc: 0]p_rhs: call_update: 46.46 [ms]
[OGL LOG][Preconditioner.H:346] Generate preconditioner Multigrid MaxLevels 9 MinCoarseRows 10 ZeroGuess 1 Cycle v
[OGL LOG][Proc: 0]p: init_precond: 405.647 [ms]
[OGL LOG][StoppingCriterion.H:239] Creating stopping criterion with minIter 180 frequency 1
[OGL LOG][Proc: 0]p: generate_solver: 0 [ms]
[OGL LOG][Proc: 0]p: solve: 6435.94 [ms]
[OGL LOG][Proc: 0]p: copy_x_back: 8.656 [ms]
[OGL LOG][lduLduBase.H:330] 
Statistics:
	Time per iteration: 21240 [mu s]
	Time per residual norm calculation: 532.000000 [mu s]
	Time per iteration and DOF: 0.331875 [ns]
	Retrieve results bandwidth 1.848000 [GByte/s]
[OGL LOG][Proc: 0]p: solve_multi_gpu: 7183.97 [ms]
MultigridhipGKOCG:  Solving for p, Initial residual = 0.976852, Final residual = 9.78501e-05, No Iterations 303
[INFO] SolveP: 7288.88 [ms]
time step continuity errors : sum local = 3.92587e-08, global = -7.03621e-23, cumulative = 1.06402e-20
[INFO] ContinuityError: 61.668 [ms]
[INFO] CorrectBoundary: 1.864 [ms]
[INFO] PISOStep: 8307.33 [ms]
[INFO] MatrixAssemblyPI: 556.91 [ms]
[INFO] AdjustPhi: 27.005 [ms]
[INFO] ConstrainPressure: 0.003 [ms]
[INFO] MatrixAssemblyPII: 165.772 [ms]
[OGL LOG][Proc: 0]: global_index_init: 0.214 [ms]
[OGL LOG][Proc: 0]p_local_coeffs: call_update: 0 [ms]
[OGL LOG][Proc: 0]p_non_local_coeffs: call_update: 0 [ms]
[OGL LOG][Proc: 0]p: update_local_matrix_data: 100.772 [ms]
[OGL LOG][Proc: 0]p: update_non_local_matrix_data: 0.232 [ms]
[OGL LOG][Proc: 0]p: regenerate_distributed_matrix: 270.562 [ms]
[OGL LOG][Proc: 0]p_matrix: call_update: 272.382 [ms]
[OGL LOG][Proc: 0]p_rhs: call_update: 19.19 [ms]
[OGL LOG][Preconditioner.H:346] Generate preconditioner Multigrid MaxLevels 9 MinCoarseRows 10 ZeroGuess 1 Cycle v
[OGL LOG][Proc: 0]p: init_precond: 348.453 [ms]
[OGL LOG][StoppingCriterion.H:239] Creating stopping criterion with minIter 181 frequency 1
[OGL LOG][Proc: 0]p: generate_solver: 0 [ms]
[OGL LOG][Proc: 0]p: solve: 6502.03 [ms]
[OGL LOG][Proc: 0]p: copy_x_back: 11.909 [ms]
[OGL LOG][lduLduBase.H:330] 
Statistics:
	Time per iteration: 21673 [mu s]
	Time per residual norm calculation: 570.000000 [mu s]
	Time per iteration and DOF: 0.338641 [ns]
	Retrieve results bandwidth 1.343000 [GByte/s]
[OGL LOG][Proc: 0]p: solve_multi_gpu: 7165.44 [ms]
MultigridhipGKOCG:  Solving for p, Initial residual = 0.92027, Final residual = 9.42469e-05, No Iterations 300
[INFO] SolveP: 7286.03 [ms]
time step continuity errors : sum local = 3.79012e-08, global = 3.96711e-22, cumulative = 1.1037e-20
[INFO] ContinuityError: 64.767 [ms]
[INFO] CorrectBoundary: 2.684 [ms]
[INFO] PISOStep: 8291.17 [ms]
[INFO] TimeStep: 21103.1 [ms]
ExecutionTime = 280.44 s  ClockTime = 276 s

Time = 0.00175

Courant Number mean: 0.0384594 max: 1.02092
[INFO] MatrixAssemblyU: 511.485 [ms]
DILUPBiCGStab:  Solving for Ux, Initial residual = 0.061317, Final residual = 0.00410864, No Iterations 5
DILUPBiCGStab:  Solving for Uy, Initial residual = 0.252245, Final residual = 0.0136076, No Iterations 5
DILUPBiCGStab:  Solving for Uz, Initial residual = 0.731837, Final residual = 0.0373555, No Iterations 5
[INFO] MomentumPredictor: 3953.67 [ms]
[INFO] MatrixAssemblyPI: 576.182 [ms]
[INFO] AdjustPhi: 23.81 [ms]
[INFO] ConstrainPressure: 0.003 [ms]
[INFO] MatrixAssemblyPII: 167.072 [ms]
[OGL LOG][Proc: 0]: global_index_init: 0.048 [ms]
[OGL LOG][Proc: 0]p_local_coeffs: call_update: 0 [ms]
[OGL LOG][Proc: 0]p_non_local_coeffs: call_update: 0 [ms]
[OGL LOG][Proc: 0]p: update_local_matrix_data: 102.887 [ms]
[OGL LOG][Proc: 0]p: update_non_local_matrix_data: 0.208 [ms]
[OGL LOG][Proc: 0]p: regenerate_distributed_matrix: 263.474 [ms]
[OGL LOG][Proc: 0]p_matrix: call_update: 265.191 [ms]
[OGL LOG][Proc: 0]p_rhs: call_update: 32.732 [ms]
[OGL LOG][Preconditioner.H:346] Generate preconditioner Multigrid MaxLevels 9 MinCoarseRows 10 ZeroGuess 1 Cycle v
[OGL LOG][Proc: 0]p: init_precond: 327.468 [ms]
[OGL LOG][StoppingCriterion.H:239] Creating stopping criterion with minIter 180 frequency 1
[OGL LOG][Proc: 0]p: generate_solver: 0 [ms]
[OGL LOG][Proc: 0]p: solve: 6367.65 [ms]
[OGL LOG][Proc: 0]p: copy_x_back: 8.683 [ms]
[OGL LOG][lduLduBase.H:330] 
Statistics:
	Time per iteration: 21439 [mu s]
	Time per residual norm calculation: 9380.000000 [mu s]
	Time per iteration and DOF: 0.334984 [ns]
	Retrieve results bandwidth 1.842000 [GByte/s]
[OGL LOG][Proc: 0]p: solve_multi_gpu: 7025.57 [ms]
MultigridhipGKOCG:  Solving for p, Initial residual = 0.977539, Final residual = 9.74771e-05, No Iterations 297
[INFO] SolveP: 7148.56 [ms]
time step continuity errors : sum local = 4.6038e-08, global = 7.10341e-23, cumulative = 1.1108e-20
[INFO] ContinuityError: 53.97 [ms]
[INFO] CorrectBoundary: 0.977 [ms]
[INFO] PISOStep: 8163.76 [ms]
[INFO] MatrixAssemblyPI: 557.974 [ms]
[INFO] AdjustPhi: 25.245 [ms]
[INFO] ConstrainPressure: 0.004 [ms]
[INFO] MatrixAssemblyPII: 166.326 [ms]
[OGL LOG][Proc: 0]: global_index_init: 0.073 [ms]
[OGL LOG][Proc: 0]p_local_coeffs: call_update: 0 [ms]
[OGL LOG][Proc: 0]p_non_local_coeffs: call_update: 0 [ms]
[OGL LOG][Proc: 0]p: update_local_matrix_data: 85.985 [ms]
[OGL LOG][Proc: 0]p: update_non_local_matrix_data: 0.218 [ms]
[OGL LOG][Proc: 0]p: regenerate_distributed_matrix: 271.863 [ms]
[OGL LOG][Proc: 0]p_matrix: call_update: 273.514 [ms]
[OGL LOG][Proc: 0]p_rhs: call_update: 25.517 [ms]
[OGL LOG][Preconditioner.H:346] Generate preconditioner Multigrid MaxLevels 9 MinCoarseRows 10 ZeroGuess 1 Cycle v
[OGL LOG][Proc: 0]p: init_precond: 364.382 [ms]
[OGL LOG][StoppingCriterion.H:239] Creating stopping criterion with minIter 178 frequency 7
[OGL LOG][Proc: 0]p: generate_solver: 0 [ms]
[OGL LOG][Proc: 0]p: solve: 6398.45 [ms]
[OGL LOG][Proc: 0]p: copy_x_back: 7.79 [ms]
[OGL LOG][lduLduBase.H:330] 
Statistics:
	Time per iteration: 21186 [mu s]
	Time per residual norm calculation: 550.000000 [mu s]
	Time per iteration and DOF: 0.331031 [ns]
	Retrieve results bandwidth 2.053000 [GByte/s]
[OGL LOG][Proc: 0]p: solve_multi_gpu: 7102.69 [ms]
MultigridhipGKOCG:  Solving for p, Initial residual = 0.912685, Final residual = 6.9389e-05, No Iterations 302
[INFO] SolveP: 7210.26 [ms]
time step continuity errors : sum local = 3.31338e-08, global = 5.49429e-22, cumulative = 1.16574e-20
[INFO] ContinuityError: 60.91 [ms]
[INFO] CorrectBoundary: 1.11 [ms]
[INFO] PISOStep: 8209.52 [ms]
[INFO] TimeStep: 20901.8 [ms]
ExecutionTime = 301.81 s  ClockTime = 297 s

Time = 0.001875

Courant Number mean: 0.0399219 max: 1.68234
[INFO] MatrixAssemblyU: 504.492 [ms]
DILUPBiCGStab:  Solving for Ux, Initial residual = 0.0683452, Final residual = 0.00423055, No Iterations 5
DILUPBiCGStab:  Solving for Uy, Initial residual = 0.284181, Final residual = 0.0149644, No Iterations 5
DILUPBiCGStab:  Solving for Uz, Initial residual = 0.737075, Final residual = 0.0366719, No Iterations 5
[INFO] MomentumPredictor: 3945.68 [ms]
[INFO] MatrixAssemblyPI: 575.516 [ms]
[INFO] AdjustPhi: 24.82 [ms]
[INFO] ConstrainPressure: 0.003 [ms]
[INFO] MatrixAssemblyPII: 166.439 [ms]
[OGL LOG][Proc: 0]: global_index_init: 0.105 [ms]
[OGL LOG][Proc: 0]p_local_coeffs: call_update: 0 [ms]
[OGL LOG][Proc: 0]p_non_local_coeffs: call_update: 0 [ms]
[OGL LOG][Proc: 0]p: update_local_matrix_data: 87.853 [ms]
[OGL LOG][Proc: 0]p: update_non_local_matrix_data: 0.213 [ms]
[OGL LOG][Proc: 0]p: regenerate_distributed_matrix: 264.348 [ms]
[OGL LOG][Proc: 0]p_matrix: call_update: 266.082 [ms]
[OGL LOG][Proc: 0]p_rhs: call_update: 28.673 [ms]
[OGL LOG][Preconditioner.H:346] Generate preconditioner Multigrid MaxLevels 9 MinCoarseRows 10 ZeroGuess 1 Cycle v
[OGL LOG][Proc: 0]p: init_precond: 348.371 [ms]
[OGL LOG][StoppingCriterion.H:239] Creating stopping criterion with minIter 181 frequency 1
[OGL LOG][Proc: 0]p: generate_solver: 0 [ms]
[OGL LOG][Proc: 0]p: solve: 6415.11 [ms]
[OGL LOG][Proc: 0]p: copy_x_back: 12.634 [ms]
[OGL LOG][lduLduBase.H:330] 
Statistics:
	Time per iteration: 21312 [mu s]
	Time per residual norm calculation: 536.000000 [mu s]
	Time per iteration and DOF: 0.333000 [ns]
	Retrieve results bandwidth 1.266000 [GByte/s]
[OGL LOG][Proc: 0]p: solve_multi_gpu: 7101.51 [ms]
MultigridhipGKOCG:  Solving for p, Initial residual = 0.979651, Final residual = 9.64386e-05, No Iterations 301
[INFO] SolveP: 7208.95 [ms]
time step continuity errors : sum local = 5.36786e-08, global = 1.04861e-21, cumulative = 1.2706e-20
[INFO] ContinuityError: 60.503 [ms]
[INFO] CorrectBoundary: 1.317 [ms]
[INFO] PISOStep: 8225.26 [ms]
[INFO] MatrixAssemblyPI: 557.264 [ms]
[INFO] AdjustPhi: 26.18 [ms]
[INFO] ConstrainPressure: 0.003 [ms]
[INFO] MatrixAssemblyPII: 166.449 [ms]
[OGL LOG][Proc: 0]: global_index_init: 0.05 [ms]
[OGL LOG][Proc: 0]p_local_coeffs: call_update: 0 [ms]
[OGL LOG][Proc: 0]p_non_local_coeffs: call_update: 0 [ms]
[OGL LOG][Proc: 0]p: update_local_matrix_data: 87.563 [ms]
[OGL LOG][Proc: 0]p: update_non_local_matrix_data: 0.208 [ms]
[OGL LOG][Proc: 0]p: regenerate_distributed_matrix: 260.753 [ms]
[OGL LOG][Proc: 0]p_matrix: call_update: 262.271 [ms]
[OGL LOG][Proc: 0]p_rhs: call_update: 27.788 [ms]
[OGL LOG][Preconditioner.H:346] Generate preconditioner Multigrid MaxLevels 9 MinCoarseRows 10 ZeroGuess 1 Cycle v
[OGL LOG][Proc: 0]p: init_precond: 360.32 [ms]
[OGL LOG][StoppingCriterion.H:239] Creating stopping criterion with minIter 180 frequency 1
[OGL LOG][Proc: 0]p: generate_solver: 0 [ms]
[OGL LOG][Proc: 0]p: solve: 6460.27 [ms]
[OGL LOG][Proc: 0]p: copy_x_back: 11.487 [ms]
[OGL LOG][lduLduBase.H:330] 
Statistics:
	Time per iteration: 21534 [mu s]
	Time per residual norm calculation: 593.000000 [mu s]
	Time per iteration and DOF: 0.336469 [ns]
	Retrieve results bandwidth 1.392000 [GByte/s]
[OGL LOG][Proc: 0]p: solve_multi_gpu: 7151.15 [ms]
MultigridhipGKOCG:  Solving for p, Initial residual = 0.920727, Final residual = 9.85261e-05, No Iterations 300
[INFO] SolveP: 7258.37 [ms]
time step continuity errors : sum local = 5.50633e-08, global = 4.53605e-22, cumulative = 1.31596e-20
[INFO] ContinuityError: 56.147 [ms]
[INFO] CorrectBoundary: 0.811 [ms]
[INFO] PISOStep: 8259.26 [ms]
[INFO] TimeStep: 20997.2 [ms]
ExecutionTime = 323.27 s  ClockTime = 318 s

Time = 0.002

Courant Number mean: 0.0409158 max: 1.7162
[INFO] MatrixAssemblyU: 508.674 [ms]
DILUPBiCGStab:  Solving for Ux, Initial residual = 0.0795878, Final residual = 0.00461629, No Iterations 5
DILUPBiCGStab:  Solving for Uy, Initial residual = 0.30099, Final residual = 0.0148563, No Iterations 5
DILUPBiCGStab:  Solving for Uz, Initial residual = 0.740419, Final residual = 0.0351725, No Iterations 5
[INFO] MomentumPredictor: 3944.25 [ms]
[INFO] MatrixAssemblyPI: 575.308 [ms]
[INFO] AdjustPhi: 26.746 [ms]
[INFO] ConstrainPressure: 0.003 [ms]
[INFO] MatrixAssemblyPII: 167.076 [ms]
[OGL LOG][Proc: 0]: global_index_init: 0.048 [ms]
[OGL LOG][Proc: 0]p_local_coeffs: call_update: 0 [ms]
[OGL LOG][Proc: 0]p_non_local_coeffs: call_update: 0 [ms]
[OGL LOG][Proc: 0]p: update_local_matrix_data: 100.852 [ms]
[OGL LOG][Proc: 0]p: update_non_local_matrix_data: 0.205 [ms]
[OGL LOG][Proc: 0]p: regenerate_distributed_matrix: 270.166 [ms]
[OGL LOG][Proc: 0]p_matrix: call_update: 272.252 [ms]
[OGL LOG][Proc: 0]p_rhs: call_update: 30.211 [ms]
[OGL LOG][Preconditioner.H:346] Generate preconditioner Multigrid MaxLevels 9 MinCoarseRows 10 ZeroGuess 1 Cycle v
[OGL LOG][Proc: 0]p: init_precond: 339.863 [ms]
[OGL LOG][StoppingCriterion.H:239] Creating stopping criterion with minIter 180 frequency 1
[OGL LOG][Proc: 0]p: generate_solver: 0 [ms]
[OGL LOG][Proc: 0]p: solve: 6351.54 [ms]
[OGL LOG][Proc: 0]p: copy_x_back: 8.217 [ms]
[OGL LOG][lduLduBase.H:330] 
Statistics:
	Time per iteration: 21385 [mu s]
	Time per residual norm calculation: 539.000000 [mu s]
	Time per iteration and DOF: 0.334141 [ns]
	Retrieve results bandwidth 1.947000 [GByte/s]
[OGL LOG][Proc: 0]p: solve_multi_gpu: 7015.36 [ms]
MultigridhipGKOCG:  Solving for p, Initial residual = 0.980774, Final residual = 9.69413e-05, No Iterations 297
[INFO] SolveP: 7136.34 [ms]
time step continuity errors : sum local = 6.38877e-08, global = 3.72076e-22, cumulative = 1.35317e-20
[INFO] ContinuityError: 60.95 [ms]
[INFO] CorrectBoundary: 1.547 [ms]
[INFO] PISOStep: 8154.01 [ms]
[INFO] MatrixAssemblyPI: 556.937 [ms]
[INFO] AdjustPhi: 26.601 [ms]
[INFO] ConstrainPressure: 0.003 [ms]
[INFO] MatrixAssemblyPII: 166.142 [ms]
[OGL LOG][Proc: 0]: global_index_init: 0.135 [ms]
[OGL LOG][Proc: 0]p_local_coeffs: call_update: 0 [ms]
[OGL LOG][Proc: 0]p_non_local_coeffs: call_update: 0 [ms]
[OGL LOG][Proc: 0]p: update_local_matrix_data: 89.594 [ms]
[OGL LOG][Proc: 0]p: update_non_local_matrix_data: 0.263 [ms]
[OGL LOG][Proc: 0]p: regenerate_distributed_matrix: 240.566 [ms]
[OGL LOG][Proc: 0]p_matrix: call_update: 242.326 [ms]
[OGL LOG][Proc: 0]p_rhs: call_update: 45.153 [ms]
[OGL LOG][Preconditioner.H:346] Generate preconditioner Multigrid MaxLevels 9 MinCoarseRows 10 ZeroGuess 1 Cycle v
[OGL LOG][Proc: 0]p: init_precond: 361.093 [ms]
[OGL LOG][StoppingCriterion.H:239] Creating stopping criterion with minIter 178 frequency 1
[OGL LOG][Proc: 0]p: generate_solver: 0 [ms]
[OGL LOG][Proc: 0]p: solve: 6386.82 [ms]
[OGL LOG][Proc: 0]p: copy_x_back: 8.611 [ms]
[OGL LOG][lduLduBase.H:330] 
Statistics:
	Time per iteration: 21577 [mu s]
	Time per residual norm calculation: 531.000000 [mu s]
	Time per iteration and DOF: 0.337141 [ns]
	Retrieve results bandwidth 1.858000 [GByte/s]
[OGL LOG][Proc: 0]p: solve_multi_gpu: 7068.01 [ms]
MultigridhipGKOCG:  Solving for p, Initial residual = 0.915727, Final residual = 9.82407e-05, No Iterations 296
[INFO] SolveP: 7181.87 [ms]
time step continuity errors : sum local = 6.53994e-08, global = 1.61475e-21, cumulative = 1.51465e-20
[INFO] ContinuityError: 60.702 [ms]
[INFO] CorrectBoundary: 1.696 [ms]
[INFO] PISOStep: 8181.3 [ms]
[INFO] TimeStep: 20852 [ms]
ExecutionTime = 344.53 s  ClockTime = 338 s

Time = 0.002125

Courant Number mean: 0.0424152 max: 2.5476
[INFO] MatrixAssemblyU: 509.233 [ms]
DILUPBiCGStab:  Solving for Ux, Initial residual = 0.0896416, Final residual = 0.00491652, No Iterations 5
DILUPBiCGStab:  Solving for Uy, Initial residual = 0.335934, Final residual = 0.016288, No Iterations 5
DILUPBiCGStab:  Solving for Uz, Initial residual = 0.744098, Final residual = 0.035244, No Iterations 5
[INFO] MomentumPredictor: 3943.58 [ms]
[INFO] MatrixAssemblyPI: 575.972 [ms]
[INFO] AdjustPhi: 24.202 [ms]
[INFO] ConstrainPressure: 0.003 [ms]
[INFO] MatrixAssemblyPII: 167.043 [ms]
[OGL LOG][Proc: 0]: global_index_init: 0.145 [ms]
[OGL LOG][Proc: 0]p_local_coeffs: call_update: 0 [ms]
[OGL LOG][Proc: 0]p_non_local_coeffs: call_update: 0 [ms]
[OGL LOG][Proc: 0]p: update_local_matrix_data: 98.124 [ms]
[OGL LOG][Proc: 0]p: update_non_local_matrix_data: 0.271 [ms]
[OGL LOG][Proc: 0]p: regenerate_distributed_matrix: 255.624 [ms]
[OGL LOG][Proc: 0]p_matrix: call_update: 258.96 [ms]
[OGL LOG][Proc: 0]p_rhs: call_update: 27.305 [ms]
[OGL LOG][Preconditioner.H:346] Generate preconditioner Multigrid MaxLevels 9 MinCoarseRows 10 ZeroGuess 1 Cycle v
[OGL LOG][Proc: 0]p: init_precond: 343.801 [ms]
[OGL LOG][StoppingCriterion.H:239] Creating stopping criterion with minIter 177 frequency 1
[OGL LOG][Proc: 0]p: generate_solver: 0 [ms]
[OGL LOG][Proc: 0]p: solve: 6449.82 [ms]
[OGL LOG][Proc: 0]p: copy_x_back: 9.837 [ms]
[OGL LOG][lduLduBase.H:330] 
Statistics:
	Time per iteration: 21357 [mu s]
	Time per residual norm calculation: 533.000000 [mu s]
	Time per iteration and DOF: 0.333703 [ns]
	Retrieve results bandwidth 1.626000 [GByte/s]
[OGL LOG][Proc: 0]p: solve_multi_gpu: 7110.98 [ms]
MultigridhipGKOCG:  Solving for p, Initial residual = 0.981848, Final residual = 9.22243e-05, No Iterations 302
[INFO] SolveP: 7231.72 [ms]
time step continuity errors : sum local = 7.22101e-08, global = 6.2752e-22, cumulative = 1.5774e-20
[INFO] ContinuityError: 60.031 [ms]
[INFO] CorrectBoundary: 0.862 [ms]
[INFO] PISOStep: 8246.16 [ms]
[INFO] MatrixAssemblyPI: 557.891 [ms]
[INFO] AdjustPhi: 26.149 [ms]
[INFO] ConstrainPressure: 0.003 [ms]
[INFO] MatrixAssemblyPII: 166.253 [ms]
[OGL LOG][Proc: 0]: global_index_init: 0.164 [ms]
[OGL LOG][Proc: 0]p_local_coeffs: call_update: 0 [ms]
[OGL LOG][Proc: 0]p_non_local_coeffs: call_update: 0 [ms]
[OGL LOG][Proc: 0]p: update_local_matrix_data: 81.277 [ms]
[OGL LOG][Proc: 0]p: update_non_local_matrix_data: 0.276 [ms]
[OGL LOG][Proc: 0]p: regenerate_distributed_matrix: 253.372 [ms]
[OGL LOG][Proc: 0]p_matrix: call_update: 255.178 [ms]
[OGL LOG][Proc: 0]p_rhs: call_update: 29.55 [ms]
[OGL LOG][Preconditioner.H:346] Generate preconditioner Multigrid MaxLevels 9 MinCoarseRows 10 ZeroGuess 1 Cycle v
[OGL LOG][Proc: 0]p: init_precond: 359.874 [ms]
[OGL LOG][StoppingCriterion.H:239] Creating stopping criterion with minIter 181 frequency 1
[OGL LOG][Proc: 0]p: generate_solver: 0 [ms]
[OGL LOG][Proc: 0]p: solve: 6421.31 [ms]
[OGL LOG][Proc: 0]p: copy_x_back: 11.877 [ms]
[OGL LOG][lduLduBase.H:330] 
Statistics:
	Time per iteration: 21333 [mu s]
	Time per residual norm calculation: 529.000000 [mu s]
	Time per iteration and DOF: 0.333328 [ns]
	Retrieve results bandwidth 1.347000 [GByte/s]
[OGL LOG][Proc: 0]p: solve_multi_gpu: 7114.19 [ms]
MultigridhipGKOCG:  Solving for p, Initial residual = 0.920772, Final residual = 9.58008e-05, No Iterations 301
[INFO] SolveP: 7215.56 [ms]
time step continuity errors : sum local = 7.53977e-08, global = 7.36449e-22, cumulative = 1.65104e-20
[INFO] ContinuityError: 59.481 [ms]
[INFO] CorrectBoundary: 1.647 [ms]
[INFO] PISOStep: 8216.32 [ms]
[INFO] TimeStep: 20976.7 [ms]
ExecutionTime = 365.96 s  ClockTime = 359 s

Time = 0.00225

Courant Number mean: 0.0434218 max: 2.85565
[INFO] MatrixAssemblyU: 509.493 [ms]
DILUPBiCGStab:  Solving for Ux, Initial residual = 0.106177, Final residual = 0.00560977, No Iterations 5
DILUPBiCGStab:  Solving for Uy, Initial residual = 0.358736, Final residual = 0.0165137, No Iterations 5
DILUPBiCGStab:  Solving for Uz, Initial residual = 0.748509, Final residual = 0.0348465, No Iterations 5
[INFO] MomentumPredictor: 3944.39 [ms]
[INFO] MatrixAssemblyPI: 575.492 [ms]
[INFO] AdjustPhi: 24.548 [ms]
[INFO] ConstrainPressure: 0.003 [ms]
[INFO] MatrixAssemblyPII: 166.61 [ms]
[OGL LOG][Proc: 0]: global_index_init: 0.282 [ms]
[OGL LOG][Proc: 0]p_local_coeffs: call_update: 0 [ms]
[OGL LOG][Proc: 0]p_non_local_coeffs: call_update: 0 [ms]
[OGL LOG][Proc: 0]p: update_local_matrix_data: 91.437 [ms]
[OGL LOG][Proc: 0]p: update_non_local_matrix_data: 0.256 [ms]
[OGL LOG][Proc: 0]p: regenerate_distributed_matrix: 248.998 [ms]
[OGL LOG][Proc: 0]p_matrix: call_update: 250.782 [ms]
[OGL LOG][Proc: 0]p_rhs: call_update: 52.924 [ms]
[OGL LOG][Preconditioner.H:346] Generate preconditioner Multigrid MaxLevels 9 MinCoarseRows 10 ZeroGuess 1 Cycle v
[OGL LOG][Proc: 0]p: init_precond: 363.92 [ms]
[OGL LOG][StoppingCriterion.H:239] Creating stopping criterion with minIter 180 frequency 1
[OGL LOG][Proc: 0]p: generate_solver: 0 [ms]
[OGL LOG][Proc: 0]p: solve: 6213.67 [ms]
[OGL LOG][Proc: 0]p: copy_x_back: 8.706 [ms]
[OGL LOG][lduLduBase.H:330] 
Statistics:
	Time per iteration: 21279 [mu s]
	Time per residual norm calculation: 610.000000 [mu s]
	Time per iteration and DOF: 0.332484 [ns]
	Retrieve results bandwidth 1.837000 [GByte/s]
[OGL LOG][Proc: 0]p: solve_multi_gpu: 6909.43 [ms]
MultigridhipGKOCG:  Solving for p, Initial residual = 0.983055, Final residual = 9.25197e-05, No Iterations 292
[INFO] SolveP: 7020.9 [ms]
time step continuity errors : sum local = 8.64077e-08, global = -9.12484e-22, cumulative = 1.55979e-20
[INFO] ContinuityError: 66.315 [ms]
[INFO] CorrectBoundary: 0.929 [ms]
[INFO] PISOStep: 8038.29 [ms]
[INFO] MatrixAssemblyPI: 559.272 [ms]
[INFO] AdjustPhi: 24.271 [ms]
[INFO] ConstrainPressure: 0.003 [ms]
[INFO] MatrixAssemblyPII: 166.942 [ms]
[OGL LOG][Proc: 0]: global_index_init: 0.051 [ms]
[OGL LOG][Proc: 0]p_local_coeffs: call_update: 0 [ms]
[OGL LOG][Proc: 0]p_non_local_coeffs: call_update: 0 [ms]
[OGL LOG][Proc: 0]p: update_local_matrix_data: 93.641 [ms]
[OGL LOG][Proc: 0]p: update_non_local_matrix_data: 0.203 [ms]
[OGL LOG][Proc: 0]p: regenerate_distributed_matrix: 258.583 [ms]
[OGL LOG][Proc: 0]p_matrix: call_update: 260.386 [ms]
[OGL LOG][Proc: 0]p_rhs: call_update: 36.858 [ms]
[OGL LOG][Preconditioner.H:346] Generate preconditioner Multigrid MaxLevels 9 MinCoarseRows 10 ZeroGuess 1 Cycle v
[OGL LOG][Proc: 0]p: init_precond: 389.694 [ms]
[OGL LOG][StoppingCriterion.H:239] Creating stopping criterion with minIter 175 frequency 1
[OGL LOG][Proc: 0]p: generate_solver: 0 [ms]
[OGL LOG][Proc: 0]p: solve: 6183.03 [ms]
[OGL LOG][Proc: 0]p: copy_x_back: 11.885 [ms]
[OGL LOG][lduLduBase.H:330] 
Statistics:
	Time per iteration: 21174 [mu s]
	Time per residual norm calculation: 526.000000 [mu s]
	Time per iteration and DOF: 0.330844 [ns]
	Retrieve results bandwidth 1.346000 [GByte/s]
[OGL LOG][Proc: 0]p: solve_multi_gpu: 6896.39 [ms]
MultigridhipGKOCG:  Solving for p, Initial residual = 0.917777, Final residual = 9.29092e-05, No Iterations 292
[INFO] SolveP: 7009.67 [ms]
time step continuity errors : sum local = 8.75957e-08, global = 5.01271e-22, cumulative = 1.60992e-20
[INFO] ContinuityError: 68.451 [ms]
[INFO] CorrectBoundary: 2.334 [ms]
[INFO] PISOStep: 8012.66 [ms]
[INFO] TimeStep: 20567.1 [ms]
ExecutionTime = 386.94 s  ClockTime = 380 s

Time = 0.002375

Courant Number mean: 0.0450416 max: 3.95799
[INFO] MatrixAssemblyU: 514.19 [ms]
DILUPBiCGStab:  Solving for Ux, Initial residual = 0.119806, Final residual = 0.00601442, No Iterations 5
DILUPBiCGStab:  Solving for Uy, Initial residual = 0.394976, Final residual = 0.0180079, No Iterations 5
DILUPBiCGStab:  Solving for Uz, Initial residual = 0.750361, Final residual = 0.0348333, No Iterations 5
[INFO] MomentumPredictor: 3944.34 [ms]
[INFO] MatrixAssemblyPI: 575.656 [ms]
[INFO] AdjustPhi: 24.954 [ms]
[INFO] ConstrainPressure: 0.003 [ms]
[INFO] MatrixAssemblyPII: 166.789 [ms]
[OGL LOG][Proc: 0]: global_index_init: 0.147 [ms]
[OGL LOG][Proc: 0]p_local_coeffs: call_update: 0 [ms]
[OGL LOG][Proc: 0]p_non_local_coeffs: call_update: 0 [ms]
[OGL LOG][Proc: 0]p: update_local_matrix_data: 99.584 [ms]
[OGL LOG][Proc: 0]p: update_non_local_matrix_data: 0.221 [ms]
[OGL LOG][Proc: 0]p: regenerate_distributed_matrix: 275.67 [ms]
[OGL LOG][Proc: 0]p_matrix: call_update: 277.459 [ms]
[OGL LOG][Proc: 0]p_rhs: call_update: 34.892 [ms]
[OGL LOG][Preconditioner.H:346] Generate preconditioner Multigrid MaxLevels 9 MinCoarseRows 10 ZeroGuess 1 Cycle v
[OGL LOG][Proc: 0]p: init_precond: 365.678 [ms]
[OGL LOG][StoppingCriterion.H:239] Creating stopping criterion with minIter 175 frequency 1
[OGL LOG][Proc: 0]p: generate_solver: 0 [ms]
[OGL LOG][Proc: 0]p: solve: 6395.63 [ms]
[OGL LOG][Proc: 0]p: copy_x_back: 10.519 [ms]
[OGL LOG][lduLduBase.H:330] 
Statistics:
	Time per iteration: 21318 [mu s]
	Time per residual norm calculation: 546.000000 [mu s]
	Time per iteration and DOF: 0.333094 [ns]
	Retrieve results bandwidth 1.521000 [GByte/s]
[OGL LOG][Proc: 0]p: solve_multi_gpu: 7112.05 [ms]
MultigridhipGKOCG:  Solving for p, Initial residual = 0.983494, Final residual = 9.91487e-05, No Iterations 300
[INFO] SolveP: 7231.4 [ms]
time step continuity errors : sum local = 1.10866e-07, global = 1.6052e-21, cumulative = 1.77044e-20
[INFO] ContinuityError: 56.382 [ms]
[INFO] CorrectBoundary: 1.159 [ms]
[INFO] PISOStep: 8247.46 [ms]
[INFO] MatrixAssemblyPI: 558.854 [ms]
[INFO] AdjustPhi: 24.821 [ms]
[INFO] ConstrainPressure: 0.003 [ms]
[INFO] MatrixAssemblyPII: 160.955 [ms]
[OGL LOG][Proc: 0]: global_index_init: 0.128 [ms]
[OGL LOG][Proc: 0]p_local_coeffs: call_update: 0 [ms]
[OGL LOG][Proc: 0]p_non_local_coeffs: call_update: 0 [ms]
[OGL LOG][Proc: 0]p: update_local_matrix_data: 87.338 [ms]
[OGL LOG][Proc: 0]p: update_non_local_matrix_data: 0.223 [ms]
[OGL LOG][Proc: 0]p: regenerate_distributed_matrix: 290.29 [ms]
[OGL LOG][Proc: 0]p_matrix: call_update: 291.911 [ms]
[OGL LOG][Proc: 0]p_rhs: call_update: 25.611 [ms]
[OGL LOG][Preconditioner.H:346] Generate preconditioner Multigrid MaxLevels 9 MinCoarseRows 10 ZeroGuess 1 Cycle v
[OGL LOG][Proc: 0]p: init_precond: 369.14 [ms]
[OGL LOG][StoppingCriterion.H:239] Creating stopping criterion with minIter 180 frequency 1
[OGL LOG][Proc: 0]p: generate_solver: 0 [ms]
[OGL LOG][Proc: 0]p: solve: 6340.87 [ms]
[OGL LOG][Proc: 0]p: copy_x_back: 8.607 [ms]
[OGL LOG][lduLduBase.H:330] 
Statistics:
	Time per iteration: 21206 [mu s]
	Time per residual norm calculation: 580.000000 [mu s]
	Time per iteration and DOF: 0.331344 [ns]
	Retrieve results bandwidth 1.858000 [GByte/s]
[OGL LOG][Proc: 0]p: solve_multi_gpu: 7076.78 [ms]
MultigridhipGKOCG:  Solving for p, Initial residual = 0.920996, Final residual = 9.98895e-05, No Iterations 299
[INFO] SolveP: 7185.5 [ms]
time step continuity errors : sum local = 1.12392e-07, global = -2.25665e-22, cumulative = 1.74787e-20
[INFO] ContinuityError: 63.341 [ms]
[INFO] CorrectBoundary: 1.404 [ms]
[INFO] PISOStep: 8186.43 [ms]
[INFO] TimeStep: 20954.4 [ms]
ExecutionTime = 408.3 s  ClockTime = 401 s

Time = 0.0025

Courant Number mean: 0.0461666 max: 4.70218
[INFO] MatrixAssemblyU: 510.938 [ms]
DILUPBiCGStab:  Solving for Ux, Initial residual = 0.142414, Final residual = 0.00679257, No Iterations 5
DILUPBiCGStab:  Solving for Uy, Initial residual = 0.422411, Final residual = 0.0185266, No Iterations 5
DILUPBiCGStab:  Solving for Uz, Initial residual = 0.753084, Final residual = 0.0344568, No Iterations 5
[INFO] MomentumPredictor: 3959.42 [ms]
[INFO] MatrixAssemblyPI: 574.489 [ms]
[INFO] AdjustPhi: 25.148 [ms]
[INFO] ConstrainPressure: 0.003 [ms]
[INFO] MatrixAssemblyPII: 165.845 [ms]
[OGL LOG][Proc: 0]: global_index_init: 1.787 [ms]
[OGL LOG][Proc: 0]p_local_coeffs: call_update: 0 [ms]
[OGL LOG][Proc: 0]p_non_local_coeffs: call_update: 0 [ms]
[OGL LOG][Proc: 0]p: update_local_matrix_data: 96.193 [ms]
[OGL LOG][Proc: 0]p: update_non_local_matrix_data: 0.277 [ms]
[OGL LOG][Proc: 0]p: regenerate_distributed_matrix: 255.289 [ms]
[OGL LOG][Proc: 0]p_matrix: call_update: 257.091 [ms]
[OGL LOG][Proc: 0]p_rhs: call_update: 40.457 [ms]
[OGL LOG][Preconditioner.H:346] Generate preconditioner Multigrid MaxLevels 9 MinCoarseRows 10 ZeroGuess 1 Cycle v
[OGL LOG][Proc: 0]p: init_precond: 369.933 [ms]
[OGL LOG][StoppingCriterion.H:239] Creating stopping criterion with minIter 179 frequency 1
[OGL LOG][Proc: 0]p: generate_solver: 0 [ms]
[OGL LOG][Proc: 0]p: solve: 6416.78 [ms]
[OGL LOG][Proc: 0]p: copy_x_back: 11.838 [ms]
[OGL LOG][lduLduBase.H:330] 
Statistics:
	Time per iteration: 21318 [mu s]
	Time per residual norm calculation: 538.000000 [mu s]
	Time per iteration and DOF: 0.333094 [ns]
	Retrieve results bandwidth 1.351000 [GByte/s]
[OGL LOG][Proc: 0]p: solve_multi_gpu: 7110.04 [ms]
MultigridhipGKOCG:  Solving for p, Initial residual = 0.98437, Final residual = 9.8791e-05, No Iterations 301
[INFO] SolveP: 7227.4 [ms]
time step continuity errors : sum local = 1.32504e-07, global = 3.33519e-21, cumulative = 2.08139e-20
[INFO] ContinuityError: 59.982 [ms]
[INFO] CorrectBoundary: 2.327 [ms]
[INFO] PISOStep: 8242.32 [ms]
[INFO] MatrixAssemblyPI: 558.744 [ms]
[INFO] AdjustPhi: 24.341 [ms]
[INFO] ConstrainPressure: 0.003 [ms]
[INFO] MatrixAssemblyPII: 165.668 [ms]
[OGL LOG][Proc: 0]: global_index_init: 0.13 [ms]
[OGL LOG][Proc: 0]p_local_coeffs: call_update: 0 [ms]
[OGL LOG][Proc: 0]p_non_local_coeffs: call_update: 0 [ms]
[OGL LOG][Proc: 0]p: update_local_matrix_data: 104.397 [ms]
[OGL LOG][Proc: 0]p: update_non_local_matrix_data: 0.219 [ms]
[OGL LOG][Proc: 0]p: regenerate_distributed_matrix: 270.612 [ms]
[OGL LOG][Proc: 0]p_matrix: call_update: 272.278 [ms]
[OGL LOG][Proc: 0]p_rhs: call_update: 22.038 [ms]
[OGL LOG][Preconditioner.H:346] Generate preconditioner Multigrid MaxLevels 9 MinCoarseRows 10 ZeroGuess 1 Cycle v
[OGL LOG][Proc: 0]p: init_precond: 362.613 [ms]
[OGL LOG][StoppingCriterion.H:239] Creating stopping criterion with minIter 180 frequency 1
[OGL LOG][Proc: 0]p: generate_solver: 0 [ms]
[OGL LOG][Proc: 0]p: solve: 6397.36 [ms]
[OGL LOG][Proc: 0]p: copy_x_back: 11.054 [ms]
[OGL LOG][lduLduBase.H:330] 
Statistics:
	Time per iteration: 21253 [mu s]
	Time per residual norm calculation: 536.000000 [mu s]
	Time per iteration and DOF: 0.332078 [ns]
	Retrieve results bandwidth 1.447000 [GByte/s]
[OGL LOG][Proc: 0]p: solve_multi_gpu: 7082.04 [ms]
MultigridhipGKOCG:  Solving for p, Initial residual = 0.919135, Final residual = 9.62688e-05, No Iterations 301
[INFO] SolveP: 7206.52 [ms]
time step continuity errors : sum local = 1.3033e-07, global = 1.11773e-22, cumulative = 2.09257e-20
[INFO] ContinuityError: 60.116 [ms]
[INFO] CorrectBoundary: 1.241 [ms]
[INFO] PISOStep: 8205.05 [ms]
[INFO] TimeStep: 20979.3 [ms]
ExecutionTime = 429.71 s  ClockTime = 422 s

End

Finalising parallel run
