/*---------------------------------------------------------------------------*\
| =========                 |                                                 |
| \\      /  F ield         | OpenFOAM: The Open Source CFD Toolbox           |
|  \\    /   O peration     | Version:  2306                                  |
|   \\  /    A nd           | Website:  www.openfoam.com                      |
|    \\/     M anipulation  |                                                 |
\*---------------------------------------------------------------------------*/
Build  : c423ebec-20231012 OPENFOAM=2306 version=v2306
Arch   : "LSB;label=32;scalar=64"
Exec   : icoFoam -parallel -case /hkfs/work/workspace/scratch/eq4036-l3d/workspace/87e447ac8db9a473a6b742d9f6111523/case
Date   : Jan 10 2024
Time   : 21:59:51
Host   : hkn0628.localdomain
PID    : 1606955
I/O    : uncollated
Case   : /hkfs/work/workspace/scratch/eq4036-l3d/workspace/87e447ac8db9a473a6b742d9f6111523/case
nProcs : 4
Hosts  :
(
    (hkn0628.localdomain 4)
)
Pstream initialized with:
    floatTransfer      : false
    nProcsSimpleSum    : 0
    nonBlockingExchange: 0 (tuning: 0)
    exchange algorithm : -1
    commsType          : nonBlocking
    polling iterations : 0
trapFpe: Floating point exception trapping enabled (FOAM_SIGFPE).
fileModificationChecking : Monitoring run-time modified files using timeStampMaster (fileModificationSkew 5, maxFileModificationPolls 20)
allowSystemOperations : Allowing user-supplied system call operations

// * * * * * * * * * * * * * * * * * * * * * * * * * * * * * * * * * * * * * //
Create time

--> FOAM Warning : 
    From void* Foam::dlLibraryTable::openLibrary(const Foam::fileName&, bool)
    in file db/dynamicLibrary/dlLibraryTable/dlLibraryTable.C at line 188
    Could not load "libpetscFoam.so"
libpetscFoam.so: cannot open shared object file: No such file or directory
Create mesh for time = 0


PISO: Operating solver in PISO mode

Reading transportProperties

Reading field p

Reading field U

Reading/calculating face flux field phi


Starting time loop

Time = 0.0005

Courant Number mean: 8.62851e-18 max: 8.67362e-15
[INFO] MatrixAssemblyU: 45.003 [ms]
DILUPBiCGStab:  Solving for Ux, Initial residual = 1, Final residual = 0.00219478, No Iterations 5
DILUPBiCGStab:  Solving for Uy:  solution singularity
DILUPBiCGStab:  Solving for Uz:  solution singularity
[INFO] MomentumPredictor: 165.102 [ms]
[INFO] MatrixAssemblyPI: 43.827 [ms]
[INFO] AdjustPhi: 1.955 [ms]
[INFO] ConstrainPressure: 0.004 [ms]
[INFO] MatrixAssemblyPII: 12.792 [ms]
[OGL LOG][lduLduBase.H:119] Initialising OGL
	OGL commit:  e75313f+
	Branch: dev 
	Build type: Debug
	Ginkgo version: 1.8.0 ( develop)
	Ginkgo commit: sparse-communicator
	MPI is GPU aware: 1
	Forces host buffer based communication: 0
	CPU ranks per GPU: 1
	Matrix format: Ell
	End OGL_INFO
[OGL LOG][Proc: 0]: global_index_init: 0.062 [ms]
[OGL LOG][Proc: 0]p_local_cols: call_init: 0.573 [ms]
[OGL LOG][Proc: 0]p_local_rows: call_init: 0.458 [ms]
[OGL LOG][Proc: 0]p_local_ldu_map: call_init: 0.144 [ms]
[OGL LOG][Proc: 0]p_local_coeffs: call_init: 3.333 [ms]
[OGL LOG][Proc: 0]p_non_local_cols: call_init: 0.219 [ms]
[OGL LOG][Proc: 0]p_non_local_rows: call_init: 0.149 [ms]
[OGL LOG][Proc: 0]p_non_local_ldu_map: call_init: 0.219 [ms]
[OGL LOG][Proc: 0]p_non_local_coeffs: call_init: 0.145 [ms]
[OGL LOG][Proc: 0]p: init_local_sparsity_pattern: 6070.68 [ms]
[OGL LOG][Proc: 0]p: init_non_local_sparsity_pattern: 47.134 [ms]
[OGL LOG][Proc: 0]p: update_local_matrix_data: 154.655 [ms]
[OGL LOG][Proc: 0]p: update_non_local_matrix_data: 0.381 [ms]
[OGL LOG][Proc: 0]device_partition: call_init: 1.199 [ms]
[OGL LOG][Proc: 0]p_matrix: call_init: 21.67 [ms]
[OGL LOG][Proc: 0]p_rhs: call_init: 0.407 [ms]
[OGL LOG][Proc: 0]p_solution: call_init: 0.648 [ms]
[OGL LOG][Proc: 0]p: init_precond: 0.18 [ms]
[OGL LOG][StoppingCriterion.H:239] Creating stopping criterion with minIter 0 frequency 1
[OGL LOG][Proc: 0]p: generate_solver: 0.513 [ms]
[OGL LOG][Proc: 0]p: solve: 2067 [ms]
[OGL LOG][Proc: 0]p: copy_x_back: 0.956 [ms]
[OGL LOG][lduLduBase.H:330] 
Statistics:
	Time per iteration: 2603 [mu s]
	Time per residual norm calculation: 5317.000000 [mu s]
	Time per iteration and DOF: 2.603000 [ns]
	Retrieve results bandwidth 2.092000 [GByte/s]
[OGL LOG][Proc: 0]p: solve_multi_gpu: 2095.8 [ms]
nonecudaGKOCG:  Solving for p, Initial residual = 1, Final residual = 9.71008e-05, No Iterations 794
[INFO] SolveP: 9093.91 [ms]
time step continuity errors : sum local = 2.05487e-08, global = -3.33362e-21, cumulative = -3.33362e-21
[INFO] ContinuityError: 5.434 [ms]
[INFO] CorrectBoundary: 0.342 [ms]
[INFO] PISOStep: 9175.18 [ms]
[INFO] MatrixAssemblyPI: 38.151 [ms]
[INFO] AdjustPhi: 1.8 [ms]
[INFO] ConstrainPressure: 0.001 [ms]
[INFO] MatrixAssemblyPII: 12.629 [ms]
[OGL LOG][Proc: 0]: global_index_init: 0.023 [ms]
[OGL LOG][Proc: 0]p_local_coeffs: call_update: 0.001 [ms]
[OGL LOG][Proc: 0]p_non_local_coeffs: call_update: 0 [ms]
[OGL LOG][Proc: 0]p: update_local_matrix_data: 7.053 [ms]
[OGL LOG][Proc: 0]p: update_non_local_matrix_data: 0.323 [ms]
[OGL LOG][Proc: 0]p: regenerate_distributed_matrix: 28.3 [ms]
[OGL LOG][Proc: 0]p_matrix: call_update: 51.16 [ms]
[OGL LOG][Proc: 0]p_rhs: call_update: 0.515 [ms]
[OGL LOG][Proc: 0]p: init_precond: 0.057 [ms]
[OGL LOG][StoppingCriterion.H:239] Creating stopping criterion with minIter 0 frequency 1
[OGL LOG][Proc: 0]p: generate_solver: 0.03 [ms]
[OGL LOG][Proc: 0]p: solve: 315.424 [ms]
[OGL LOG][Proc: 0]p: copy_x_back: 0.585 [ms]
[OGL LOG][lduLduBase.H:330] 
Statistics:
	Time per iteration: 403 [mu s]
	Time per residual norm calculation: 129.000000 [mu s]
	Time per iteration and DOF: 0.403000 [ns]
	Retrieve results bandwidth 3.418000 [GByte/s]
[OGL LOG][Proc: 0]p: solve_multi_gpu: 369.031 [ms]
nonecudaGKOCG:  Solving for p, Initial residual = 0.729634, Final residual = 9.93919e-05, No Iterations 782
[INFO] SolveP: 378.24 [ms]
time step continuity errors : sum local = 2.78654e-08, global = -1.16098e-21, cumulative = -4.4946e-21
[INFO] ContinuityError: 4.631 [ms]
[INFO] CorrectBoundary: 0.161 [ms]
[INFO] PISOStep: 449.81 [ms]
[INFO] TimeStep: 9841.71 [ms]
ExecutionTime = 9.6 s  ClockTime = 10 s

Time = 0.001

Courant Number mean: 0.0215477 max: 0.377117
[INFO] MatrixAssemblyU: 33.068 [ms]
DILUPBiCGStab:  Solving for Ux, Initial residual = 0.15039, Final residual = 0.000954846, No Iterations 5
DILUPBiCGStab:  Solving for Uy, Initial residual = 0.368081, Final residual = 0.00158139, No Iterations 5
DILUPBiCGStab:  Solving for Uz, Initial residual = 0.988658, Final residual = 0.00437291, No Iterations 5
[INFO] MomentumPredictor: 290.163 [ms]
[INFO] MatrixAssemblyPI: 36.28 [ms]
[INFO] AdjustPhi: 1.766 [ms]
[INFO] ConstrainPressure: 0.003 [ms]
[INFO] MatrixAssemblyPII: 11.293 [ms]
[OGL LOG][Proc: 0]: global_index_init: 0.013 [ms]
[OGL LOG][Proc: 0]p_local_coeffs: call_update: 0 [ms]
[OGL LOG][Proc: 0]p_non_local_coeffs: call_update: 0 [ms]
[OGL LOG][Proc: 0]p: update_local_matrix_data: 6.675 [ms]
[OGL LOG][Proc: 0]p: update_non_local_matrix_data: 0.275 [ms]
[OGL LOG][Proc: 0]p: regenerate_distributed_matrix: 25.796 [ms]
[OGL LOG][Proc: 0]p_matrix: call_update: 26.4 [ms]
[OGL LOG][Proc: 0]p_rhs: call_update: 0.341 [ms]
[OGL LOG][Proc: 0]p: init_precond: 0.027 [ms]
[OGL LOG][StoppingCriterion.H:239] Creating stopping criterion with minIter 469 frequency 10
[OGL LOG][Proc: 0]p: generate_solver: 0.026 [ms]
[OGL LOG][Proc: 0]p: solve: 210.523 [ms]
[OGL LOG][Proc: 0]p: copy_x_back: 0.588 [ms]
[OGL LOG][lduLduBase.H:330] 
Statistics:
	Time per iteration: 269 [mu s]
	Time per residual norm calculation: 130.000000 [mu s]
	Time per iteration and DOF: 0.269000 [ns]
	Retrieve results bandwidth 3.401000 [GByte/s]
[OGL LOG][Proc: 0]p: solve_multi_gpu: 239.116 [ms]
nonecudaGKOCG:  Solving for p, Initial residual = 0.687245, Final residual = 7.58612e-05, No Iterations 781
[INFO] SolveP: 247.757 [ms]
time step continuity errors : sum local = 2.38036e-08, global = -1.41863e-21, cumulative = -5.91323e-21
[INFO] ContinuityError: 4.518 [ms]
[INFO] CorrectBoundary: 0.11 [ms]
[INFO] PISOStep: 315.901 [ms]
[INFO] MatrixAssemblyPI: 35.209 [ms]
[INFO] AdjustPhi: 1.767 [ms]
[INFO] ConstrainPressure: 0.002 [ms]
[INFO] MatrixAssemblyPII: 11.383 [ms]
[OGL LOG][Proc: 0]: global_index_init: 0.012 [ms]
[OGL LOG][Proc: 0]p_local_coeffs: call_update: 0 [ms]
[OGL LOG][Proc: 0]p_non_local_coeffs: call_update: 0 [ms]
[OGL LOG][Proc: 0]p: update_local_matrix_data: 6.583 [ms]
[OGL LOG][Proc: 0]p: update_non_local_matrix_data: 0.292 [ms]
[OGL LOG][Proc: 0]p: regenerate_distributed_matrix: 23.318 [ms]
[OGL LOG][Proc: 0]p_matrix: call_update: 23.86 [ms]
[OGL LOG][Proc: 0]p_rhs: call_update: 0.38 [ms]
[OGL LOG][Proc: 0]p: init_precond: 0.028 [ms]
[OGL LOG][StoppingCriterion.H:239] Creating stopping criterion with minIter 468 frequency 12
[OGL LOG][Proc: 0]p: generate_solver: 0.026 [ms]
[OGL LOG][Proc: 0]p: solve: 209.158 [ms]
[OGL LOG][Proc: 0]p: copy_x_back: 0.58 [ms]
[OGL LOG][lduLduBase.H:330] 
Statistics:
	Time per iteration: 267 [mu s]
	Time per residual norm calculation: 128.000000 [mu s]
	Time per iteration and DOF: 0.267000 [ns]
	Retrieve results bandwidth 3.448000 [GByte/s]
[OGL LOG][Proc: 0]p: solve_multi_gpu: 235.21 [ms]
nonecudaGKOCG:  Solving for p, Initial residual = 0.616543, Final residual = 6.82702e-05, No Iterations 781
[INFO] SolveP: 243.79 [ms]
time step continuity errors : sum local = 2.18467e-08, global = 4.92689e-23, cumulative = -5.86396e-21
[INFO] ContinuityError: 4.543 [ms]
[INFO] CorrectBoundary: 0.104 [ms]
[INFO] PISOStep: 310.916 [ms]
[INFO] TimeStep: 954.93 [ms]
ExecutionTime = 10.55 s  ClockTime = 11 s

Time = 0.0015

Courant Number mean: 0.0325127 max: 0.441263
[INFO] MatrixAssemblyU: 33.499 [ms]
DILUPBiCGStab:  Solving for Ux, Initial residual = 0.0530825, Final residual = 0.00027897, No Iterations 5
DILUPBiCGStab:  Solving for Uy, Initial residual = 0.124538, Final residual = 0.000364487, No Iterations 5
DILUPBiCGStab:  Solving for Uz, Initial residual = 0.576586, Final residual = 0.00240943, No Iterations 5
[INFO] MomentumPredictor: 290.77 [ms]
[INFO] MatrixAssemblyPI: 36.574 [ms]
[INFO] AdjustPhi: 1.774 [ms]
[INFO] ConstrainPressure: 0.002 [ms]
[INFO] MatrixAssemblyPII: 11.714 [ms]
[OGL LOG][Proc: 0]: global_index_init: 0.019 [ms]
[OGL LOG][Proc: 0]p_local_coeffs: call_update: 0 [ms]
[OGL LOG][Proc: 0]p_non_local_coeffs: call_update: 0 [ms]
[OGL LOG][Proc: 0]p: update_local_matrix_data: 6.714 [ms]
[OGL LOG][Proc: 0]p: update_non_local_matrix_data: 0.279 [ms]
[OGL LOG][Proc: 0]p: regenerate_distributed_matrix: 23.78 [ms]
[OGL LOG][Proc: 0]p_matrix: call_update: 24.258 [ms]
[OGL LOG][Proc: 0]p_rhs: call_update: 0.345 [ms]
[OGL LOG][Proc: 0]p: init_precond: 0.029 [ms]
[OGL LOG][StoppingCriterion.H:239] Creating stopping criterion with minIter 468 frequency 12
[OGL LOG][Proc: 0]p: generate_solver: 0.024 [ms]
[OGL LOG][Proc: 0]p: solve: 210.473 [ms]
[OGL LOG][Proc: 0]p: copy_x_back: 1.201 [ms]
[OGL LOG][lduLduBase.H:330] 
Statistics:
	Time per iteration: 273 [mu s]
	Time per residual norm calculation: 134.000000 [mu s]
	Time per iteration and DOF: 0.273000 [ns]
	Retrieve results bandwidth 1.665000 [GByte/s]
[OGL LOG][Proc: 0]p: solve_multi_gpu: 237.547 [ms]
nonecudaGKOCG:  Solving for p, Initial residual = 0.630325, Final residual = 9.61336e-05, No Iterations 769
[INFO] SolveP: 246.509 [ms]
time step continuity errors : sum local = 2.18855e-08, global = -2.51806e-21, cumulative = -8.38202e-21
[INFO] ContinuityError: 4.842 [ms]
[INFO] CorrectBoundary: 0.145 [ms]
[INFO] PISOStep: 318.204 [ms]
[INFO] MatrixAssemblyPI: 36.963 [ms]
[INFO] AdjustPhi: 1.825 [ms]
[INFO] ConstrainPressure: 0.002 [ms]
[INFO] MatrixAssemblyPII: 11.833 [ms]
[OGL LOG][Proc: 0]: global_index_init: 0.014 [ms]
[OGL LOG][Proc: 0]p_local_coeffs: call_update: 0 [ms]
[OGL LOG][Proc: 0]p_non_local_coeffs: call_update: 0 [ms]
[OGL LOG][Proc: 0]p: update_local_matrix_data: 7.067 [ms]
[OGL LOG][Proc: 0]p: update_non_local_matrix_data: 0.305 [ms]
[OGL LOG][Proc: 0]p: regenerate_distributed_matrix: 25.583 [ms]
[OGL LOG][Proc: 0]p_matrix: call_update: 26.197 [ms]
[OGL LOG][Proc: 0]p_rhs: call_update: 0.349 [ms]
[OGL LOG][Proc: 0]p: init_precond: 0.027 [ms]
[OGL LOG][StoppingCriterion.H:239] Creating stopping criterion with minIter 461 frequency 12
[OGL LOG][Proc: 0]p: generate_solver: 0.022 [ms]
[OGL LOG][Proc: 0]p: solve: 207.352 [ms]
[OGL LOG][Proc: 0]p: copy_x_back: 0.586 [ms]
[OGL LOG][lduLduBase.H:330] 
Statistics:
	Time per iteration: 269 [mu s]
	Time per residual norm calculation: 130.000000 [mu s]
	Time per iteration and DOF: 0.269000 [ns]
	Retrieve results bandwidth 3.412000 [GByte/s]
[OGL LOG][Proc: 0]p: solve_multi_gpu: 235.756 [ms]
nonecudaGKOCG:  Solving for p, Initial residual = 0.578244, Final residual = 8.19763e-05, No Iterations 769
[INFO] SolveP: 244.843 [ms]
time step continuity errors : sum local = 1.81723e-08, global = 2.49815e-21, cumulative = -5.88387e-21
[INFO] ContinuityError: 4.441 [ms]
[INFO] CorrectBoundary: 0.105 [ms]
[INFO] PISOStep: 314.134 [ms]
[INFO] TimeStep: 961.589 [ms]
ExecutionTime = 11.51 s  ClockTime = 12 s

Time = 0.002

Courant Number mean: 0.0389156 max: 0.452961
[INFO] MatrixAssemblyU: 32.938 [ms]
DILUPBiCGStab:  Solving for Ux, Initial residual = 0.031877, Final residual = 0.000142417, No Iterations 5
DILUPBiCGStab:  Solving for Uy, Initial residual = 0.0813052, Final residual = 0.000240028, No Iterations 5
DILUPBiCGStab:  Solving for Uz, Initial residual = 0.274014, Final residual = 0.000884799, No Iterations 5
[INFO] MomentumPredictor: 290.365 [ms]
[INFO] MatrixAssemblyPI: 36.403 [ms]
[INFO] AdjustPhi: 1.707 [ms]
[INFO] ConstrainPressure: 0.002 [ms]
[INFO] MatrixAssemblyPII: 11.296 [ms]
[OGL LOG][Proc: 0]: global_index_init: 0.027 [ms]
[OGL LOG][Proc: 0]p_local_coeffs: call_update: 0 [ms]
[OGL LOG][Proc: 0]p_non_local_coeffs: call_update: 0 [ms]
[OGL LOG][Proc: 0]p: update_local_matrix_data: 6.618 [ms]
[OGL LOG][Proc: 0]p: update_non_local_matrix_data: 0.297 [ms]
[OGL LOG][Proc: 0]p: regenerate_distributed_matrix: 25.774 [ms]
[OGL LOG][Proc: 0]p_matrix: call_update: 26.357 [ms]
[OGL LOG][Proc: 0]p_rhs: call_update: 0.338 [ms]
[OGL LOG][Proc: 0]p: init_precond: 0.028 [ms]
[OGL LOG][StoppingCriterion.H:239] Creating stopping criterion with minIter 461 frequency 12
[OGL LOG][Proc: 0]p: generate_solver: 0.024 [ms]
[OGL LOG][Proc: 0]p: solve: 207.037 [ms]
[OGL LOG][Proc: 0]p: copy_x_back: 0.6 [ms]
[OGL LOG][lduLduBase.H:330] 
Statistics:
	Time per iteration: 269 [mu s]
	Time per residual norm calculation: 144.000000 [mu s]
	Time per iteration and DOF: 0.269000 [ns]
	Retrieve results bandwidth 3.333000 [GByte/s]
[OGL LOG][Proc: 0]p: solve_multi_gpu: 235.583 [ms]
nonecudaGKOCG:  Solving for p, Initial residual = 0.409693, Final residual = 5.54561e-05, No Iterations 769
[INFO] SolveP: 244.215 [ms]
time step continuity errors : sum local = 1.07925e-08, global = -5.3264e-21, cumulative = -1.12103e-20
[INFO] ContinuityError: 4.46 [ms]
[INFO] CorrectBoundary: 0.113 [ms]
[INFO] PISOStep: 312.156 [ms]
[INFO] MatrixAssemblyPI: 35.056 [ms]
[INFO] AdjustPhi: 1.728 [ms]
[INFO] ConstrainPressure: 0.002 [ms]
[INFO] MatrixAssemblyPII: 11.172 [ms]
[OGL LOG][Proc: 0]: global_index_init: 0.016 [ms]
[OGL LOG][Proc: 0]p_local_coeffs: call_update: 0 [ms]
[OGL LOG][Proc: 0]p_non_local_coeffs: call_update: 0 [ms]
[OGL LOG][Proc: 0]p: update_local_matrix_data: 6.56 [ms]
[OGL LOG][Proc: 0]p: update_non_local_matrix_data: 0.265 [ms]
[OGL LOG][Proc: 0]p: regenerate_distributed_matrix: 23.009 [ms]
[OGL LOG][Proc: 0]p_matrix: call_update: 23.439 [ms]
[OGL LOG][Proc: 0]p_rhs: call_update: 0.674 [ms]
[OGL LOG][Proc: 0]p: init_precond: 0.028 [ms]
[OGL LOG][StoppingCriterion.H:239] Creating stopping criterion with minIter 461 frequency 17
[OGL LOG][Proc: 0]p: generate_solver: 0.023 [ms]
[OGL LOG][Proc: 0]p: solve: 203.974 [ms]
[OGL LOG][Proc: 0]p: copy_x_back: 0.562 [ms]
[OGL LOG][lduLduBase.H:330] 
Statistics:
	Time per iteration: 266 [mu s]
	Time per residual norm calculation: 138.000000 [mu s]
	Time per iteration and DOF: 0.266000 [ns]
	Retrieve results bandwidth 3.558000 [GByte/s]
[OGL LOG][Proc: 0]p: solve_multi_gpu: 229.906 [ms]
nonecudaGKOCG:  Solving for p, Initial residual = 0.348243, Final residual = 5.98041e-05, No Iterations 766
[INFO] SolveP: 238.439 [ms]
time step continuity errors : sum local = 1.17563e-08, global = -5.98004e-21, cumulative = -1.71903e-20
[INFO] ContinuityError: 4.402 [ms]
[INFO] CorrectBoundary: 0.116 [ms]
[INFO] PISOStep: 305.041 [ms]
[INFO] TimeStep: 945.396 [ms]
ExecutionTime = 12.44 s  ClockTime = 13 s

Time = 0.0025

Courant Number mean: 0.0439692 max: 0.459636
[INFO] MatrixAssemblyU: 32.965 [ms]
DILUPBiCGStab:  Solving for Ux, Initial residual = 0.0234839, Final residual = 8.33025e-05, No Iterations 5
DILUPBiCGStab:  Solving for Uy, Initial residual = 0.0514645, Final residual = 0.000138997, No Iterations 5
DILUPBiCGStab:  Solving for Uz, Initial residual = 0.0977567, Final residual = 0.000365259, No Iterations 5
[INFO] MomentumPredictor: 289.658 [ms]
[INFO] MatrixAssemblyPI: 36.445 [ms]
[INFO] AdjustPhi: 1.73 [ms]
[INFO] ConstrainPressure: 0.002 [ms]
[INFO] MatrixAssemblyPII: 11.357 [ms]
[OGL LOG][Proc: 0]: global_index_init: 0.015 [ms]
[OGL LOG][Proc: 0]p_local_coeffs: call_update: 0 [ms]
[OGL LOG][Proc: 0]p_non_local_coeffs: call_update: 0 [ms]
[OGL LOG][Proc: 0]p: update_local_matrix_data: 6.64 [ms]
[OGL LOG][Proc: 0]p: update_non_local_matrix_data: 0.268 [ms]
[OGL LOG][Proc: 0]p: regenerate_distributed_matrix: 25.931 [ms]
[OGL LOG][Proc: 0]p_matrix: call_update: 26.517 [ms]
[OGL LOG][Proc: 0]p_rhs: call_update: 0.327 [ms]
[OGL LOG][Proc: 0]p: init_precond: 0.027 [ms]
[OGL LOG][StoppingCriterion.H:239] Creating stopping criterion with minIter 459 frequency 17
[OGL LOG][Proc: 0]p: generate_solver: 0.025 [ms]
[OGL LOG][Proc: 0]p: solve: 199.985 [ms]
[OGL LOG][Proc: 0]p: copy_x_back: 0.543 [ms]
[OGL LOG][lduLduBase.H:330] 
Statistics:
	Time per iteration: 273 [mu s]
	Time per residual norm calculation: 133.000000 [mu s]
	Time per iteration and DOF: 0.273000 [ns]
	Retrieve results bandwidth 3.683000 [GByte/s]
[OGL LOG][Proc: 0]p: solve_multi_gpu: 232.89 [ms]
nonecudaGKOCG:  Solving for p, Initial residual = 0.312824, Final residual = 8.39247e-05, No Iterations 732
[INFO] SolveP: 241.411 [ms]
time step continuity errors : sum local = 1.35133e-08, global = -4.01448e-21, cumulative = -2.12048e-20
[INFO] ContinuityError: 4.348 [ms]
[INFO] CorrectBoundary: 0.092 [ms]
[INFO] PISOStep: 309.046 [ms]
[INFO] MatrixAssemblyPI: 34.561 [ms]
[INFO] AdjustPhi: 1.725 [ms]
[INFO] ConstrainPressure: 0.002 [ms]
[INFO] MatrixAssemblyPII: 11.19 [ms]
[OGL LOG][Proc: 0]: global_index_init: 0.012 [ms]
[OGL LOG][Proc: 0]p_local_coeffs: call_update: 0 [ms]
[OGL LOG][Proc: 0]p_non_local_coeffs: call_update: 0 [ms]
[OGL LOG][Proc: 0]p: update_local_matrix_data: 7.79 [ms]
[OGL LOG][Proc: 0]p: update_non_local_matrix_data: 0.283 [ms]
[OGL LOG][Proc: 0]p: regenerate_distributed_matrix: 26.325 [ms]
[OGL LOG][Proc: 0]p_matrix: call_update: 28.923 [ms]
[OGL LOG][Proc: 0]p_rhs: call_update: 3.652 [ms]
[OGL LOG][Proc: 0]p: init_precond: 0.033 [ms]
[OGL LOG][StoppingCriterion.H:239] Creating stopping criterion with minIter 439 frequency 12
[OGL LOG][Proc: 0]p: generate_solver: 0.042 [ms]
[OGL LOG][Proc: 0]p: solve: 216.57 [ms]
[OGL LOG][Proc: 0]p: copy_x_back: 0.569 [ms]
[OGL LOG][lduLduBase.H:330] 
Statistics:
	Time per iteration: 295 [mu s]
	Time per residual norm calculation: 132.000000 [mu s]
	Time per iteration and DOF: 0.295000 [ns]
	Retrieve results bandwidth 3.514000 [GByte/s]
[OGL LOG][Proc: 0]p: solve_multi_gpu: 254.489 [ms]
nonecudaGKOCG:  Solving for p, Initial residual = 0.267847, Final residual = 7.46581e-05, No Iterations 733
[INFO] SolveP: 268.714 [ms]
time step continuity errors : sum local = 1.19352e-08, global = 2.18084e-21, cumulative = -1.9024e-20
[INFO] ContinuityError: 6.455 [ms]
[INFO] CorrectBoundary: 0.574 [ms]
[INFO] PISOStep: 338.252 [ms]
[INFO] TimeStep: 974.88 [ms]
ExecutionTime = 13.39 s  ClockTime = 14 s

Time = 0.003

Courant Number mean: 0.0480092 max: 0.463875
[INFO] MatrixAssemblyU: 32.141 [ms]
DILUPBiCGStab:  Solving for Ux, Initial residual = 0.0178746, Final residual = 6.19309e-05, No Iterations 5
DILUPBiCGStab:  Solving for Uy, Initial residual = 0.0400969, Final residual = 7.40693e-05, No Iterations 5
DILUPBiCGStab:  Solving for Uz, Initial residual = 0.0850578, Final residual = 0.000278747, No Iterations 5
[INFO] MomentumPredictor: 295.433 [ms]
[INFO] MatrixAssemblyPI: 36.324 [ms]
[INFO] AdjustPhi: 1.726 [ms]
[INFO] ConstrainPressure: 0.002 [ms]
[INFO] MatrixAssemblyPII: 11.244 [ms]
[OGL LOG][Proc: 0]: global_index_init: 0.014 [ms]
[OGL LOG][Proc: 0]p_local_coeffs: call_update: 0 [ms]
[OGL LOG][Proc: 0]p_non_local_coeffs: call_update: 0 [ms]
[OGL LOG][Proc: 0]p: update_local_matrix_data: 9.398 [ms]
[OGL LOG][Proc: 0]p: update_non_local_matrix_data: 0.273 [ms]
[OGL LOG][Proc: 0]p: regenerate_distributed_matrix: 26.516 [ms]
[OGL LOG][Proc: 0]p_matrix: call_update: 27.182 [ms]
[OGL LOG][Proc: 0]p_rhs: call_update: 0.329 [ms]
[OGL LOG][Proc: 0]p: init_precond: 0.027 [ms]
[OGL LOG][StoppingCriterion.H:239] Creating stopping criterion with minIter 439 frequency 12
[OGL LOG][Proc: 0]p: generate_solver: 0.027 [ms]
[OGL LOG][Proc: 0]p: solve: 193.689 [ms]
[OGL LOG][Proc: 0]p: copy_x_back: 0.585 [ms]
[OGL LOG][lduLduBase.H:330] 
Statistics:
	Time per iteration: 268 [mu s]
	Time per residual norm calculation: 128.000000 [mu s]
	Time per iteration and DOF: 0.268000 [ns]
	Retrieve results bandwidth 3.418000 [GByte/s]
[OGL LOG][Proc: 0]p: solve_multi_gpu: 227.763 [ms]
nonecudaGKOCG:  Solving for p, Initial residual = 0.195087, Final residual = 9.84804e-05, No Iterations 721
[INFO] SolveP: 239.115 [ms]
time step continuity errors : sum local = 1.53239e-08, global = 3.9893e-21, cumulative = -1.50347e-20
[INFO] ContinuityError: 4.534 [ms]
[INFO] CorrectBoundary: 0.1 [ms]
[INFO] PISOStep: 307.223 [ms]
[INFO] MatrixAssemblyPI: 35.034 [ms]
[INFO] AdjustPhi: 1.723 [ms]
[INFO] ConstrainPressure: 0.002 [ms]
[INFO] MatrixAssemblyPII: 11.336 [ms]
[OGL LOG][Proc: 0]: global_index_init: 0.015 [ms]
[OGL LOG][Proc: 0]p_local_coeffs: call_update: 0 [ms]
[OGL LOG][Proc: 0]p_non_local_coeffs: call_update: 0 [ms]
[OGL LOG][Proc: 0]p: update_local_matrix_data: 6.558 [ms]
[OGL LOG][Proc: 0]p: update_non_local_matrix_data: 0.275 [ms]
[OGL LOG][Proc: 0]p: regenerate_distributed_matrix: 22.778 [ms]
[OGL LOG][Proc: 0]p_matrix: call_update: 23.259 [ms]
[OGL LOG][Proc: 0]p_rhs: call_update: 0.619 [ms]
[OGL LOG][Proc: 0]p: init_precond: 0.027 [ms]
[OGL LOG][StoppingCriterion.H:239] Creating stopping criterion with minIter 432 frequency 12
[OGL LOG][Proc: 0]p: generate_solver: 0.024 [ms]
[OGL LOG][Proc: 0]p: solve: 192.529 [ms]
[OGL LOG][Proc: 0]p: copy_x_back: 0.612 [ms]
[OGL LOG][lduLduBase.H:330] 
Statistics:
	Time per iteration: 267 [mu s]
	Time per residual norm calculation: 128.000000 [mu s]
	Time per iteration and DOF: 0.267000 [ns]
	Retrieve results bandwidth 3.267000 [GByte/s]
[OGL LOG][Proc: 0]p: solve_multi_gpu: 218.263 [ms]
nonecudaGKOCG:  Solving for p, Initial residual = 0.162098, Final residual = 8.55593e-05, No Iterations 721
[INFO] SolveP: 226.8 [ms]
time step continuity errors : sum local = 1.33274e-08, global = -1.10653e-20, cumulative = -2.61e-20
[INFO] ContinuityError: 4.441 [ms]
[INFO] CorrectBoundary: 0.126 [ms]
[INFO] PISOStep: 293.454 [ms]
[INFO] TimeStep: 934.856 [ms]
ExecutionTime = 14.32 s  ClockTime = 15 s

Time = 0.0035

Courant Number mean: 0.0514175 max: 0.466753
[INFO] MatrixAssemblyU: 32.831 [ms]
DILUPBiCGStab:  Solving for Ux, Initial residual = 0.0146214, Final residual = 4.31909e-05, No Iterations 5
DILUPBiCGStab:  Solving for Uy, Initial residual = 0.03174, Final residual = 6.01638e-05, No Iterations 5
DILUPBiCGStab:  Solving for Uz, Initial residual = 0.0564401, Final residual = 0.000166635, No Iterations 5
[INFO] MomentumPredictor: 294.016 [ms]
[INFO] MatrixAssemblyPI: 37.606 [ms]
[INFO] AdjustPhi: 2.39 [ms]
[INFO] ConstrainPressure: 0.002 [ms]
[INFO] MatrixAssemblyPII: 11.315 [ms]
[OGL LOG][Proc: 0]: global_index_init: 0.013 [ms]
[OGL LOG][Proc: 0]p_local_coeffs: call_update: 0 [ms]
[OGL LOG][Proc: 0]p_non_local_coeffs: call_update: 0 [ms]
[OGL LOG][Proc: 0]p: update_local_matrix_data: 6.58 [ms]
[OGL LOG][Proc: 0]p: update_non_local_matrix_data: 0.265 [ms]
[OGL LOG][Proc: 0]p: regenerate_distributed_matrix: 26.698 [ms]
[OGL LOG][Proc: 0]p_matrix: call_update: 27.257 [ms]
[OGL LOG][Proc: 0]p_rhs: call_update: 0.321 [ms]
[OGL LOG][Proc: 0]p: init_precond: 0.028 [ms]
[OGL LOG][StoppingCriterion.H:239] Creating stopping criterion with minIter 432 frequency 12
[OGL LOG][Proc: 0]p: generate_solver: 0.026 [ms]
[OGL LOG][Proc: 0]p: solve: 125.056 [ms]
[OGL LOG][Proc: 0]p: copy_x_back: 0.602 [ms]
[OGL LOG][lduLduBase.H:330] 
Statistics:
	Time per iteration: 273 [mu s]
	Time per residual norm calculation: 130.000000 [mu s]
	Time per iteration and DOF: 0.273000 [ns]
	Retrieve results bandwidth 3.322000 [GByte/s]
[OGL LOG][Proc: 0]p: solve_multi_gpu: 154.837 [ms]
nonecudaGKOCG:  Solving for p, Initial residual = 0.138522, Final residual = 9.81402e-05, No Iterations 457
[INFO] SolveP: 163.357 [ms]
time step continuity errors : sum local = 1.58453e-08, global = 2.80993e-21, cumulative = -2.32901e-20
[INFO] ContinuityError: 4.454 [ms]
[INFO] CorrectBoundary: 0.216 [ms]
[INFO] PISOStep: 233.433 [ms]
[INFO] MatrixAssemblyPI: 34.959 [ms]
[INFO] AdjustPhi: 1.748 [ms]
[INFO] ConstrainPressure: 0.002 [ms]
[INFO] MatrixAssemblyPII: 11.386 [ms]
[OGL LOG][Proc: 0]: global_index_init: 0.012 [ms]
[OGL LOG][Proc: 0]p_local_coeffs: call_update: 0 [ms]
[OGL LOG][Proc: 0]p_non_local_coeffs: call_update: 0 [ms]
[OGL LOG][Proc: 0]p: update_local_matrix_data: 6.704 [ms]
[OGL LOG][Proc: 0]p: update_non_local_matrix_data: 0.277 [ms]
[OGL LOG][Proc: 0]p: regenerate_distributed_matrix: 22.819 [ms]
[OGL LOG][Proc: 0]p_matrix: call_update: 23.378 [ms]
[OGL LOG][Proc: 0]p_rhs: call_update: 0.372 [ms]
[OGL LOG][Proc: 0]p: init_precond: 0.029 [ms]
[OGL LOG][StoppingCriterion.H:239] Creating stopping criterion with minIter 274 frequency 9
[OGL LOG][Proc: 0]p: generate_solver: 0.025 [ms]
[OGL LOG][Proc: 0]p: solve: 95.149 [ms]
[OGL LOG][Proc: 0]p: copy_x_back: 0.615 [ms]
[OGL LOG][lduLduBase.H:330] 
Statistics:
	Time per iteration: 284 [mu s]
	Time per residual norm calculation: 129.000000 [mu s]
	Time per iteration and DOF: 0.284000 [ns]
	Retrieve results bandwidth 3.252000 [GByte/s]
[OGL LOG][Proc: 0]p: solve_multi_gpu: 120.762 [ms]
nonecudaGKOCG:  Solving for p, Initial residual = 0.11587, Final residual = 9.23266e-05, No Iterations 334
[INFO] SolveP: 129.438 [ms]
time step continuity errors : sum local = 1.40435e-08, global = -3.70856e-21, cumulative = -2.69986e-20
[INFO] ContinuityError: 4.394 [ms]
[INFO] CorrectBoundary: 0.104 [ms]
[INFO] PISOStep: 195.931 [ms]
[INFO] TimeStep: 761.06 [ms]
ExecutionTime = 15.08 s  ClockTime = 16 s

Time = 0.004

Courant Number mean: 0.0543556 max: 0.468961
[INFO] MatrixAssemblyU: 32.923 [ms]
DILUPBiCGStab:  Solving for Ux, Initial residual = 0.0122662, Final residual = 3.51866e-05, No Iterations 5
DILUPBiCGStab:  Solving for Uy, Initial residual = 0.026514, Final residual = 3.25119e-05, No Iterations 5
DILUPBiCGStab:  Solving for Uz, Initial residual = 0.0510987, Final residual = 0.000116445, No Iterations 5
[INFO] MomentumPredictor: 288.594 [ms]
[INFO] MatrixAssemblyPI: 36.445 [ms]
[INFO] AdjustPhi: 1.714 [ms]
[INFO] ConstrainPressure: 0.002 [ms]
[INFO] MatrixAssemblyPII: 11.295 [ms]
[OGL LOG][Proc: 0]: global_index_init: 0.011 [ms]
[OGL LOG][Proc: 0]p_local_coeffs: call_update: 0 [ms]
[OGL LOG][Proc: 0]p_non_local_coeffs: call_update: 0 [ms]
[OGL LOG][Proc: 0]p: update_local_matrix_data: 6.639 [ms]
[OGL LOG][Proc: 0]p: update_non_local_matrix_data: 0.257 [ms]
[OGL LOG][Proc: 0]p: regenerate_distributed_matrix: 25.662 [ms]
[OGL LOG][Proc: 0]p_matrix: call_update: 26.186 [ms]
[OGL LOG][Proc: 0]p_rhs: call_update: 0.337 [ms]
[OGL LOG][Proc: 0]p: init_precond: 0.028 [ms]
[OGL LOG][StoppingCriterion.H:239] Creating stopping criterion with minIter 200 frequency 8
[OGL LOG][Proc: 0]p: generate_solver: 0.023 [ms]
[OGL LOG][Proc: 0]p: solve: 96.231 [ms]
[OGL LOG][Proc: 0]p: copy_x_back: 0.598 [ms]
[OGL LOG][lduLduBase.H:330] 
Statistics:
	Time per iteration: 292 [mu s]
	Time per residual norm calculation: 132.000000 [mu s]
	Time per iteration and DOF: 0.292000 [ns]
	Retrieve results bandwidth 3.344000 [GByte/s]
[OGL LOG][Proc: 0]p: solve_multi_gpu: 124.607 [ms]
nonecudaGKOCG:  Solving for p, Initial residual = 0.0904516, Final residual = 8.53996e-05, No Iterations 329
[INFO] SolveP: 133.186 [ms]
time step continuity errors : sum local = 1.24295e-08, global = -7.02395e-21, cumulative = -3.40226e-20
[INFO] ContinuityError: 4.444 [ms]
[INFO] CorrectBoundary: 0.135 [ms]
[INFO] PISOStep: 201.199 [ms]
[INFO] MatrixAssemblyPI: 38.605 [ms]
[INFO] AdjustPhi: 1.815 [ms]
[INFO] ConstrainPressure: 0.002 [ms]
[INFO] MatrixAssemblyPII: 12.674 [ms]
[OGL LOG][Proc: 0]: global_index_init: 0.017 [ms]
[OGL LOG][Proc: 0]p_local_coeffs: call_update: 0 [ms]
[OGL LOG][Proc: 0]p_non_local_coeffs: call_update: 0 [ms]
[OGL LOG][Proc: 0]p: update_local_matrix_data: 7.194 [ms]
[OGL LOG][Proc: 0]p: update_non_local_matrix_data: 0.306 [ms]
[OGL LOG][Proc: 0]p: regenerate_distributed_matrix: 25.21 [ms]
[OGL LOG][Proc: 0]p_matrix: call_update: 25.767 [ms]
[OGL LOG][Proc: 0]p_rhs: call_update: 0.509 [ms]
[OGL LOG][Proc: 0]p: init_precond: 0.028 [ms]
[OGL LOG][StoppingCriterion.H:239] Creating stopping criterion with minIter 197 frequency 8
[OGL LOG][Proc: 0]p: generate_solver: 0.025 [ms]
[OGL LOG][Proc: 0]p: solve: 94.218 [ms]
[OGL LOG][Proc: 0]p: copy_x_back: 0.894 [ms]
[OGL LOG][lduLduBase.H:330] 
Statistics:
	Time per iteration: 293 [mu s]
	Time per residual norm calculation: 133.000000 [mu s]
	Time per iteration and DOF: 0.293000 [ns]
	Retrieve results bandwidth 2.237000 [GByte/s]
[OGL LOG][Proc: 0]p: solve_multi_gpu: 122.694 [ms]
nonecudaGKOCG:  Solving for p, Initial residual = 0.0747998, Final residual = 9.64817e-05, No Iterations 321
[INFO] SolveP: 131.995 [ms]
time step continuity errors : sum local = 1.40235e-08, global = 2.42209e-21, cumulative = -3.16005e-20
[INFO] ContinuityError: 4.443 [ms]
[INFO] CorrectBoundary: 0.144 [ms]
[INFO] PISOStep: 204.493 [ms]
[INFO] TimeStep: 732.161 [ms]
ExecutionTime = 15.81 s  ClockTime = 17 s

Time = 0.0045

Courant Number mean: 0.0569322 max: 0.470662
[INFO] MatrixAssemblyU: 33.653 [ms]
DILUPBiCGStab:  Solving for Ux, Initial residual = 0.0105197, Final residual = 2.72135e-05, No Iterations 5
DILUPBiCGStab:  Solving for Uy, Initial residual = 0.0226638, Final residual = 3.08815e-05, No Iterations 5
DILUPBiCGStab:  Solving for Uz, Initial residual = 0.0427675, Final residual = 8.77451e-05, No Iterations 5
[INFO] MomentumPredictor: 292.589 [ms]
[INFO] MatrixAssemblyPI: 37.173 [ms]
[INFO] AdjustPhi: 1.746 [ms]
[INFO] ConstrainPressure: 0.002 [ms]
[INFO] MatrixAssemblyPII: 11.28 [ms]
[OGL LOG][Proc: 0]: global_index_init: 0.02 [ms]
[OGL LOG][Proc: 0]p_local_coeffs: call_update: 0 [ms]
[OGL LOG][Proc: 0]p_non_local_coeffs: call_update: 0 [ms]
[OGL LOG][Proc: 0]p: update_local_matrix_data: 6.657 [ms]
[OGL LOG][Proc: 0]p: update_non_local_matrix_data: 0.267 [ms]
[OGL LOG][Proc: 0]p: regenerate_distributed_matrix: 25.628 [ms]
[OGL LOG][Proc: 0]p_matrix: call_update: 26.112 [ms]
[OGL LOG][Proc: 0]p_rhs: call_update: 0.338 [ms]
[OGL LOG][Proc: 0]p: init_precond: 0.026 [ms]
[OGL LOG][StoppingCriterion.H:239] Creating stopping criterion with minIter 192 frequency 8
[OGL LOG][Proc: 0]p: generate_solver: 0.026 [ms]
[OGL LOG][Proc: 0]p: solve: 96.923 [ms]
[OGL LOG][Proc: 0]p: copy_x_back: 0.571 [ms]
[OGL LOG][lduLduBase.H:330] 
Statistics:
	Time per iteration: 294 [mu s]
	Time per residual norm calculation: 140.000000 [mu s]
	Time per iteration and DOF: 0.294000 [ns]
	Retrieve results bandwidth 3.502000 [GByte/s]
[OGL LOG][Proc: 0]p: solve_multi_gpu: 125.264 [ms]
nonecudaGKOCG:  Solving for p, Initial residual = 0.0663198, Final residual = 9.79212e-05, No Iterations 329
[INFO] SolveP: 133.895 [ms]
time step continuity errors : sum local = 1.57296e-08, global = -4.1876e-21, cumulative = -3.57881e-20
[INFO] ContinuityError: 4.364 [ms]
[INFO] CorrectBoundary: 0.107 [ms]
[INFO] PISOStep: 203.193 [ms]
[INFO] MatrixAssemblyPI: 34.916 [ms]
[INFO] AdjustPhi: 1.722 [ms]
[INFO] ConstrainPressure: 0.002 [ms]
[INFO] MatrixAssemblyPII: 11.21 [ms]
[OGL LOG][Proc: 0]: global_index_init: 0.012 [ms]
[OGL LOG][Proc: 0]p_local_coeffs: call_update: 0 [ms]
[OGL LOG][Proc: 0]p_non_local_coeffs: call_update: 0 [ms]
[OGL LOG][Proc: 0]p: update_local_matrix_data: 6.641 [ms]
[OGL LOG][Proc: 0]p: update_non_local_matrix_data: 0.269 [ms]
[OGL LOG][Proc: 0]p: regenerate_distributed_matrix: 23.079 [ms]
[OGL LOG][Proc: 0]p_matrix: call_update: 23.68 [ms]
[OGL LOG][Proc: 0]p_rhs: call_update: 0.44 [ms]
[OGL LOG][Proc: 0]p: init_precond: 0.028 [ms]
[OGL LOG][StoppingCriterion.H:239] Creating stopping criterion with minIter 197 frequency 8
[OGL LOG][Proc: 0]p: generate_solver: 0.024 [ms]
[OGL LOG][Proc: 0]p: solve: 94.241 [ms]
[OGL LOG][Proc: 0]p: copy_x_back: 0.577 [ms]
[OGL LOG][lduLduBase.H:330] 
Statistics:
	Time per iteration: 293 [mu s]
	Time per residual norm calculation: 134.000000 [mu s]
	Time per iteration and DOF: 0.293000 [ns]
	Retrieve results bandwidth 3.466000 [GByte/s]
[OGL LOG][Proc: 0]p: solve_multi_gpu: 120.193 [ms]
nonecudaGKOCG:  Solving for p, Initial residual = 0.0552934, Final residual = 8.95292e-05, No Iterations 321
[INFO] SolveP: 128.816 [ms]
time step continuity errors : sum local = 1.33947e-08, global = -5.30822e-21, cumulative = -4.10963e-20
[INFO] ContinuityError: 4.452 [ms]
[INFO] CorrectBoundary: 0.108 [ms]
[INFO] PISOStep: 195.295 [ms]
[INFO] TimeStep: 729.935 [ms]
ExecutionTime = 16.54 s  ClockTime = 17 s

Time = 0.005

Courant Number mean: 0.0592265 max: 0.472056
[INFO] MatrixAssemblyU: 32.787 [ms]
DILUPBiCGStab:  Solving for Ux, Initial residual = 0.00920372, Final residual = 2.27283e-05, No Iterations 5
DILUPBiCGStab:  Solving for Uy, Initial residual = 0.0197358, Final residual = 2.10476e-05, No Iterations 5
DILUPBiCGStab:  Solving for Uz, Initial residual = 0.0380171, Final residual = 6.93595e-05, No Iterations 5
[INFO] MomentumPredictor: 288.683 [ms]
[INFO] MatrixAssemblyPI: 36.589 [ms]
[INFO] AdjustPhi: 1.745 [ms]
[INFO] ConstrainPressure: 0.002 [ms]
[INFO] MatrixAssemblyPII: 11.286 [ms]
[OGL LOG][Proc: 0]: global_index_init: 0.023 [ms]
[OGL LOG][Proc: 0]p_local_coeffs: call_update: 0 [ms]
[OGL LOG][Proc: 0]p_non_local_coeffs: call_update: 0 [ms]
[OGL LOG][Proc: 0]p: update_local_matrix_data: 6.581 [ms]
[OGL LOG][Proc: 0]p: update_non_local_matrix_data: 0.276 [ms]
[OGL LOG][Proc: 0]p: regenerate_distributed_matrix: 25.637 [ms]
[OGL LOG][Proc: 0]p_matrix: call_update: 26.204 [ms]
[OGL LOG][Proc: 0]p_rhs: call_update: 0.326 [ms]
[OGL LOG][Proc: 0]p: init_precond: 0.027 [ms]
[OGL LOG][StoppingCriterion.H:239] Creating stopping criterion with minIter 192 frequency 8
[OGL LOG][Proc: 0]p: generate_solver: 0.024 [ms]
[OGL LOG][Proc: 0]p: solve: 94.683 [ms]
[OGL LOG][Proc: 0]p: copy_x_back: 0.57 [ms]
[OGL LOG][lduLduBase.H:330] 
Statistics:
	Time per iteration: 294 [mu s]
	Time per residual norm calculation: 141.000000 [mu s]
	Time per iteration and DOF: 0.294000 [ns]
	Retrieve results bandwidth 3.508000 [GByte/s]
[OGL LOG][Proc: 0]p: solve_multi_gpu: 123.027 [ms]
nonecudaGKOCG:  Solving for p, Initial residual = 0.0445604, Final residual = 9.86283e-05, No Iterations 321
[INFO] SolveP: 131.572 [ms]
time step continuity errors : sum local = 1.46874e-08, global = -4.88037e-23, cumulative = -4.11451e-20
[INFO] ContinuityError: 4.412 [ms]
[INFO] CorrectBoundary: 0.11 [ms]
[INFO] PISOStep: 199.979 [ms]
[INFO] MatrixAssemblyPI: 35.098 [ms]
[INFO] AdjustPhi: 1.767 [ms]
[INFO] ConstrainPressure: 0.002 [ms]
[INFO] MatrixAssemblyPII: 11.218 [ms]
[OGL LOG][Proc: 0]: global_index_init: 0.015 [ms]
[OGL LOG][Proc: 0]p_local_coeffs: call_update: 0 [ms]
[OGL LOG][Proc: 0]p_non_local_coeffs: call_update: 0 [ms]
[OGL LOG][Proc: 0]p: update_local_matrix_data: 6.704 [ms]
[OGL LOG][Proc: 0]p: update_non_local_matrix_data: 0.266 [ms]
[OGL LOG][Proc: 0]p: regenerate_distributed_matrix: 22.989 [ms]
[OGL LOG][Proc: 0]p_matrix: call_update: 23.603 [ms]
[OGL LOG][Proc: 0]p_rhs: call_update: 0.423 [ms]
[OGL LOG][Proc: 0]p: init_precond: 0.028 [ms]
[OGL LOG][StoppingCriterion.H:239] Creating stopping criterion with minIter 192 frequency 8
[OGL LOG][Proc: 0]p: generate_solver: 0.024 [ms]
[OGL LOG][Proc: 0]p: solve: 94.653 [ms]
[OGL LOG][Proc: 0]p: copy_x_back: 0.601 [ms]
[OGL LOG][lduLduBase.H:330] 
Statistics:
	Time per iteration: 294 [mu s]
	Time per residual norm calculation: 133.000000 [mu s]
	Time per iteration and DOF: 0.294000 [ns]
	Retrieve results bandwidth 3.327000 [GByte/s]
[OGL LOG][Proc: 0]p: solve_multi_gpu: 120.524 [ms]
nonecudaGKOCG:  Solving for p, Initial residual = 0.0375351, Final residual = 8.80275e-05, No Iterations 321
[INFO] SolveP: 129.176 [ms]
time step continuity errors : sum local = 1.25456e-08, global = 3.92324e-21, cumulative = -3.72219e-20
[INFO] ContinuityError: 4.417 [ms]
[INFO] CorrectBoundary: 0.119 [ms]
[INFO] PISOStep: 195.819 [ms]
[INFO] TimeStep: 722.128 [ms]
ExecutionTime = 17.25 s  ClockTime = 18 s

Time = 0.0055

Courant Number mean: 0.0612855 max: 0.473202
[INFO] MatrixAssemblyU: 32.687 [ms]
DILUPBiCGStab:  Solving for Ux, Initial residual = 0.00813379, Final residual = 1.8782e-05, No Iterations 5
DILUPBiCGStab:  Solving for Uy, Initial residual = 0.0174407, Final residual = 1.92218e-05, No Iterations 5
DILUPBiCGStab:  Solving for Uz, Initial residual = 0.034246, Final residual = 5.8898e-05, No Iterations 5
[INFO] MomentumPredictor: 290.244 [ms]
[INFO] MatrixAssemblyPI: 36.569 [ms]
[INFO] AdjustPhi: 1.727 [ms]
[INFO] ConstrainPressure: 0.002 [ms]
[INFO] MatrixAssemblyPII: 11.278 [ms]
[OGL LOG][Proc: 0]: global_index_init: 0.022 [ms]
[OGL LOG][Proc: 0]p_local_coeffs: call_update: 0 [ms]
[OGL LOG][Proc: 0]p_non_local_coeffs: call_update: 0 [ms]
[OGL LOG][Proc: 0]p: update_local_matrix_data: 6.613 [ms]
[OGL LOG][Proc: 0]p: update_non_local_matrix_data: 0.298 [ms]
[OGL LOG][Proc: 0]p: regenerate_distributed_matrix: 25.705 [ms]
[OGL LOG][Proc: 0]p_matrix: call_update: 26.306 [ms]
[OGL LOG][Proc: 0]p_rhs: call_update: 0.326 [ms]
[OGL LOG][Proc: 0]p: init_precond: 0.027 [ms]
[OGL LOG][StoppingCriterion.H:239] Creating stopping criterion with minIter 192 frequency 8
[OGL LOG][Proc: 0]p: generate_solver: 0.026 [ms]
[OGL LOG][Proc: 0]p: solve: 195.443 [ms]
[OGL LOG][Proc: 0]p: copy_x_back: 0.602 [ms]
[OGL LOG][lduLduBase.H:330] 
Statistics:
	Time per iteration: 280 [mu s]
	Time per residual norm calculation: 129.000000 [mu s]
	Time per iteration and DOF: 0.280000 [ns]
	Retrieve results bandwidth 3.322000 [GByte/s]
[OGL LOG][Proc: 0]p: solve_multi_gpu: 223.961 [ms]
nonecudaGKOCG:  Solving for p, Initial residual = 0.0348199, Final residual = 7.77499e-05, No Iterations 697
[INFO] SolveP: 232.571 [ms]
time step continuity errors : sum local = 1.0941e-08, global = 1.0651e-21, cumulative = -3.61568e-20
[INFO] ContinuityError: 4.386 [ms]
[INFO] CorrectBoundary: 0.109 [ms]
[INFO] PISOStep: 301.445 [ms]
[INFO] MatrixAssemblyPI: 35.219 [ms]
[INFO] AdjustPhi: 1.776 [ms]
[INFO] ConstrainPressure: 0.002 [ms]
[INFO] MatrixAssemblyPII: 11.211 [ms]
[OGL LOG][Proc: 0]: global_index_init: 0.016 [ms]
[OGL LOG][Proc: 0]p_local_coeffs: call_update: 0 [ms]
[OGL LOG][Proc: 0]p_non_local_coeffs: call_update: 0 [ms]
[OGL LOG][Proc: 0]p: update_local_matrix_data: 6.602 [ms]
[OGL LOG][Proc: 0]p: update_non_local_matrix_data: 0.261 [ms]
[OGL LOG][Proc: 0]p: regenerate_distributed_matrix: 22.848 [ms]
[OGL LOG][Proc: 0]p_matrix: call_update: 23.346 [ms]
[OGL LOG][Proc: 0]p_rhs: call_update: 0.452 [ms]
[OGL LOG][Proc: 0]p: init_precond: 0.028 [ms]
[OGL LOG][StoppingCriterion.H:239] Creating stopping criterion with minIter 418 frequency 11
[OGL LOG][Proc: 0]p: generate_solver: 0.026 [ms]
[OGL LOG][Proc: 0]p: solve: 190.423 [ms]
[OGL LOG][Proc: 0]p: copy_x_back: 0.836 [ms]
[OGL LOG][lduLduBase.H:330] 
Statistics:
	Time per iteration: 274 [mu s]
	Time per residual norm calculation: 132.000000 [mu s]
	Time per iteration and DOF: 0.274000 [ns]
	Retrieve results bandwidth 2.392000 [GByte/s]
[OGL LOG][Proc: 0]p: solve_multi_gpu: 216.326 [ms]
nonecudaGKOCG:  Solving for p, Initial residual = 0.0295201, Final residual = 8.08006e-05, No Iterations 694
[INFO] SolveP: 225.378 [ms]
time step continuity errors : sum local = 1.13746e-08, global = 8.16636e-21, cumulative = -2.79904e-20
[INFO] ContinuityError: 4.454 [ms]
[INFO] CorrectBoundary: 0.101 [ms]
[INFO] PISOStep: 293.244 [ms]
[INFO] TimeStep: 922.459 [ms]
ExecutionTime = 18.17 s  ClockTime = 19 s

Time = 0.006

Courant Number mean: 0.0631563 max: 0.474179
[INFO] MatrixAssemblyU: 33.14 [ms]
DILUPBiCGStab:  Solving for Ux, Initial residual = 0.00728085, Final residual = 1.63027e-05, No Iterations 5
DILUPBiCGStab:  Solving for Uy, Initial residual = 0.0155665, Final residual = 1.4384e-05, No Iterations 5
DILUPBiCGStab:  Solving for Uz, Initial residual = 0.0304691, Final residual = 4.58276e-05, No Iterations 5
[INFO] MomentumPredictor: 289.51 [ms]
[INFO] MatrixAssemblyPI: 36.48 [ms]
[INFO] AdjustPhi: 1.771 [ms]
[INFO] ConstrainPressure: 0.003 [ms]
[INFO] MatrixAssemblyPII: 11.371 [ms]
[OGL LOG][Proc: 0]: global_index_init: 0.015 [ms]
[OGL LOG][Proc: 0]p_local_coeffs: call_update: 0 [ms]
[OGL LOG][Proc: 0]p_non_local_coeffs: call_update: 0 [ms]
[OGL LOG][Proc: 0]p: update_local_matrix_data: 6.618 [ms]
[OGL LOG][Proc: 0]p: update_non_local_matrix_data: 0.322 [ms]
[OGL LOG][Proc: 0]p: regenerate_distributed_matrix: 25.499 [ms]
[OGL LOG][Proc: 0]p_matrix: call_update: 26.025 [ms]
[OGL LOG][Proc: 0]p_rhs: call_update: 0.321 [ms]
[OGL LOG][Proc: 0]p: init_precond: 0.029 [ms]
[OGL LOG][StoppingCriterion.H:239] Creating stopping criterion with minIter 416 frequency 11
[OGL LOG][Proc: 0]p: generate_solver: 0.026 [ms]
[OGL LOG][Proc: 0]p: solve: 117.29 [ms]
[OGL LOG][Proc: 0]p: copy_x_back: 0.575 [ms]
[OGL LOG][lduLduBase.H:330] 
Statistics:
	Time per iteration: 279 [mu s]
	Time per residual norm calculation: 140.000000 [mu s]
	Time per iteration and DOF: 0.279000 [ns]
	Retrieve results bandwidth 3.478000 [GByte/s]
[OGL LOG][Proc: 0]p: solve_multi_gpu: 145.515 [ms]
nonecudaGKOCG:  Solving for p, Initial residual = 0.0249427, Final residual = 1.32016e-05, No Iterations 419
[INFO] SolveP: 154.158 [ms]
time step continuity errors : sum local = 1.96721e-09, global = -3.47026e-21, cumulative = -3.14607e-20
[INFO] ContinuityError: 4.451 [ms]
[INFO] CorrectBoundary: 0.113 [ms]
[INFO] PISOStep: 222.362 [ms]
[INFO] MatrixAssemblyPI: 35.007 [ms]
[INFO] AdjustPhi: 1.739 [ms]
[INFO] ConstrainPressure: 0.002 [ms]
[INFO] MatrixAssemblyPII: 11.234 [ms]
[OGL LOG][Proc: 0]: global_index_init: 0.012 [ms]
[OGL LOG][Proc: 0]p_local_coeffs: call_update: 0 [ms]
[OGL LOG][Proc: 0]p_non_local_coeffs: call_update: 0 [ms]
[OGL LOG][Proc: 0]p: update_local_matrix_data: 6.651 [ms]
[OGL LOG][Proc: 0]p: update_non_local_matrix_data: 0.273 [ms]
[OGL LOG][Proc: 0]p: regenerate_distributed_matrix: 22.932 [ms]
[OGL LOG][Proc: 0]p_matrix: call_update: 23.602 [ms]
[OGL LOG][Proc: 0]p_rhs: call_update: 0.358 [ms]
[OGL LOG][Proc: 0]p: init_precond: 0.031 [ms]
[OGL LOG][StoppingCriterion.H:239] Creating stopping criterion with minIter 251 frequency 12
[OGL LOG][Proc: 0]p: generate_solver: 0.024 [ms]
[OGL LOG][Proc: 0]p: solve: 91.021 [ms]
[OGL LOG][Proc: 0]p: copy_x_back: 0.583 [ms]
[OGL LOG][lduLduBase.H:330] 
Statistics:
	Time per iteration: 290 [mu s]
	Time per residual norm calculation: 132.000000 [mu s]
	Time per iteration and DOF: 0.290000 [ns]
	Retrieve results bandwidth 3.430000 [GByte/s]
[OGL LOG][Proc: 0]p: solve_multi_gpu: 116.842 [ms]
nonecudaGKOCG:  Solving for p, Initial residual = 0.0217256, Final residual = 8.05578e-05, No Iterations 313
[INFO] SolveP: 125.469 [ms]
time step continuity errors : sum local = 1.13887e-08, global = -2.70227e-21, cumulative = -3.4163e-20
[INFO] ContinuityError: 4.48 [ms]
[INFO] CorrectBoundary: 1.114 [ms]
[INFO] PISOStep: 194.444 [ms]
[INFO] TimeStep: 744.437 [ms]
ExecutionTime = 18.91 s  ClockTime = 20 s

Time = 0.0065

Courant Number mean: 0.0648593 max: 0.475014
[INFO] MatrixAssemblyU: 32.691 [ms]
DILUPBiCGStab:  Solving for Ux, Initial residual = 0.00655129, Final residual = 1.40368e-05, No Iterations 5
DILUPBiCGStab:  Solving for Uy, Initial residual = 0.0140446, Final residual = 1.34833e-05, No Iterations 5
DILUPBiCGStab:  Solving for Uz, Initial residual = 0.0276091, Final residual = 3.8266e-05, No Iterations 5
[INFO] MomentumPredictor: 295.809 [ms]
[INFO] MatrixAssemblyPI: 36.933 [ms]
[INFO] AdjustPhi: 2.867 [ms]
[INFO] ConstrainPressure: 0.002 [ms]
[INFO] MatrixAssemblyPII: 11.431 [ms]
[OGL LOG][Proc: 0]: global_index_init: 0.021 [ms]
[OGL LOG][Proc: 0]p_local_coeffs: call_update: 0 [ms]
[OGL LOG][Proc: 0]p_non_local_coeffs: call_update: 0 [ms]
[OGL LOG][Proc: 0]p: update_local_matrix_data: 6.718 [ms]
[OGL LOG][Proc: 0]p: update_non_local_matrix_data: 0.265 [ms]
[OGL LOG][Proc: 0]p: regenerate_distributed_matrix: 25.663 [ms]
[OGL LOG][Proc: 0]p_matrix: call_update: 26.228 [ms]
[OGL LOG][Proc: 0]p_rhs: call_update: 0.342 [ms]
[OGL LOG][Proc: 0]p: init_precond: 0.027 [ms]
[OGL LOG][StoppingCriterion.H:239] Creating stopping criterion with minIter 187 frequency 7
[OGL LOG][Proc: 0]p: generate_solver: 0.025 [ms]
[OGL LOG][Proc: 0]p: solve: 91.983 [ms]
[OGL LOG][Proc: 0]p: copy_x_back: 0.597 [ms]
[OGL LOG][lduLduBase.H:330] 
Statistics:
	Time per iteration: 297 [mu s]
	Time per residual norm calculation: 130.000000 [mu s]
	Time per iteration and DOF: 0.297000 [ns]
	Retrieve results bandwidth 3.350000 [GByte/s]
[OGL LOG][Proc: 0]p: solve_multi_gpu: 120.437 [ms]
nonecudaGKOCG:  Solving for p, Initial residual = 0.0203111, Final residual = 9.05595e-05, No Iterations 309
[INFO] SolveP: 129.087 [ms]
time step continuity errors : sum local = 1.3417e-08, global = -1.07565e-20, cumulative = -4.49195e-20
[INFO] ContinuityError: 4.42 [ms]
[INFO] CorrectBoundary: 0.107 [ms]
[INFO] PISOStep: 198.915 [ms]
[INFO] MatrixAssemblyPI: 35.202 [ms]
[INFO] AdjustPhi: 1.757 [ms]
[INFO] ConstrainPressure: 0.002 [ms]
[INFO] MatrixAssemblyPII: 11.24 [ms]
[OGL LOG][Proc: 0]: global_index_init: 0.017 [ms]
[OGL LOG][Proc: 0]p_local_coeffs: call_update: 0 [ms]
[OGL LOG][Proc: 0]p_non_local_coeffs: call_update: 0 [ms]
[OGL LOG][Proc: 0]p: update_local_matrix_data: 6.632 [ms]
[OGL LOG][Proc: 0]p: update_non_local_matrix_data: 0.311 [ms]
[OGL LOG][Proc: 0]p: regenerate_distributed_matrix: 23.055 [ms]
[OGL LOG][Proc: 0]p_matrix: call_update: 23.614 [ms]
[OGL LOG][Proc: 0]p_rhs: call_update: 0.382 [ms]
[OGL LOG][Proc: 0]p: init_precond: 0.027 [ms]
[OGL LOG][StoppingCriterion.H:239] Creating stopping criterion with minIter 185 frequency 7
[OGL LOG][Proc: 0]p: generate_solver: 0.026 [ms]
[OGL LOG][Proc: 0]p: solve: 92.044 [ms]
[OGL LOG][Proc: 0]p: copy_x_back: 0.591 [ms]
[OGL LOG][lduLduBase.H:330] 
Statistics:
	Time per iteration: 297 [mu s]
	Time per residual norm calculation: 132.000000 [mu s]
	Time per iteration and DOF: 0.297000 [ns]
	Retrieve results bandwidth 3.384000 [GByte/s]
[OGL LOG][Proc: 0]p: solve_multi_gpu: 117.902 [ms]
nonecudaGKOCG:  Solving for p, Initial residual = 0.017833, Final residual = 8.02196e-05, No Iterations 309
[INFO] SolveP: 126.526 [ms]
time step continuity errors : sum local = 1.14145e-08, global = -8.45133e-21, cumulative = -5.33708e-20
[INFO] ContinuityError: 4.447 [ms]
[INFO] CorrectBoundary: 0.107 [ms]
[INFO] PISOStep: 193.244 [ms]
[INFO] TimeStep: 727.823 [ms]
ExecutionTime = 19.65 s  ClockTime = 20 s

Time = 0.007

Courant Number mean: 0.0664262 max: 0.475744
[INFO] MatrixAssemblyU: 32.944 [ms]
DILUPBiCGStab:  Solving for Ux, Initial residual = 0.0059514, Final residual = 1.25106e-05, No Iterations 5
DILUPBiCGStab:  Solving for Uy, Initial residual = 0.0127556, Final residual = 1.10866e-05, No Iterations 5
DILUPBiCGStab:  Solving for Uz, Initial residual = 0.0252016, Final residual = 3.46071e-05, No Iterations 5
[INFO] MomentumPredictor: 288.702 [ms]
[INFO] MatrixAssemblyPI: 36.396 [ms]
[INFO] AdjustPhi: 1.707 [ms]
[INFO] ConstrainPressure: 0.002 [ms]
[INFO] MatrixAssemblyPII: 11.258 [ms]
[OGL LOG][Proc: 0]: global_index_init: 0.014 [ms]
[OGL LOG][Proc: 0]p_local_coeffs: call_update: 0 [ms]
[OGL LOG][Proc: 0]p_non_local_coeffs: call_update: 0 [ms]
[OGL LOG][Proc: 0]p: update_local_matrix_data: 6.601 [ms]
[OGL LOG][Proc: 0]p: update_non_local_matrix_data: 0.302 [ms]
[OGL LOG][Proc: 0]p: regenerate_distributed_matrix: 25.633 [ms]
[OGL LOG][Proc: 0]p_matrix: call_update: 26.163 [ms]
[OGL LOG][Proc: 0]p_rhs: call_update: 0.328 [ms]
[OGL LOG][Proc: 0]p: init_precond: 0.028 [ms]
[OGL LOG][StoppingCriterion.H:239] Creating stopping criterion with minIter 185 frequency 7
[OGL LOG][Proc: 0]p: generate_solver: 0.03 [ms]
[OGL LOG][Proc: 0]p: solve: 89.805 [ms]
[OGL LOG][Proc: 0]p: copy_x_back: 0.6 [ms]
[OGL LOG][lduLduBase.H:330] 
Statistics:
	Time per iteration: 297 [mu s]
	Time per residual norm calculation: 130.000000 [mu s]
	Time per iteration and DOF: 0.297000 [ns]
	Retrieve results bandwidth 3.333000 [GByte/s]
[OGL LOG][Proc: 0]p: solve_multi_gpu: 118.169 [ms]
nonecudaGKOCG:  Solving for p, Initial residual = 0.0159509, Final residual = 9.87945e-05, No Iterations 302
[INFO] SolveP: 126.745 [ms]
time step continuity errors : sum local = 1.42327e-08, global = -6.00523e-21, cumulative = -5.9376e-20
[INFO] ContinuityError: 4.405 [ms]
[INFO] CorrectBoundary: 0.105 [ms]
[INFO] PISOStep: 194.563 [ms]
[INFO] MatrixAssemblyPI: 35.174 [ms]
[INFO] AdjustPhi: 1.725 [ms]
[INFO] ConstrainPressure: 0.002 [ms]
[INFO] MatrixAssemblyPII: 11.316 [ms]
[OGL LOG][Proc: 0]: global_index_init: 0.014 [ms]
[OGL LOG][Proc: 0]p_local_coeffs: call_update: 0 [ms]
[OGL LOG][Proc: 0]p_non_local_coeffs: call_update: 0 [ms]
[OGL LOG][Proc: 0]p: update_local_matrix_data: 6.695 [ms]
[OGL LOG][Proc: 0]p: update_non_local_matrix_data: 0.265 [ms]
[OGL LOG][Proc: 0]p: regenerate_distributed_matrix: 22.952 [ms]
[OGL LOG][Proc: 0]p_matrix: call_update: 23.508 [ms]
[OGL LOG][Proc: 0]p_rhs: call_update: 0.491 [ms]
[OGL LOG][Proc: 0]p: init_precond: 0.028 [ms]
[OGL LOG][StoppingCriterion.H:239] Creating stopping criterion with minIter 181 frequency 7
[OGL LOG][Proc: 0]p: generate_solver: 0.028 [ms]
[OGL LOG][Proc: 0]p: solve: 89.737 [ms]
[OGL LOG][Proc: 0]p: copy_x_back: 0.619 [ms]
[OGL LOG][lduLduBase.H:330] 
Statistics:
	Time per iteration: 297 [mu s]
	Time per residual norm calculation: 129.000000 [mu s]
	Time per iteration and DOF: 0.297000 [ns]
	Retrieve results bandwidth 3.231000 [GByte/s]
[OGL LOG][Proc: 0]p: solve_multi_gpu: 115.62 [ms]
nonecudaGKOCG:  Solving for p, Initial residual = 0.0144185, Final residual = 8.58409e-05, No Iterations 302
[INFO] SolveP: 124.246 [ms]
time step continuity errors : sum local = 1.21483e-08, global = 6.35921e-21, cumulative = -5.30168e-20
[INFO] ContinuityError: 4.414 [ms]
[INFO] CorrectBoundary: 0.106 [ms]
[INFO] PISOStep: 190.902 [ms]
[INFO] TimeStep: 711.89 [ms]
ExecutionTime = 20.35 s  ClockTime = 21 s

Time = 0.0075

Courant Number mean: 0.0678723 max: 0.476383
[INFO] MatrixAssemblyU: 32.93 [ms]
DILUPBiCGStab:  Solving for Ux, Initial residual = 0.00543191, Final residual = 1.1107e-05, No Iterations 5
DILUPBiCGStab:  Solving for Uy, Initial residual = 0.0116562, Final residual = 1.04652e-05, No Iterations 5
DILUPBiCGStab:  Solving for Uz, Initial residual = 0.0233508, Final residual = 3.05429e-05, No Iterations 5
[INFO] MomentumPredictor: 288.383 [ms]
[INFO] MatrixAssemblyPI: 36.337 [ms]
[INFO] AdjustPhi: 1.74 [ms]
[INFO] ConstrainPressure: 0.002 [ms]
[INFO] MatrixAssemblyPII: 11.259 [ms]
[OGL LOG][Proc: 0]: global_index_init: 0.013 [ms]
[OGL LOG][Proc: 0]p_local_coeffs: call_update: 0 [ms]
[OGL LOG][Proc: 0]p_non_local_coeffs: call_update: 0 [ms]
[OGL LOG][Proc: 0]p: update_local_matrix_data: 6.631 [ms]
[OGL LOG][Proc: 0]p: update_non_local_matrix_data: 0.273 [ms]
[OGL LOG][Proc: 0]p: regenerate_distributed_matrix: 25.715 [ms]
[OGL LOG][Proc: 0]p_matrix: call_update: 26.312 [ms]
[OGL LOG][Proc: 0]p_rhs: call_update: 0.324 [ms]
[OGL LOG][Proc: 0]p: init_precond: 0.026 [ms]
[OGL LOG][StoppingCriterion.H:239] Creating stopping criterion with minIter 181 frequency 7
[OGL LOG][Proc: 0]p: generate_solver: 0.025 [ms]
[OGL LOG][Proc: 0]p: solve: 92.943 [ms]
[OGL LOG][Proc: 0]p: copy_x_back: 0.59 [ms]
[OGL LOG][lduLduBase.H:330] 
Statistics:
	Time per iteration: 300 [mu s]
	Time per residual norm calculation: 129.000000 [mu s]
	Time per iteration and DOF: 0.300000 [ns]
	Retrieve results bandwidth 3.389000 [GByte/s]
[OGL LOG][Proc: 0]p: solve_multi_gpu: 121.22 [ms]
nonecudaGKOCG:  Solving for p, Initial residual = 0.0138288, Final residual = 9.08776e-05, No Iterations 309
[INFO] SolveP: 130.31 [ms]
time step continuity errors : sum local = 1.38325e-08, global = 3.51138e-21, cumulative = -4.95054e-20
[INFO] ContinuityError: 6.61 [ms]
[INFO] CorrectBoundary: 0.898 [ms]
[INFO] PISOStep: 202.043 [ms]
[INFO] MatrixAssemblyPI: 35.92 [ms]
[INFO] AdjustPhi: 1.724 [ms]
[INFO] ConstrainPressure: 0.002 [ms]
[INFO] MatrixAssemblyPII: 11.326 [ms]
[OGL LOG][Proc: 0]: global_index_init: 0.013 [ms]
[OGL LOG][Proc: 0]p_local_coeffs: call_update: 0 [ms]
[OGL LOG][Proc: 0]p_non_local_coeffs: call_update: 0 [ms]
[OGL LOG][Proc: 0]p: update_local_matrix_data: 6.565 [ms]
[OGL LOG][Proc: 0]p: update_non_local_matrix_data: 0.265 [ms]
[OGL LOG][Proc: 0]p: regenerate_distributed_matrix: 23.276 [ms]
[OGL LOG][Proc: 0]p_matrix: call_update: 23.865 [ms]
[OGL LOG][Proc: 0]p_rhs: call_update: 0.38 [ms]
[OGL LOG][Proc: 0]p: init_precond: 0.027 [ms]
[OGL LOG][StoppingCriterion.H:239] Creating stopping criterion with minIter 185 frequency 7
[OGL LOG][Proc: 0]p: generate_solver: 0.022 [ms]
[OGL LOG][Proc: 0]p: solve: 90.953 [ms]
[OGL LOG][Proc: 0]p: copy_x_back: 0.621 [ms]
[OGL LOG][lduLduBase.H:330] 
Statistics:
	Time per iteration: 301 [mu s]
	Time per residual norm calculation: 130.000000 [mu s]
	Time per iteration and DOF: 0.301000 [ns]
	Retrieve results bandwidth 3.220000 [GByte/s]
[OGL LOG][Proc: 0]p: solve_multi_gpu: 117.371 [ms]
nonecudaGKOCG:  Solving for p, Initial residual = 0.012594, Final residual = 8.92041e-05, No Iterations 302
[INFO] SolveP: 125.885 [ms]
time step continuity errors : sum local = 1.28063e-08, global = 1.05784e-20, cumulative = -3.8927e-20
[INFO] ContinuityError: 4.42 [ms]
[INFO] CorrectBoundary: 0.113 [ms]
[INFO] PISOStep: 193.523 [ms]
[INFO] TimeStep: 721.718 [ms]
ExecutionTime = 21.08 s  ClockTime = 22 s

Time = 0.008

Courant Number mean: 0.0692087 max: 0.476951
[INFO] MatrixAssemblyU: 37.589 [ms]
DILUPBiCGStab:  Solving for Ux, Initial residual = 0.0049849, Final residual = 1.01125e-05, No Iterations 5
DILUPBiCGStab:  Solving for Uy, Initial residual = 0.0107162, Final residual = 9.37575e-06, No Iterations 5
DILUPBiCGStab:  Solving for Uz, Initial residual = 0.0215632, Final residual = 3.08881e-05, No Iterations 5
[INFO] MomentumPredictor: 290.314 [ms]
[INFO] MatrixAssemblyPI: 36.705 [ms]
[INFO] AdjustPhi: 1.783 [ms]
[INFO] ConstrainPressure: 0.002 [ms]
[INFO] MatrixAssemblyPII: 11.341 [ms]
[OGL LOG][Proc: 0]: global_index_init: 0.016 [ms]
[OGL LOG][Proc: 0]p_local_coeffs: call_update: 0 [ms]
[OGL LOG][Proc: 0]p_non_local_coeffs: call_update: 0 [ms]
[OGL LOG][Proc: 0]p: update_local_matrix_data: 7.324 [ms]
[OGL LOG][Proc: 0]p: update_non_local_matrix_data: 0.308 [ms]
[OGL LOG][Proc: 0]p: regenerate_distributed_matrix: 26.09 [ms]
[OGL LOG][Proc: 0]p_matrix: call_update: 26.578 [ms]
[OGL LOG][Proc: 0]p_rhs: call_update: 0.342 [ms]
[OGL LOG][Proc: 0]p: init_precond: 0.029 [ms]
[OGL LOG][StoppingCriterion.H:239] Creating stopping criterion with minIter 181 frequency 7
[OGL LOG][Proc: 0]p: generate_solver: 0.022 [ms]
[OGL LOG][Proc: 0]p: solve: 94.466 [ms]
[OGL LOG][Proc: 0]p: copy_x_back: 0.596 [ms]
[OGL LOG][lduLduBase.H:330] 
Statistics:
	Time per iteration: 305 [mu s]
	Time per residual norm calculation: 132.000000 [mu s]
	Time per iteration and DOF: 0.305000 [ns]
	Retrieve results bandwidth 3.355000 [GByte/s]
[OGL LOG][Proc: 0]p: solve_multi_gpu: 123.254 [ms]
nonecudaGKOCG:  Solving for p, Initial residual = 0.0118186, Final residual = 9.5772e-05, No Iterations 309
[INFO] SolveP: 132.604 [ms]
time step continuity errors : sum local = 1.43426e-08, global = -3.53341e-21, cumulative = -4.24604e-20
[INFO] ContinuityError: 4.413 [ms]
[INFO] CorrectBoundary: 0.098 [ms]
[INFO] PISOStep: 200.915 [ms]
[INFO] MatrixAssemblyPI: 35.23 [ms]
[INFO] AdjustPhi: 1.741 [ms]
[INFO] ConstrainPressure: 0.002 [ms]
[INFO] MatrixAssemblyPII: 11.301 [ms]
[OGL LOG][Proc: 0]: global_index_init: 0.013 [ms]
[OGL LOG][Proc: 0]p_local_coeffs: call_update: 0 [ms]
[OGL LOG][Proc: 0]p_non_local_coeffs: call_update: 0 [ms]
[OGL LOG][Proc: 0]p: update_local_matrix_data: 6.625 [ms]
[OGL LOG][Proc: 0]p: update_non_local_matrix_data: 0.259 [ms]
[OGL LOG][Proc: 0]p: regenerate_distributed_matrix: 23.096 [ms]
[OGL LOG][Proc: 0]p_matrix: call_update: 23.696 [ms]
[OGL LOG][Proc: 0]p_rhs: call_update: 0.42 [ms]
[OGL LOG][Proc: 0]p: init_precond: 0.034 [ms]
[OGL LOG][StoppingCriterion.H:239] Creating stopping criterion with minIter 185 frequency 7
[OGL LOG][Proc: 0]p: generate_solver: 0.024 [ms]
[OGL LOG][Proc: 0]p: solve: 92.847 [ms]
[OGL LOG][Proc: 0]p: copy_x_back: 0.575 [ms]
[OGL LOG][lduLduBase.H:330] 
Statistics:
	Time per iteration: 307 [mu s]
	Time per residual norm calculation: 132.000000 [mu s]
	Time per iteration and DOF: 0.307000 [ns]
	Retrieve results bandwidth 3.478000 [GByte/s]
[OGL LOG][Proc: 0]p: solve_multi_gpu: 118.811 [ms]
nonecudaGKOCG:  Solving for p, Initial residual = 0.0109753, Final residual = 9.43711e-05, No Iterations 302
[INFO] SolveP: 127.402 [ms]
time step continuity errors : sum local = 1.34605e-08, global = 4.87759e-21, cumulative = -3.75828e-20
[INFO] ContinuityError: 4.426 [ms]
[INFO] CorrectBoundary: 0.101 [ms]
[INFO] PISOStep: 194.394 [ms]
[INFO] TimeStep: 730.434 [ms]
ExecutionTime = 21.81 s  ClockTime = 23 s

Time = 0.0085

Courant Number mean: 0.0704534 max: 0.477458
[INFO] MatrixAssemblyU: 33.111 [ms]
DILUPBiCGStab:  Solving for Ux, Initial residual = 0.00459772, Final residual = 9.1854e-06, No Iterations 5
DILUPBiCGStab:  Solving for Uy, Initial residual = 0.00988377, Final residual = 8.75223e-06, No Iterations 5
DILUPBiCGStab:  Solving for Uz, Initial residual = 0.0202587, Final residual = 2.94593e-05, No Iterations 5
[INFO] MomentumPredictor: 291.771 [ms]
[INFO] MatrixAssemblyPI: 37.224 [ms]
[INFO] AdjustPhi: 1.765 [ms]
[INFO] ConstrainPressure: 0.002 [ms]
[INFO] MatrixAssemblyPII: 11.296 [ms]
[OGL LOG][Proc: 0]: global_index_init: 0.027 [ms]
[OGL LOG][Proc: 0]p_local_coeffs: call_update: 0 [ms]
[OGL LOG][Proc: 0]p_non_local_coeffs: call_update: 0 [ms]
[OGL LOG][Proc: 0]p: update_local_matrix_data: 6.578 [ms]
[OGL LOG][Proc: 0]p: update_non_local_matrix_data: 0.285 [ms]
[OGL LOG][Proc: 0]p: regenerate_distributed_matrix: 25.58 [ms]
[OGL LOG][Proc: 0]p_matrix: call_update: 26.077 [ms]
[OGL LOG][Proc: 0]p_rhs: call_update: 0.344 [ms]
[OGL LOG][Proc: 0]p: init_precond: 0.026 [ms]
[OGL LOG][StoppingCriterion.H:239] Creating stopping criterion with minIter 181 frequency 7
[OGL LOG][Proc: 0]p: generate_solver: 0.026 [ms]
[OGL LOG][Proc: 0]p: solve: 94.085 [ms]
[OGL LOG][Proc: 0]p: copy_x_back: 0.621 [ms]
[OGL LOG][lduLduBase.H:330] 
Statistics:
	Time per iteration: 297 [mu s]
	Time per residual norm calculation: 130.000000 [mu s]
	Time per iteration and DOF: 0.297000 [ns]
	Retrieve results bandwidth 3.220000 [GByte/s]
[OGL LOG][Proc: 0]p: solve_multi_gpu: 122.383 [ms]
nonecudaGKOCG:  Solving for p, Initial residual = 0.0106641, Final residual = 9.30277e-05, No Iterations 316
[INFO] SolveP: 130.985 [ms]
time step continuity errors : sum local = 1.48511e-08, global = -6.07357e-21, cumulative = -4.36564e-20
[INFO] ContinuityError: 4.449 [ms]
[INFO] CorrectBoundary: 0.105 [ms]
[INFO] PISOStep: 200.231 [ms]
[INFO] MatrixAssemblyPI: 35.272 [ms]
[INFO] AdjustPhi: 1.759 [ms]
[INFO] ConstrainPressure: 0.002 [ms]
[INFO] MatrixAssemblyPII: 11.194 [ms]
[OGL LOG][Proc: 0]: global_index_init: 0.018 [ms]
[OGL LOG][Proc: 0]p_local_coeffs: call_update: 0 [ms]
[OGL LOG][Proc: 0]p_non_local_coeffs: call_update: 0 [ms]
[OGL LOG][Proc: 0]p: update_local_matrix_data: 6.697 [ms]
[OGL LOG][Proc: 0]p: update_non_local_matrix_data: 0.282 [ms]
[OGL LOG][Proc: 0]p: regenerate_distributed_matrix: 22.812 [ms]
[OGL LOG][Proc: 0]p_matrix: call_update: 23.343 [ms]
[OGL LOG][Proc: 0]p_rhs: call_update: 0.542 [ms]
[OGL LOG][Proc: 0]p: init_precond: 0.027 [ms]
[OGL LOG][StoppingCriterion.H:239] Creating stopping criterion with minIter 189 frequency 7
[OGL LOG][Proc: 0]p: generate_solver: 0.023 [ms]
[OGL LOG][Proc: 0]p: solve: 92.807 [ms]
[OGL LOG][Proc: 0]p: copy_x_back: 0.598 [ms]
[OGL LOG][lduLduBase.H:330] 
Statistics:
	Time per iteration: 307 [mu s]
	Time per residual norm calculation: 133.000000 [mu s]
	Time per iteration and DOF: 0.307000 [ns]
	Retrieve results bandwidth 3.344000 [GByte/s]
[OGL LOG][Proc: 0]p: solve_multi_gpu: 118.577 [ms]
nonecudaGKOCG:  Solving for p, Initial residual = 0.00995205, Final residual = 9.50306e-05, No Iterations 302
[INFO] SolveP: 127.271 [ms]
time step continuity errors : sum local = 1.38618e-08, global = -3.11801e-21, cumulative = -4.67744e-20
[INFO] ContinuityError: 4.834 [ms]
[INFO] CorrectBoundary: 0.105 [ms]
[INFO] PISOStep: 194.551 [ms]
[INFO] TimeStep: 724.496 [ms]
ExecutionTime = 22.52 s  ClockTime = 23 s

Time = 0.009

Courant Number mean: 0.0716158 max: 0.477916
[INFO] MatrixAssemblyU: 33.018 [ms]
DILUPBiCGStab:  Solving for Ux, Initial residual = 0.00425029, Final residual = 8.4888e-06, No Iterations 5
DILUPBiCGStab:  Solving for Uy, Initial residual = 0.00917477, Final residual = 8.18138e-06, No Iterations 5
DILUPBiCGStab:  Solving for Uz, Initial residual = 0.0188519, Final residual = 3.29018e-05, No Iterations 5
[INFO] MomentumPredictor: 289.268 [ms]
[INFO] MatrixAssemblyPI: 36.497 [ms]
[INFO] AdjustPhi: 1.742 [ms]
[INFO] ConstrainPressure: 0.003 [ms]
[INFO] MatrixAssemblyPII: 11.281 [ms]
[OGL LOG][Proc: 0]: global_index_init: 0.013 [ms]
[OGL LOG][Proc: 0]p_local_coeffs: call_update: 0 [ms]
[OGL LOG][Proc: 0]p_non_local_coeffs: call_update: 0 [ms]
[OGL LOG][Proc: 0]p: update_local_matrix_data: 6.749 [ms]
[OGL LOG][Proc: 0]p: update_non_local_matrix_data: 0.277 [ms]
[OGL LOG][Proc: 0]p: regenerate_distributed_matrix: 25.6 [ms]
[OGL LOG][Proc: 0]p_matrix: call_update: 26.114 [ms]
[OGL LOG][Proc: 0]p_rhs: call_update: 0.333 [ms]
[OGL LOG][Proc: 0]p: init_precond: 0.027 [ms]
[OGL LOG][StoppingCriterion.H:239] Creating stopping criterion with minIter 181 frequency 7
[OGL LOG][Proc: 0]p: generate_solver: 0.025 [ms]
[OGL LOG][Proc: 0]p: solve: 93.945 [ms]
[OGL LOG][Proc: 0]p: copy_x_back: 0.574 [ms]
[OGL LOG][lduLduBase.H:330] 
Statistics:
	Time per iteration: 297 [mu s]
	Time per residual norm calculation: 131.000000 [mu s]
	Time per iteration and DOF: 0.297000 [ns]
	Retrieve results bandwidth 3.484000 [GByte/s]
[OGL LOG][Proc: 0]p: solve_multi_gpu: 122.195 [ms]
nonecudaGKOCG:  Solving for p, Initial residual = 0.00962121, Final residual = 9.67054e-05, No Iterations 316
[INFO] SolveP: 130.918 [ms]
time step continuity errors : sum local = 1.54119e-08, global = 7.02524e-21, cumulative = -3.97492e-20
[INFO] ContinuityError: 4.44 [ms]
[INFO] CorrectBoundary: 0.171 [ms]
[INFO] PISOStep: 199.14 [ms]
[INFO] MatrixAssemblyPI: 35.101 [ms]
[INFO] AdjustPhi: 1.75 [ms]
[INFO] ConstrainPressure: 0.002 [ms]
[INFO] MatrixAssemblyPII: 11.288 [ms]
[OGL LOG][Proc: 0]: global_index_init: 0.021 [ms]
[OGL LOG][Proc: 0]p_local_coeffs: call_update: 0 [ms]
[OGL LOG][Proc: 0]p_non_local_coeffs: call_update: 0 [ms]
[OGL LOG][Proc: 0]p: update_local_matrix_data: 6.628 [ms]
[OGL LOG][Proc: 0]p: update_non_local_matrix_data: 0.279 [ms]
[OGL LOG][Proc: 0]p: regenerate_distributed_matrix: 22.832 [ms]
[OGL LOG][Proc: 0]p_matrix: call_update: 23.397 [ms]
[OGL LOG][Proc: 0]p_rhs: call_update: 0.431 [ms]
[OGL LOG][Proc: 0]p: init_precond: 0.027 [ms]
[OGL LOG][StoppingCriterion.H:239] Creating stopping criterion with minIter 189 frequency 7
[OGL LOG][Proc: 0]p: generate_solver: 0.022 [ms]
[OGL LOG][Proc: 0]p: solve: 91.74 [ms]
[OGL LOG][Proc: 0]p: copy_x_back: 0.586 [ms]
[OGL LOG][lduLduBase.H:330] 
Statistics:
	Time per iteration: 303 [mu s]
	Time per residual norm calculation: 130.000000 [mu s]
	Time per iteration and DOF: 0.303000 [ns]
	Retrieve results bandwidth 3.412000 [GByte/s]
[OGL LOG][Proc: 0]p: solve_multi_gpu: 117.424 [ms]
nonecudaGKOCG:  Solving for p, Initial residual = 0.00904952, Final residual = 9.71453e-05, No Iterations 302
[INFO] SolveP: 126.028 [ms]
time step continuity errors : sum local = 1.40998e-08, global = 9.85146e-21, cumulative = -2.98977e-20
[INFO] ContinuityError: 4.401 [ms]
[INFO] CorrectBoundary: 0.11 [ms]
[INFO] PISOStep: 192.817 [ms]
[INFO] TimeStep: 719.169 [ms]
ExecutionTime = 23.24 s  ClockTime = 24 s

Time = 0.0095

Courant Number mean: 0.0727018 max: 0.478328
[INFO] MatrixAssemblyU: 33.547 [ms]
DILUPBiCGStab:  Solving for Ux, Initial residual = 0.00395507, Final residual = 7.82849e-06, No Iterations 5
DILUPBiCGStab:  Solving for Uy, Initial residual = 0.00851583, Final residual = 7.60957e-06, No Iterations 5
DILUPBiCGStab:  Solving for Uz, Initial residual = 0.0179543, Final residual = 3.41685e-05, No Iterations 5
[INFO] MomentumPredictor: 290.955 [ms]
[INFO] MatrixAssemblyPI: 36.497 [ms]
[INFO] AdjustPhi: 1.78 [ms]
[INFO] ConstrainPressure: 0.002 [ms]
[INFO] MatrixAssemblyPII: 11.566 [ms]
[OGL LOG][Proc: 0]: global_index_init: 0.015 [ms]
[OGL LOG][Proc: 0]p_local_coeffs: call_update: 0 [ms]
[OGL LOG][Proc: 0]p_non_local_coeffs: call_update: 0 [ms]
[OGL LOG][Proc: 0]p: update_local_matrix_data: 6.64 [ms]
[OGL LOG][Proc: 0]p: update_non_local_matrix_data: 0.295 [ms]
[OGL LOG][Proc: 0]p: regenerate_distributed_matrix: 25.652 [ms]
[OGL LOG][Proc: 0]p_matrix: call_update: 26.142 [ms]
[OGL LOG][Proc: 0]p_rhs: call_update: 0.325 [ms]
[OGL LOG][Proc: 0]p: init_precond: 0.026 [ms]
[OGL LOG][StoppingCriterion.H:239] Creating stopping criterion with minIter 181 frequency 7
[OGL LOG][Proc: 0]p: generate_solver: 0.027 [ms]
[OGL LOG][Proc: 0]p: solve: 194.306 [ms]
[OGL LOG][Proc: 0]p: copy_x_back: 0.573 [ms]
[OGL LOG][lduLduBase.H:330] 
Statistics:
	Time per iteration: 282 [mu s]
	Time per residual norm calculation: 143.000000 [mu s]
	Time per iteration and DOF: 0.282000 [ns]
	Retrieve results bandwidth 3.490000 [GByte/s]
[OGL LOG][Proc: 0]p: solve_multi_gpu: 222.645 [ms]
nonecudaGKOCG:  Solving for p, Initial residual = 0.00898266, Final residual = 9.33069e-05, No Iterations 687
[INFO] SolveP: 231.266 [ms]
time step continuity errors : sum local = 1.3047e-08, global = -4.69408e-21, cumulative = -3.45918e-20
[INFO] ContinuityError: 4.392 [ms]
[INFO] CorrectBoundary: 0.101 [ms]
[INFO] PISOStep: 299.562 [ms]
[INFO] MatrixAssemblyPI: 35.192 [ms]
[INFO] AdjustPhi: 1.737 [ms]
[INFO] ConstrainPressure: 0.002 [ms]
[INFO] MatrixAssemblyPII: 11.228 [ms]
[OGL LOG][Proc: 0]: global_index_init: 0.015 [ms]
[OGL LOG][Proc: 0]p_local_coeffs: call_update: 0 [ms]
[OGL LOG][Proc: 0]p_non_local_coeffs: call_update: 0 [ms]
[OGL LOG][Proc: 0]p: update_local_matrix_data: 6.613 [ms]
[OGL LOG][Proc: 0]p: update_non_local_matrix_data: 0.299 [ms]
[OGL LOG][Proc: 0]p: regenerate_distributed_matrix: 23.064 [ms]
[OGL LOG][Proc: 0]p_matrix: call_update: 23.678 [ms]
[OGL LOG][Proc: 0]p_rhs: call_update: 0.393 [ms]
[OGL LOG][Proc: 0]p: init_precond: 0.027 [ms]
[OGL LOG][StoppingCriterion.H:239] Creating stopping criterion with minIter 412 frequency 16
[OGL LOG][Proc: 0]p: generate_solver: 0.025 [ms]
[OGL LOG][Proc: 0]p: solve: 187.125 [ms]
[OGL LOG][Proc: 0]p: copy_x_back: 0.852 [ms]
[OGL LOG][lduLduBase.H:330] 
Statistics:
	Time per iteration: 271 [mu s]
	Time per residual norm calculation: 136.000000 [mu s]
	Time per iteration and DOF: 0.271000 [ns]
	Retrieve results bandwidth 2.347000 [GByte/s]
[OGL LOG][Proc: 0]p: solve_multi_gpu: 213.327 [ms]
nonecudaGKOCG:  Solving for p, Initial residual = 0.00849398, Final residual = 7.33958e-05, No Iterations 689
[INFO] SolveP: 222.251 [ms]
time step continuity errors : sum local = 1.02663e-08, global = -1.38509e-20, cumulative = -4.84427e-20
[INFO] ContinuityError: 4.588 [ms]
[INFO] CorrectBoundary: 0.117 [ms]
[INFO] PISOStep: 290.205 [ms]
[INFO] TimeStep: 919.154 [ms]
ExecutionTime = 24.16 s  ClockTime = 25 s

Time = 0.01

Courant Number mean: 0.0737185 max: 0.478705
[INFO] MatrixAssemblyU: 33.084 [ms]
DILUPBiCGStab:  Solving for Ux, Initial residual = 0.0036792, Final residual = 7.26174e-06, No Iterations 5
DILUPBiCGStab:  Solving for Uy, Initial residual = 0.00794325, Final residual = 7.08127e-06, No Iterations 5
DILUPBiCGStab:  Solving for Uz, Initial residual = 0.0164265, Final residual = 2.41564e-05, No Iterations 5
[INFO] MomentumPredictor: 289.9 [ms]
[INFO] MatrixAssemblyPI: 36.522 [ms]
[INFO] AdjustPhi: 1.765 [ms]
[INFO] ConstrainPressure: 0.002 [ms]
[INFO] MatrixAssemblyPII: 11.185 [ms]
[OGL LOG][Proc: 0]: global_index_init: 0.015 [ms]
[OGL LOG][Proc: 0]p_local_coeffs: call_update: 0 [ms]
[OGL LOG][Proc: 0]p_non_local_coeffs: call_update: 0 [ms]
[OGL LOG][Proc: 0]p: update_local_matrix_data: 6.614 [ms]
[OGL LOG][Proc: 0]p: update_non_local_matrix_data: 0.29 [ms]
[OGL LOG][Proc: 0]p: regenerate_distributed_matrix: 25.898 [ms]
[OGL LOG][Proc: 0]p_matrix: call_update: 26.478 [ms]
[OGL LOG][Proc: 0]p_rhs: call_update: 0.338 [ms]
[OGL LOG][Proc: 0]p: init_precond: 0.029 [ms]
[OGL LOG][StoppingCriterion.H:239] Creating stopping criterion with minIter 413 frequency 16
[OGL LOG][Proc: 0]p: generate_solver: 0.026 [ms]
[OGL LOG][Proc: 0]p: solve: 186.287 [ms]
[OGL LOG][Proc: 0]p: copy_x_back: 0.584 [ms]
[OGL LOG][lduLduBase.H:330] 
Statistics:
	Time per iteration: 270 [mu s]
	Time per residual norm calculation: 132.000000 [mu s]
	Time per iteration and DOF: 0.270000 [ns]
	Retrieve results bandwidth 3.424000 [GByte/s]
[OGL LOG][Proc: 0]p: solve_multi_gpu: 214.943 [ms]
nonecudaGKOCG:  Solving for p, Initial residual = 0.00831619, Final residual = 7.36647e-05, No Iterations 689
[INFO] SolveP: 223.559 [ms]
time step continuity errors : sum local = 1.03053e-08, global = -9.46605e-22, cumulative = -4.93893e-20
[INFO] ContinuityError: 4.406 [ms]
[INFO] CorrectBoundary: 0.115 [ms]
[INFO] PISOStep: 292.056 [ms]
[INFO] MatrixAssemblyPI: 35.097 [ms]
[INFO] AdjustPhi: 1.732 [ms]
[INFO] ConstrainPressure: 0.001 [ms]
[INFO] MatrixAssemblyPII: 11.26 [ms]
[OGL LOG][Proc: 0]: global_index_init: 0.015 [ms]
[OGL LOG][Proc: 0]p_local_coeffs: call_update: 0 [ms]
[OGL LOG][Proc: 0]p_non_local_coeffs: call_update: 0 [ms]
[OGL LOG][Proc: 0]p: update_local_matrix_data: 6.633 [ms]
[OGL LOG][Proc: 0]p: update_non_local_matrix_data: 0.275 [ms]
[OGL LOG][Proc: 0]p: regenerate_distributed_matrix: 22.841 [ms]
[OGL LOG][Proc: 0]p_matrix: call_update: 23.413 [ms]
[OGL LOG][Proc: 0]p_rhs: call_update: 0.351 [ms]
[OGL LOG][Proc: 0]p: init_precond: 0.028 [ms]
[OGL LOG][StoppingCriterion.H:239] Creating stopping criterion with minIter 413 frequency 11
[OGL LOG][Proc: 0]p: generate_solver: 0.024 [ms]
[OGL LOG][Proc: 0]p: solve: 186.121 [ms]
[OGL LOG][Proc: 0]p: copy_x_back: 0.63 [ms]
[OGL LOG][lduLduBase.H:330] 
Statistics:
	Time per iteration: 272 [mu s]
	Time per residual norm calculation: 129.000000 [mu s]
	Time per iteration and DOF: 0.272000 [ns]
	Retrieve results bandwidth 3.174000 [GByte/s]
[OGL LOG][Proc: 0]p: solve_multi_gpu: 211.769 [ms]
nonecudaGKOCG:  Solving for p, Initial residual = 0.00788279, Final residual = 9.12034e-05, No Iterations 683
[INFO] SolveP: 220.363 [ms]
time step continuity errors : sum local = 1.27621e-08, global = 6.19778e-22, cumulative = -4.87695e-20
[INFO] ContinuityError: 4.403 [ms]
[INFO] CorrectBoundary: 0.125 [ms]
[INFO] PISOStep: 286.878 [ms]
[INFO] TimeStep: 906.857 [ms]
ExecutionTime = 25.06 s  ClockTime = 26 s

End

Finalising parallel run
