/*---------------------------------------------------------------------------*\
| =========                 |                                                 |
| \\      /  F ield         | OpenFOAM: The Open Source CFD Toolbox           |
|  \\    /   O peration     | Version:  2212                                  |
|   \\  /    A nd           | Website:  www.openfoam.com                      |
|    \\/     M anipulation  |                                                 |
\*---------------------------------------------------------------------------*/
Build  : 5614a57-20230228 OPENFOAM=2212 patch=230110 version=v2212
Arch   : "LSB;label=32;scalar=64"
Exec   : icoFoam -parallel -case /home/greole/data/code/exasim-project/micro_benchmarks/LidDrivenCavity3D/workspace/40c0d8fe1ed02a662f99859ffb44bd32/case
Date   : Jul 01 2023
Time   : 20:46:04
Host   : guyot
PID    : 2277014
I/O    : uncollated
Case   : /home/greole/data/code/exasim-project/micro_benchmarks/LidDrivenCavity3D/workspace/40c0d8fe1ed02a662f99859ffb44bd32/case
nProcs : 64
Hosts  :
(
    (guyot 64)
)
Pstream initialized with:
    floatTransfer      : 0
    nProcsSimpleSum    : 0
    commsType          : nonBlocking
    polling iterations : 0
trapFpe: Floating point exception trapping enabled (FOAM_SIGFPE).
fileModificationChecking : Monitoring run-time modified files using timeStampMaster (fileModificationSkew 5, maxFileModificationPolls 20)
allowSystemOperations : Allowing user-supplied system call operations

// * * * * * * * * * * * * * * * * * * * * * * * * * * * * * * * * * * * * * //
Create time

--> FOAM Warning : 
    From void* Foam::dlLibraryTable::openLibrary(const Foam::fileName&, bool)
    in file db/dynamicLibrary/dlLibraryTable/dlLibraryTable.C at line 188
    Could not load "libpetscFoam.so"
libpetscFoam.so: cannot open shared object file: No such file or directory
Create mesh for time = 0


PISO: Operating solver in PISO mode

Reading transportProperties

Reading field p

Reading field U

Reading/calculating face flux field phi


Starting time loop

Time = 0.000125

Courant Number mean: 8.02505e-18 max: 4.85723e-14
[INFO] MatrixAssemblyU: 1023.06 [ms]
DILUPBiCGStab:  Solving for Ux, Initial residual = 1, Final residual = 0.0222889, No Iterations 5
DILUPBiCGStab:  Solving for Uy:  solution singularity
DILUPBiCGStab:  Solving for Uz:  solution singularity
[INFO] MomentumPredictor: 3539.65 [ms]
[INFO] MatrixAssemblyPI: 1080.73 [ms]
[INFO] AdjustPhi: 57.556 [ms]
[INFO] ConstrainPressure: 0.008 [ms]
[INFO] MatrixAssemblyPII: 294.605 [ms]
nonePCG:  Solving for p, Initial residual = 1, Final residual = 9.91548e-05, No Iterations 3244
[INFO] SolveP: 346896 [ms]
time step continuity errors : sum local = 2.82657e-09, global = -5.04205e-22, cumulative = -5.04205e-22
[INFO] ContinuityError: 103.266 [ms]
[INFO] CorrectBoundary: 6.647 [ms]
[INFO] PISOStep: 348786 [ms]
[INFO] MatrixAssemblyPI: 1023.77 [ms]
[INFO] AdjustPhi: 50.879 [ms]
[INFO] ConstrainPressure: 0.014 [ms]
[INFO] MatrixAssemblyPII: 294.627 [ms]
nonePCG:  Solving for p, Initial residual = 0.830461, Final residual = 9.84982e-05, No Iterations 3231
[INFO] SolveP: 345334 [ms]
time step continuity errors : sum local = 3.33483e-09, global = 6.43443e-22, cumulative = 1.39238e-22
[INFO] ContinuityError: 103.242 [ms]
[INFO] CorrectBoundary: 7.134 [ms]
[INFO] PISOStep: 347160 [ms]
[INFO] TimeStep: 700618 [ms]
ExecutionTime = 696.23 s  ClockTime = 703 s

Time = 0.00025

Courant Number mean: 0.0108029 max: 0.437609
[INFO] MatrixAssemblyU: 941.749 [ms]
DILUPBiCGStab:  Solving for Ux, Initial residual = 0.108273, Final residual = 0.013914, No Iterations 5
DILUPBiCGStab:  Solving for Uy, Initial residual = 0.485093, Final residual = 0.0551465, No Iterations 5
DILUPBiCGStab:  Solving for Uz, Initial residual = 0.988182, Final residual = 0.124561, No Iterations 5
[INFO] MomentumPredictor: 6899.79 [ms]
[INFO] MatrixAssemblyPI: 1054.61 [ms]
[INFO] AdjustPhi: 51.686 [ms]
[INFO] ConstrainPressure: 0.003 [ms]
[INFO] MatrixAssemblyPII: 296.476 [ms]
nonePCG:  Solving for p, Initial residual = 0.915397, Final residual = 9.98445e-05, No Iterations 3182
[INFO] SolveP: 340343 [ms]
time step continuity errors : sum local = 7.7985e-09, global = 3.30291e-23, cumulative = 1.72267e-22
[INFO] ContinuityError: 103.444 [ms]
[INFO] CorrectBoundary: 5.319 [ms]
[INFO] PISOStep: 342201 [ms]
[INFO] MatrixAssemblyPI: 1016.61 [ms]
[INFO] AdjustPhi: 59.106 [ms]
[INFO] ConstrainPressure: 0.015 [ms]
[INFO] MatrixAssemblyPII: 295.411 [ms]
nonePCG:  Solving for p, Initial residual = 0.863826, Final residual = 9.78126e-05, No Iterations 3179
[INFO] SolveP: 339757 [ms]
time step continuity errors : sum local = 7.78651e-09, global = -6.57447e-23, cumulative = 1.06522e-22
[INFO] ContinuityError: 104.065 [ms]
[INFO] CorrectBoundary: 6.745 [ms]
[INFO] PISOStep: 341584 [ms]
[INFO] TimeStep: 691732 [ms]
ExecutionTime = 1381.48 s  ClockTime = 1395 s

Time = 0.000375

Courant Number mean: 0.0168808 max: 0.511648
[INFO] MatrixAssemblyU: 940.41 [ms]
DILUPBiCGStab:  Solving for Ux, Initial residual = 0.0537551, Final residual = 0.00567227, No Iterations 5
DILUPBiCGStab:  Solving for Uy, Initial residual = 0.262785, Final residual = 0.0274795, No Iterations 5
DILUPBiCGStab:  Solving for Uz, Initial residual = 0.868652, Final residual = 0.0891739, No Iterations 5
[INFO] MomentumPredictor: 6902.51 [ms]
[INFO] MatrixAssemblyPI: 1054.67 [ms]
[INFO] AdjustPhi: 52.022 [ms]
[INFO] ConstrainPressure: 0.003 [ms]
[INFO] MatrixAssemblyPII: 297.221 [ms]
nonePCG:  Solving for p, Initial residual = 0.944444, Final residual = 9.92448e-05, No Iterations 1534
[INFO] SolveP: 164133 [ms]
time step continuity errors : sum local = 9.66056e-09, global = 6.15216e-22, cumulative = 7.21738e-22
[INFO] ContinuityError: 103.572 [ms]
[INFO] CorrectBoundary: 5.433 [ms]
[INFO] PISOStep: 165992 [ms]
[INFO] MatrixAssemblyPI: 1022.39 [ms]
[INFO] AdjustPhi: 52.675 [ms]
[INFO] ConstrainPressure: 0.014 [ms]
[INFO] MatrixAssemblyPII: 296.453 [ms]
nonePCG:  Solving for p, Initial residual = 0.909212, Final residual = 9.95186e-05, No Iterations 1532
[INFO] SolveP: 163852 [ms]
time step continuity errors : sum local = 9.45599e-09, global = 4.81865e-22, cumulative = 1.2036e-21
[INFO] ContinuityError: 103.907 [ms]
[INFO] CorrectBoundary: 4.883 [ms]
[INFO] PISOStep: 165678 [ms]
[INFO] TimeStep: 339618 [ms]
ExecutionTime = 1717.91 s  ClockTime = 1735 s

Time = 0.0005

Courant Number mean: 0.0204828 max: 0.477536
[INFO] MatrixAssemblyU: 942.598 [ms]
DILUPBiCGStab:  Solving for Ux, Initial residual = 0.0417791, Final residual = 0.00524852, No Iterations 5
DILUPBiCGStab:  Solving for Uy, Initial residual = 0.214783, Final residual = 0.0252762, No Iterations 5
DILUPBiCGStab:  Solving for Uz, Initial residual = 0.782598, Final residual = 0.0667362, No Iterations 5
[INFO] MomentumPredictor: 6907.89 [ms]
[INFO] MatrixAssemblyPI: 1044.11 [ms]
[INFO] AdjustPhi: 63.087 [ms]
[INFO] ConstrainPressure: 0.004 [ms]
[INFO] MatrixAssemblyPII: 296.857 [ms]
nonePCG:  Solving for p, Initial residual = 0.941174, Final residual = 9.99033e-05, No Iterations 1515
[INFO] SolveP: 162035 [ms]
time step continuity errors : sum local = 1.19935e-08, global = 5.6543e-22, cumulative = 1.76903e-21
[INFO] ContinuityError: 103.434 [ms]
[INFO] CorrectBoundary: 6.742 [ms]
[INFO] PISOStep: 163893 [ms]
[INFO] MatrixAssemblyPI: 1023.76 [ms]
[INFO] AdjustPhi: 51.73 [ms]
[INFO] ConstrainPressure: 0.015 [ms]
[INFO] MatrixAssemblyPII: 296.765 [ms]
nonePCG:  Solving for p, Initial residual = 0.882137, Final residual = 9.90041e-05, No Iterations 1507
[INFO] SolveP: 161169 [ms]
time step continuity errors : sum local = 1.17602e-08, global = 6.13186e-22, cumulative = 2.38222e-21
[INFO] ContinuityError: 103.966 [ms]
[INFO] CorrectBoundary: 5.713 [ms]
[INFO] PISOStep: 162996 [ms]
[INFO] TimeStep: 334845 [ms]
ExecutionTime = 2049.63 s  ClockTime = 2069 s

Time = 0.000625

Courant Number mean: 0.0235408 max: 0.556487
[INFO] MatrixAssemblyU: 942.108 [ms]
DILUPBiCGStab:  Solving for Ux, Initial residual = 0.0378438, Final residual = 0.00483229, No Iterations 5
DILUPBiCGStab:  Solving for Uy, Initial residual = 0.186218, Final residual = 0.020968, No Iterations 5
DILUPBiCGStab:  Solving for Uz, Initial residual = 0.75501, Final residual = 0.0574891, No Iterations 5
[INFO] MomentumPredictor: 6901.02 [ms]
[INFO] MatrixAssemblyPI: 1053.46 [ms]
[INFO] AdjustPhi: 52.189 [ms]
[INFO] ConstrainPressure: 0.003 [ms]
[INFO] MatrixAssemblyPII: 296.524 [ms]
nonePCG:  Solving for p, Initial residual = 0.956204, Final residual = 9.93423e-05, No Iterations 3094
[INFO] SolveP: 330768 [ms]
time step continuity errors : sum local = 1.30662e-08, global = 1.28603e-21, cumulative = 3.66825e-21
[INFO] ContinuityError: 102.951 [ms]
[INFO] CorrectBoundary: 6.118 [ms]
[INFO] PISOStep: 332624 [ms]
[INFO] MatrixAssemblyPI: 1022.6 [ms]
[INFO] AdjustPhi: 52.788 [ms]
[INFO] ConstrainPressure: 0.017 [ms]
[INFO] MatrixAssemblyPII: 296.316 [ms]
nonePCG:  Solving for p, Initial residual = 0.915073, Final residual = 9.99377e-05, No Iterations 3089
[INFO] SolveP: 330069 [ms]
time step continuity errors : sum local = 1.30705e-08, global = 4.32719e-22, cumulative = 4.10097e-21
[INFO] ContinuityError: 102.932 [ms]
[INFO] CorrectBoundary: 7.838 [ms]
[INFO] PISOStep: 331896 [ms]
[INFO] TimeStep: 672468 [ms]
ExecutionTime = 2715.76 s  ClockTime = 2742 s

Time = 0.00075

Courant Number mean: 0.0258635 max: 0.483895
[INFO] MatrixAssemblyU: 944.403 [ms]
DILUPBiCGStab:  Solving for Ux, Initial residual = 0.0356491, Final residual = 0.00454397, No Iterations 5
DILUPBiCGStab:  Solving for Uy, Initial residual = 0.172888, Final residual = 0.0178531, No Iterations 5
DILUPBiCGStab:  Solving for Uz, Initial residual = 0.697587, Final residual = 0.04786, No Iterations 5
[INFO] MomentumPredictor: 6895.38 [ms]
[INFO] MatrixAssemblyPI: 1055.93 [ms]
[INFO] AdjustPhi: 50.756 [ms]
[INFO] ConstrainPressure: 0.003 [ms]
[INFO] MatrixAssemblyPII: 296.406 [ms]
nonePCG:  Solving for p, Initial residual = 0.953179, Final residual = 9.89011e-05, No Iterations 3090
[INFO] SolveP: 330348 [ms]
time step continuity errors : sum local = 1.49972e-08, global = 9.9113e-23, cumulative = 4.20008e-21
[INFO] ContinuityError: 103.794 [ms]
[INFO] CorrectBoundary: 6.631 [ms]
[INFO] PISOStep: 332206 [ms]
[INFO] MatrixAssemblyPI: 1024.08 [ms]
[INFO] AdjustPhi: 51.592 [ms]
[INFO] ConstrainPressure: 0.013 [ms]
[INFO] MatrixAssemblyPII: 296.433 [ms]
nonePCG:  Solving for p, Initial residual = 0.89224, Final residual = 9.96998e-05, No Iterations 1507
[INFO] SolveP: 161195 [ms]
time step continuity errors : sum local = 1.67266e-08, global = 1.15578e-21, cumulative = 5.35586e-21
[INFO] ContinuityError: 104.353 [ms]
[INFO] CorrectBoundary: 5.214 [ms]
[INFO] PISOStep: 163023 [ms]
[INFO] TimeStep: 503175 [ms]
ExecutionTime = 3214.15 s  ClockTime = 3245 s

Time = 0.000875

Courant Number mean: 0.0280483 max: 0.612749
[INFO] MatrixAssemblyU: 944.698 [ms]
DILUPBiCGStab:  Solving for Ux, Initial residual = 0.0355446, Final residual = 0.00433735, No Iterations 5
DILUPBiCGStab:  Solving for Uy, Initial residual = 0.178154, Final residual = 0.0168789, No Iterations 5
DILUPBiCGStab:  Solving for Uz, Initial residual = 0.703304, Final residual = 0.0487525, No Iterations 5
[INFO] MomentumPredictor: 6895.91 [ms]
[INFO] MatrixAssemblyPI: 1054.96 [ms]
[INFO] AdjustPhi: 51.444 [ms]
[INFO] ConstrainPressure: 0.003 [ms]
[INFO] MatrixAssemblyPII: 297.029 [ms]
nonePCG:  Solving for p, Initial residual = 0.963637, Final residual = 9.89489e-05, No Iterations 3074
[INFO] SolveP: 328556 [ms]
time step continuity errors : sum local = 1.69492e-08, global = -5.12619e-22, cumulative = 4.84324e-21
[INFO] ContinuityError: 102.974 [ms]
[INFO] CorrectBoundary: 6.668 [ms]
[INFO] PISOStep: 330414 [ms]
[INFO] MatrixAssemblyPI: 1022.07 [ms]
[INFO] AdjustPhi: 52.598 [ms]
[INFO] ConstrainPressure: 0.014 [ms]
[INFO] MatrixAssemblyPII: 296.644 [ms]
nonePCG:  Solving for p, Initial residual = 0.917178, Final residual = 9.94945e-05, No Iterations 3072
[INFO] SolveP: 328375 [ms]
time step continuity errors : sum local = 1.69868e-08, global = 8.33527e-22, cumulative = 5.67677e-21
[INFO] ContinuityError: 103.553 [ms]
[INFO] CorrectBoundary: 7.135 [ms]
[INFO] PISOStep: 330200 [ms]
[INFO] TimeStep: 668560 [ms]
ExecutionTime = 3876.32 s  ClockTime = 3914 s

Time = 0.001

Courant Number mean: 0.0297931 max: 0.492854
[INFO] MatrixAssemblyU: 942.247 [ms]
DILUPBiCGStab:  Solving for Ux, Initial residual = 0.0365166, Final residual = 0.00413075, No Iterations 5
DILUPBiCGStab:  Solving for Uy, Initial residual = 0.172362, Final residual = 0.0147157, No Iterations 5
DILUPBiCGStab:  Solving for Uz, Initial residual = 0.687413, Final residual = 0.0415383, No Iterations 5
[INFO] MomentumPredictor: 6899.64 [ms]
[INFO] MatrixAssemblyPI: 1055.29 [ms]
[INFO] AdjustPhi: 51.008 [ms]
[INFO] ConstrainPressure: 0.004 [ms]
[INFO] MatrixAssemblyPII: 296.686 [ms]
nonePCG:  Solving for p, Initial residual = 0.961729, Final residual = 9.83348e-05, No Iterations 3071
[INFO] SolveP: 328211 [ms]
time step continuity errors : sum local = 1.93525e-08, global = 1.20804e-21, cumulative = 6.88481e-21
[INFO] ContinuityError: 103.197 [ms]
[INFO] CorrectBoundary: 7.778 [ms]
[INFO] PISOStep: 330068 [ms]
[INFO] MatrixAssemblyPI: 1022.6 [ms]
[INFO] AdjustPhi: 53.152 [ms]
[INFO] ConstrainPressure: 0.015 [ms]
[INFO] MatrixAssemblyPII: 296.251 [ms]
nonePCG:  Solving for p, Initial residual = 0.898684, Final residual = 9.9549e-05, No Iterations 3068
[INFO] SolveP: 327865 [ms]
time step continuity errors : sum local = 1.98706e-08, global = 1.01645e-21, cumulative = 7.90126e-21
[INFO] ContinuityError: 103.665 [ms]
[INFO] CorrectBoundary: 6.882 [ms]
[INFO] PISOStep: 329691 [ms]
[INFO] TimeStep: 667706 [ms]
ExecutionTime = 4537.71 s  ClockTime = 4581 s

Time = 0.001125

Courant Number mean: 0.0315885 max: 0.69632
[INFO] MatrixAssemblyU: 943.503 [ms]
DILUPBiCGStab:  Solving for Ux, Initial residual = 0.0378206, Final residual = 0.00390038, No Iterations 5
DILUPBiCGStab:  Solving for Uy, Initial residual = 0.189053, Final residual = 0.015125, No Iterations 5
DILUPBiCGStab:  Solving for Uz, Initial residual = 0.695247, Final residual = 0.0386975, No Iterations 5
[INFO] MomentumPredictor: 6897.73 [ms]
[INFO] MatrixAssemblyPI: 1053.52 [ms]
[INFO] AdjustPhi: 52.206 [ms]
[INFO] ConstrainPressure: 0.003 [ms]
[INFO] MatrixAssemblyPII: 295.651 [ms]
nonePCG:  Solving for p, Initial residual = 0.96923, Final residual = 9.90746e-05, No Iterations 3069
[INFO] SolveP: 328013 [ms]
time step continuity errors : sum local = 2.22449e-08, global = 4.4713e-22, cumulative = 8.34839e-21
[INFO] ContinuityError: 103.197 [ms]
[INFO] CorrectBoundary: 8.682 [ms]
[INFO] PISOStep: 329869 [ms]
[INFO] MatrixAssemblyPI: 1021.89 [ms]
[INFO] AdjustPhi: 54.982 [ms]
[INFO] ConstrainPressure: 0.013 [ms]
[INFO] MatrixAssemblyPII: 296.175 [ms]
nonePCG:  Solving for p, Initial residual = 0.918362, Final residual = 9.94158e-05, No Iterations 3067
[INFO] SolveP: 327768 [ms]
time step continuity errors : sum local = 2.22974e-08, global = 6.81112e-22, cumulative = 9.0295e-21
[INFO] ContinuityError: 103.854 [ms]
[INFO] CorrectBoundary: 4.963 [ms]
[INFO] PISOStep: 329596 [ms]
[INFO] TimeStep: 667411 [ms]
ExecutionTime = 5198.81 s  ClockTime = 5249 s

Time = 0.00125

Courant Number mean: 0.0330009 max: 0.509388
[INFO] MatrixAssemblyU: 939.765 [ms]
DILUPBiCGStab:  Solving for Ux, Initial residual = 0.0411917, Final residual = 0.003971, No Iterations 5
DILUPBiCGStab:  Solving for Uy, Initial residual = 0.187567, Final residual = 0.0133742, No Iterations 5
DILUPBiCGStab:  Solving for Uz, Initial residual = 0.69502, Final residual = 0.0375763, No Iterations 5
[INFO] MomentumPredictor: 6899.69 [ms]
[INFO] MatrixAssemblyPI: 1044.47 [ms]
[INFO] AdjustPhi: 62.683 [ms]
[INFO] ConstrainPressure: 0.002 [ms]
[INFO] MatrixAssemblyPII: 297.131 [ms]
nonePCG:  Solving for p, Initial residual = 0.968482, Final residual = 9.78051e-05, No Iterations 3070
[INFO] SolveP: 327994 [ms]
time step continuity errors : sum local = 2.54668e-08, global = 1.45111e-21, cumulative = 1.04806e-20
[INFO] ContinuityError: 103.605 [ms]
[INFO] CorrectBoundary: 6.995 [ms]
[INFO] PISOStep: 329852 [ms]
[INFO] MatrixAssemblyPI: 1019.04 [ms]
[INFO] AdjustPhi: 57.289 [ms]
[INFO] ConstrainPressure: 0.013 [ms]
[INFO] MatrixAssemblyPII: 292.928 [ms]
nonePCG:  Solving for p, Initial residual = 0.904007, Final residual = 9.86295e-05, No Iterations 3067
[INFO] SolveP: 327722 [ms]
time step continuity errors : sum local = 2.60191e-08, global = 7.59546e-22, cumulative = 1.12402e-20
[INFO] ContinuityError: 102.667 [ms]
[INFO] CorrectBoundary: 6.261 [ms]
[INFO] PISOStep: 329550 [ms]
[INFO] TimeStep: 667346 [ms]
ExecutionTime = 5859.91 s  ClockTime = 5916 s

Time = 0.001375

Courant Number mean: 0.0345942 max: 0.825879
[INFO] MatrixAssemblyU: 942.498 [ms]
DILUPBiCGStab:  Solving for Ux, Initial residual = 0.0439608, Final residual = 0.00378331, No Iterations 5
DILUPBiCGStab:  Solving for Uy, Initial residual = 0.211339, Final residual = 0.0144321, No Iterations 5
DILUPBiCGStab:  Solving for Uz, Initial residual = 0.708204, Final residual = 0.0367028, No Iterations 5
[INFO] MomentumPredictor: 6893.78 [ms]
[INFO] MatrixAssemblyPI: 1054.95 [ms]
[INFO] AdjustPhi: 51.93 [ms]
[INFO] ConstrainPressure: 0.002 [ms]
[INFO] MatrixAssemblyPII: 294.749 [ms]
nonePCG:  Solving for p, Initial residual = 0.97377, Final residual = 9.98869e-05, No Iterations 2948
[INFO] SolveP: 315064 [ms]
time step continuity errors : sum local = 3.00875e-08, global = 1.54967e-21, cumulative = 1.27898e-20
[INFO] ContinuityError: 103.303 [ms]
[INFO] CorrectBoundary: 6.79 [ms]
[INFO] PISOStep: 316922 [ms]
[INFO] MatrixAssemblyPI: 1022 [ms]
[INFO] AdjustPhi: 53.153 [ms]
[INFO] ConstrainPressure: 0.011 [ms]
[INFO] MatrixAssemblyPII: 296.424 [ms]
nonePCG:  Solving for p, Initial residual = 0.919169, Final residual = 9.96957e-05, No Iterations 3064
[INFO] SolveP: 327450 [ms]
time step continuity errors : sum local = 3.00544e-08, global = 1.25134e-21, cumulative = 1.40412e-20
[INFO] ContinuityError: 104.53 [ms]
[INFO] CorrectBoundary: 7.937 [ms]
[INFO] PISOStep: 329276 [ms]
[INFO] TimeStep: 654140 [ms]
ExecutionTime = 6507.95 s  ClockTime = 6570 s

Time = 0.0015

Courant Number mean: 0.0357941 max: 0.599135
[INFO] MatrixAssemblyU: 941.621 [ms]
DILUPBiCGStab:  Solving for Ux, Initial residual = 0.0494229, Final residual = 0.00400035, No Iterations 5
DILUPBiCGStab:  Solving for Uy, Initial residual = 0.2155, Final residual = 0.0132424, No Iterations 5
DILUPBiCGStab:  Solving for Uz, Initial residual = 0.711368, Final residual = 0.0359021, No Iterations 5
[INFO] MomentumPredictor: 6894.7 [ms]
[INFO] MatrixAssemblyPI: 1051.83 [ms]
[INFO] AdjustPhi: 54.256 [ms]
[INFO] ConstrainPressure: 0.002 [ms]
[INFO] MatrixAssemblyPII: 296.639 [ms]
nonePCG:  Solving for p, Initial residual = 0.973936, Final residual = 9.98941e-05, No Iterations 3070
[INFO] SolveP: 328066 [ms]
time step continuity errors : sum local = 3.52023e-08, global = 2.37168e-22, cumulative = 1.42783e-20
[INFO] ContinuityError: 103.812 [ms]
[INFO] CorrectBoundary: 5.404 [ms]
[INFO] PISOStep: 329924 [ms]
[INFO] MatrixAssemblyPI: 1021.41 [ms]
[INFO] AdjustPhi: 52.382 [ms]
[INFO] ConstrainPressure: 0.014 [ms]
[INFO] MatrixAssemblyPII: 293.061 [ms]
nonePCG:  Solving for p, Initial residual = 0.908649, Final residual = 9.79145e-05, No Iterations 3068
[INFO] SolveP: 327774 [ms]
time step continuity errors : sum local = 3.49194e-08, global = 1.0301e-21, cumulative = 1.53084e-20
[INFO] ContinuityError: 104.561 [ms]
[INFO] CorrectBoundary: 6.328 [ms]
[INFO] PISOStep: 329599 [ms]
[INFO] TimeStep: 667464 [ms]
ExecutionTime = 7169.26 s  ClockTime = 7238 s

Time = 0.001625

Courant Number mean: 0.0372838 max: 1.14963
[INFO] MatrixAssemblyU: 939.826 [ms]
DILUPBiCGStab:  Solving for Ux, Initial residual = 0.0540563, Final residual = 0.00392392, No Iterations 5
DILUPBiCGStab:  Solving for Uy, Initial residual = 0.243967, Final residual = 0.0145499, No Iterations 5
DILUPBiCGStab:  Solving for Uz, Initial residual = 0.723327, Final residual = 0.0357464, No Iterations 5
[INFO] MomentumPredictor: 6898.01 [ms]
[INFO] MatrixAssemblyPI: 1042.05 [ms]
[INFO] AdjustPhi: 64.023 [ms]
[INFO] ConstrainPressure: 0.003 [ms]
[INFO] MatrixAssemblyPII: 295.75 [ms]
nonePCG:  Solving for p, Initial residual = 0.97732, Final residual = 9.85224e-05, No Iterations 3071
[INFO] SolveP: 328172 [ms]
time step continuity errors : sum local = 4.05666e-08, global = 1.23479e-21, cumulative = 1.65432e-20
[INFO] ContinuityError: 103.453 [ms]
[INFO] CorrectBoundary: 7.138 [ms]
[INFO] PISOStep: 330030 [ms]
[INFO] MatrixAssemblyPI: 1021.99 [ms]
[INFO] AdjustPhi: 52.29 [ms]
[INFO] ConstrainPressure: 0.012 [ms]
[INFO] MatrixAssemblyPII: 296.873 [ms]
nonePCG:  Solving for p, Initial residual = 0.919954, Final residual = 9.90573e-05, No Iterations 3068
[INFO] SolveP: 327879 [ms]
time step continuity errors : sum local = 4.08908e-08, global = 6.19028e-22, cumulative = 1.71623e-20
[INFO] ContinuityError: 105.06 [ms]
[INFO] CorrectBoundary: 8.081 [ms]
[INFO] PISOStep: 329706 [ms]
[INFO] TimeStep: 667678 [ms]
ExecutionTime = 7830.68 s  ClockTime = 7905 s

Time = 0.00175

Courant Number mean: 0.0383469 max: 1.02285
[INFO] MatrixAssemblyU: 943.718 [ms]
DILUPBiCGStab:  Solving for Ux, Initial residual = 0.0620152, Final residual = 0.00424054, No Iterations 5
DILUPBiCGStab:  Solving for Uy, Initial residual = 0.254247, Final residual = 0.0139054, No Iterations 5
DILUPBiCGStab:  Solving for Uz, Initial residual = 0.727577, Final residual = 0.03555, No Iterations 5
[INFO] MomentumPredictor: 6894.27 [ms]
[INFO] MatrixAssemblyPI: 1054.85 [ms]
[INFO] AdjustPhi: 52.483 [ms]
[INFO] ConstrainPressure: 0.002 [ms]
[INFO] MatrixAssemblyPII: 295.686 [ms]
nonePCG:  Solving for p, Initial residual = 0.977964, Final residual = 9.95288e-05, No Iterations 3070
[INFO] SolveP: 328220 [ms]
time step continuity errors : sum local = 4.81873e-08, global = 2.41669e-21, cumulative = 1.95789e-20
[INFO] ContinuityError: 104.395 [ms]
[INFO] CorrectBoundary: 8.884 [ms]
[INFO] PISOStep: 330079 [ms]
[INFO] MatrixAssemblyPI: 1019.85 [ms]
[INFO] AdjustPhi: 54.016 [ms]
[INFO] ConstrainPressure: 0.013 [ms]
[INFO] MatrixAssemblyPII: 297.305 [ms]
nonePCG:  Solving for p, Initial residual = 0.912558, Final residual = 9.83623e-05, No Iterations 3068
[INFO] SolveP: 327897 [ms]
time step continuity errors : sum local = 4.81467e-08, global = 1.49844e-21, cumulative = 2.10774e-20
[INFO] ContinuityError: 103.487 [ms]
[INFO] CorrectBoundary: 8.294 [ms]
[INFO] PISOStep: 329723 [ms]
[INFO] TimeStep: 667744 [ms]
ExecutionTime = 8492.19 s  ClockTime = 8573 s

Time = 0.001875

Courant Number mean: 0.0398063 max: 1.6845
[INFO] MatrixAssemblyU: 937.157 [ms]
DILUPBiCGStab:  Solving for Ux, Initial residual = 0.0690172, Final residual = 0.00431465, No Iterations 5
DILUPBiCGStab:  Solving for Uy, Initial residual = 0.286347, Final residual = 0.0153099, No Iterations 5
DILUPBiCGStab:  Solving for Uz, Initial residual = 0.736168, Final residual = 0.0353, No Iterations 5
[INFO] MomentumPredictor: 6901.51 [ms]
[INFO] MatrixAssemblyPI: 1057.07 [ms]
[INFO] AdjustPhi: 49.751 [ms]
[INFO] ConstrainPressure: 0.002 [ms]
[INFO] MatrixAssemblyPII: 296.352 [ms]
nonePCG:  Solving for p, Initial residual = 0.979969, Final residual = 9.8802e-05, No Iterations 3074
[INFO] SolveP: 328659 [ms]
time step continuity errors : sum local = 5.62445e-08, global = 8.56726e-22, cumulative = 2.19341e-20
[INFO] ContinuityError: 103.297 [ms]
[INFO] CorrectBoundary: 9.086 [ms]
[INFO] PISOStep: 330518 [ms]
[INFO] MatrixAssemblyPI: 1023.86 [ms]
[INFO] AdjustPhi: 50.141 [ms]
[INFO] ConstrainPressure: 0.014 [ms]
[INFO] MatrixAssemblyPII: 296.437 [ms]
nonePCG:  Solving for p, Initial residual = 0.920471, Final residual = 9.93804e-05, No Iterations 3070
[INFO] SolveP: 328109 [ms]
time step continuity errors : sum local = 5.68015e-08, global = 7.53161e-22, cumulative = 2.26873e-20
[INFO] ContinuityError: 103.028 [ms]
[INFO] CorrectBoundary: 6.846 [ms]
[INFO] PISOStep: 329934 [ms]
[INFO] TimeStep: 668395 [ms]
ExecutionTime = 9154.34 s  ClockTime = 9242 s

Time = 0.002

Courant Number mean: 0.0408028 max: 1.71859
[INFO] MatrixAssemblyU: 942.652 [ms]
DILUPBiCGStab:  Solving for Ux, Initial residual = 0.0804093, Final residual = 0.00475761, No Iterations 5
DILUPBiCGStab:  Solving for Uy, Initial residual = 0.302899, Final residual = 0.0151323, No Iterations 5
DILUPBiCGStab:  Solving for Uz, Initial residual = 0.739451, Final residual = 0.0350628, No Iterations 5
[INFO] MomentumPredictor: 6896.32 [ms]
[INFO] MatrixAssemblyPI: 1056.11 [ms]
[INFO] AdjustPhi: 50.924 [ms]
[INFO] ConstrainPressure: 0.003 [ms]
[INFO] MatrixAssemblyPII: 297.289 [ms]
nonePCG:  Solving for p, Initial residual = 0.981018, Final residual = 9.97248e-05, No Iterations 3075
[INFO] SolveP: 328790 [ms]
time step continuity errors : sum local = 6.70636e-08, global = 5.39735e-22, cumulative = 2.3227e-20
[INFO] ContinuityError: 104.21 [ms]
[INFO] CorrectBoundary: 7.694 [ms]
[INFO] PISOStep: 330649 [ms]
[INFO] MatrixAssemblyPI: 1014.07 [ms]
[INFO] AdjustPhi: 61.006 [ms]
[INFO] ConstrainPressure: 0.013 [ms]
[INFO] MatrixAssemblyPII: 296.932 [ms]
nonePCG:  Solving for p, Initial residual = 0.915496, Final residual = 9.93931e-05, No Iterations 3071
[INFO] SolveP: 328205 [ms]
time step continuity errors : sum local = 6.75238e-08, global = 4.20156e-22, cumulative = 2.36472e-20
[INFO] ContinuityError: 103.838 [ms]
[INFO] CorrectBoundary: 7.644 [ms]
[INFO] PISOStep: 330031 [ms]
[INFO] TimeStep: 668624 [ms]
ExecutionTime = 9816.7 s  ClockTime = 9910 s

Time = 0.002125

Courant Number mean: 0.0422993 max: 2.5501
[INFO] MatrixAssemblyU: 943.611 [ms]
DILUPBiCGStab:  Solving for Ux, Initial residual = 0.0904304, Final residual = 0.00500572, No Iterations 5
DILUPBiCGStab:  Solving for Uy, Initial residual = 0.337868, Final residual = 0.0165981, No Iterations 5
DILUPBiCGStab:  Solving for Uz, Initial residual = 0.745063, Final residual = 0.0348758, No Iterations 5
[INFO] MomentumPredictor: 6894.66 [ms]
[INFO] MatrixAssemblyPI: 1055.16 [ms]
[INFO] AdjustPhi: 50.904 [ms]
[INFO] ConstrainPressure: 0.002 [ms]
[INFO] MatrixAssemblyPII: 297.094 [ms]
nonePCG:  Solving for p, Initial residual = 0.982041, Final residual = 9.99922e-05, No Iterations 3077
[INFO] SolveP: 328874 [ms]
time step continuity errors : sum local = 7.97112e-08, global = -2.39575e-21, cumulative = 2.12514e-20
[INFO] ContinuityError: 103.579 [ms]
[INFO] CorrectBoundary: 7.743 [ms]
[INFO] PISOStep: 330733 [ms]
[INFO] MatrixAssemblyPI: 1023.58 [ms]
[INFO] AdjustPhi: 50.481 [ms]
[INFO] ConstrainPressure: 0.012 [ms]
[INFO] MatrixAssemblyPII: 296.146 [ms]
nonePCG:  Solving for p, Initial residual = 0.920468, Final residual = 9.9429e-05, No Iterations 3074
[INFO] SolveP: 328492 [ms]
time step continuity errors : sum local = 7.96929e-08, global = 7.95593e-22, cumulative = 2.2047e-20
[INFO] ContinuityError: 105.885 [ms]
[INFO] CorrectBoundary: 6.599 [ms]
[INFO] PISOStep: 330317 [ms]
[INFO] TimeStep: 668993 [ms]
ExecutionTime = 10479.4 s  ClockTime = 10579 s

Time = 0.00225

Courant Number mean: 0.0433093 max: 2.85845
[INFO] MatrixAssemblyU: 943.944 [ms]
DILUPBiCGStab:  Solving for Ux, Initial residual = 0.106759, Final residual = 0.00564669, No Iterations 5
DILUPBiCGStab:  Solving for Uy, Initial residual = 0.360596, Final residual = 0.0168245, No Iterations 5
DILUPBiCGStab:  Solving for Uz, Initial residual = 0.747358, Final residual = 0.0346143, No Iterations 5
[INFO] MomentumPredictor: 6892.71 [ms]
[INFO] MatrixAssemblyPI: 1055.3 [ms]
[INFO] AdjustPhi: 50.959 [ms]
[INFO] ConstrainPressure: 0.003 [ms]
[INFO] MatrixAssemblyPII: 296.423 [ms]
nonePCG:  Solving for p, Initial residual = 0.983221, Final residual = 9.8459e-05, No Iterations 3080
[INFO] SolveP: 329296 [ms]
time step continuity errors : sum local = 9.34434e-08, global = -3.88775e-23, cumulative = 2.20081e-20
[INFO] ContinuityError: 104.232 [ms]
[INFO] CorrectBoundary: 7.011 [ms]
[INFO] PISOStep: 331155 [ms]
[INFO] MatrixAssemblyPI: 1023.39 [ms]
[INFO] AdjustPhi: 50.219 [ms]
[INFO] ConstrainPressure: 0.01 [ms]
[INFO] MatrixAssemblyPII: 296.091 [ms]
nonePCG:  Solving for p, Initial residual = 0.917491, Final residual = 9.82659e-05, No Iterations 3076
[INFO] SolveP: 328678 [ms]
time step continuity errors : sum local = 9.41661e-08, global = 1.30348e-21, cumulative = 2.33116e-20
[INFO] ContinuityError: 102.951 [ms]
[INFO] CorrectBoundary: 5.631 [ms]
[INFO] PISOStep: 330503 [ms]
[INFO] TimeStep: 669600 [ms]
ExecutionTime = 11142.8 s  ClockTime = 11249 s

Time = 0.002375

Courant Number mean: 0.0449249 max: 3.96069
[INFO] MatrixAssemblyU: 945.156 [ms]
DILUPBiCGStab:  Solving for Ux, Initial residual = 0.120656, Final residual = 0.00608726, No Iterations 5
DILUPBiCGStab:  Solving for Uy, Initial residual = 0.396831, Final residual = 0.0183289, No Iterations 5
DILUPBiCGStab:  Solving for Uz, Initial residual = 0.75097, Final residual = 0.0345182, No Iterations 5
[INFO] MomentumPredictor: 6894.32 [ms]
[INFO] MatrixAssemblyPI: 1052.29 [ms]
[INFO] AdjustPhi: 53.99 [ms]
[INFO] ConstrainPressure: 0.002 [ms]
[INFO] MatrixAssemblyPII: 295.985 [ms]
nonePCG:  Solving for p, Initial residual = 0.983623, Final residual = 9.97691e-05, No Iterations 3081
[INFO] SolveP: 329390 [ms]
time step continuity errors : sum local = 1.13148e-07, global = 9.54753e-21, cumulative = 3.28591e-20
[INFO] ContinuityError: 103.01 [ms]
[INFO] CorrectBoundary: 6.041 [ms]
[INFO] PISOStep: 331246 [ms]
[INFO] MatrixAssemblyPI: 1024.52 [ms]
[INFO] AdjustPhi: 51.666 [ms]
[INFO] ConstrainPressure: 0.004 [ms]
[INFO] MatrixAssemblyPII: 297.002 [ms]
nonePCG:  Solving for p, Initial residual = 0.920664, Final residual = 9.89798e-05, No Iterations 3078
[INFO] SolveP: 328830 [ms]
time step continuity errors : sum local = 1.12987e-07, global = 1.47662e-21, cumulative = 3.43358e-20
[INFO] ContinuityError: 103.169 [ms]
[INFO] CorrectBoundary: 5.028 [ms]
[INFO] PISOStep: 330657 [ms]
[INFO] TimeStep: 669848 [ms]
ExecutionTime = 11806.4 s  ClockTime = 11919 s

Time = 0.0025

Courant Number mean: 0.0460566 max: 4.70539
[INFO] MatrixAssemblyU: 943.672 [ms]
DILUPBiCGStab:  Solving for Ux, Initial residual = 0.1436, Final residual = 0.00700753, No Iterations 5
DILUPBiCGStab:  Solving for Uy, Initial residual = 0.42415, Final residual = 0.0188781, No Iterations 5
DILUPBiCGStab:  Solving for Uz, Initial residual = 0.752245, Final residual = 0.0342512, No Iterations 5
[INFO] MomentumPredictor: 6894.42 [ms]
[INFO] MatrixAssemblyPI: 1054.24 [ms]
[INFO] AdjustPhi: 52.33 [ms]
[INFO] ConstrainPressure: 0.002 [ms]
[INFO] MatrixAssemblyPII: 296.932 [ms]
nonePCG:  Solving for p, Initial residual = 0.984479, Final residual = 9.85822e-05, No Iterations 3083
[INFO] SolveP: 329550 [ms]
time step continuity errors : sum local = 1.34045e-07, global = -6.79643e-21, cumulative = 2.75393e-20
[INFO] ContinuityError: 103.553 [ms]
[INFO] CorrectBoundary: 4.793 [ms]
[INFO] PISOStep: 331408 [ms]
[INFO] MatrixAssemblyPI: 1020.22 [ms]
[INFO] AdjustPhi: 54.466 [ms]
[INFO] ConstrainPressure: 0.01 [ms]
[INFO] MatrixAssemblyPII: 294.157 [ms]
nonePCG:  Solving for p, Initial residual = 0.91881, Final residual = 9.99741e-05, No Iterations 3079
[INFO] SolveP: 328985 [ms]
time step continuity errors : sum local = 1.3723e-07, global = 2.21255e-21, cumulative = 2.97519e-20
[INFO] ContinuityError: 103.706 [ms]
[INFO] CorrectBoundary: 6.201 [ms]
[INFO] PISOStep: 330811 [ms]
[INFO] TimeStep: 670162 [ms]
ExecutionTime = 12470.2 s  ClockTime = 12589 s

End

Finalising parallel run
