/*---------------------------------------------------------------------------*\
| =========                 |                                                 |
| \\      /  F ield         | OpenFOAM: The Open Source CFD Toolbox           |
|  \\    /   O peration     | Version:  2306                                  |
|   \\  /    A nd           | Website:  www.openfoam.com                      |
|    \\/     M anipulation  |                                                 |
\*---------------------------------------------------------------------------*/
Build  : a6e826bd55-20230630 OPENFOAM=2306 version=v2306
Arch   : "LSB;label=32;scalar=64"
Exec   : icoFoam -parallel -case /home/greole/data/code/exasim_project/micro_benchmarks/LidDrivenCavity3D/workspace/d9d27b63cb64610c63121103ac6885a1/case
Date   : Jul 05 2023
Time   : 16:10:10
Host   : nla-gpu2.ianm.kit.edu
PID    : 154999
I/O    : uncollated
Case   : /home/greole/data/code/exasim_project/micro_benchmarks/LidDrivenCavity3D/workspace/d9d27b63cb64610c63121103ac6885a1/case
nProcs : 8
Hosts  :
(
    (nla-gpu2.ianm.kit.edu 8)
)
Pstream initialized with:
    floatTransfer      : false
    nProcsSimpleSum    : 0
    nonBlockingExchange: 0 (tuning: 0)
    exchange algorithm : -1
    commsType          : nonBlocking
    polling iterations : 0
trapFpe: Floating point exception trapping enabled (FOAM_SIGFPE).
fileModificationChecking : Monitoring run-time modified files using timeStampMaster (fileModificationSkew 5, maxFileModificationPolls 20)
allowSystemOperations : Allowing user-supplied system call operations

// * * * * * * * * * * * * * * * * * * * * * * * * * * * * * * * * * * * * * //
Create time

--> FOAM Warning : 
    From void* Foam::dlLibraryTable::openLibrary(const Foam::fileName&, bool)
    in file db/dynamicLibrary/dlLibraryTable/dlLibraryTable.C at line 188
    Could not load "libpetscFoam.so"
libpetscFoam.so: cannot open shared object file: No such file or directory
Create mesh for time = 0


PISO: Operating solver in PISO mode

Reading transportProperties

Reading field p

Reading field U

Reading/calculating face flux field phi


Starting time loop

Time = 0.000166

Courant Number mean: 8.14055e-18 max: 3.11001e-14
[INFO] MatrixAssemblyU: 348.126 [ms]
DILUPBiCGStab:  Solving for Ux, Initial residual = 1, Final residual = 0.0159896, No Iterations 5
DILUPBiCGStab:  Solving for Uy:  solution singularity
DILUPBiCGStab:  Solving for Uz:  solution singularity
[INFO] MomentumPredictor: 1572.46 [ms]
[INFO] MatrixAssemblyPI: 353.404 [ms]
[INFO] AdjustPhi: 18.08 [ms]
[INFO] ConstrainPressure: 0.013 [ms]
[INFO] MatrixAssemblyPII: 99.719 [ms]
[OGL LOG][lduLduBase.H:122] Initialising OGL
	OGL commit:  13e9788+
	Branch: device_guard 
	Build type: Release
	Ginkgo version: 1.5.0 ( develop)
	Ginkgo commit: 4292ffdee
	MPI is GPU aware: 1
	Forces host buffer based communication: 0
	CPU ranks per GPU: 1
	Matrix format: Coo
	End OGL_INFO
[OGL LOG][Proc: 0]: global_index_init: 2.335 [ms]
[OGL LOG][Proc: 0]p_local_cols: call_init: 0.04 [ms]
[OGL LOG][Proc: 0]p_local_rows: call_init: 0.014 [ms]
[OGL LOG][Proc: 0]p_local_ldu_map: call_init: 0.008 [ms]
[OGL LOG][Proc: 0]p_local_coeffs: call_init: 0.012 [ms]
[OGL LOG][Proc: 0]p_non_local_cols: call_init: 0.004 [ms]
[OGL LOG][Proc: 0]p_non_local_rows: call_init: 0.003 [ms]
[OGL LOG][Proc: 0]p_non_local_ldu_map: call_init: 0.003 [ms]
[OGL LOG][Proc: 0]p_non_local_coeffs: call_init: 0.003 [ms]
[OGL LOG][Proc: 0]p: init_local_sparsity_pattern: 520.797 [ms]
[OGL LOG][Proc: 0]p: init_non_local_sparsity_pattern: 2.641 [ms]
[OGL LOG][Proc: 0]p: update_local_matrix_data: 59.782 [ms]
[OGL LOG][Proc: 0]p: update_non_local_matrix_data: 0.262 [ms]
[OGL LOG][Proc: 0]device_partition: call_init: 12.69 [ms]
[OGL LOG][Proc: 0]p_matrix: call_init: 200.89 [ms]
[OGL LOG][Proc: 0]p_rhs: call_init: 15.697 [ms]
[OGL LOG][Proc: 0]p_solution: call_init: 1.848 [ms]
[OGL LOG][Proc: 0]p: init_precond: 0.107 [ms]
[OGL LOG][StoppingCriterion.H:372] Creating stopping criterion with minIter 0 frequency 1
[OGL LOG][Proc: 0]p: generate_solver: 0.037 [ms]
[OGL LOG][Proc: 0]p: solve: 5856.14 [ms]
[OGL LOG][Proc: 0]p: copy_x_back: 9.892 [ms]
[OGL LOG][lduLduBase.H:339] 
Statistics:
	Time per iteration: 2408 [mu s]
	Time per residual norm calculation: 1410.000000 [mu s]
	Time per iteration and DOF: 0.089185 [ns]
	Retrieve results bandwidth 2.729000 [GByte/s]
[OGL LOG][Proc: 0]p: solve_multi_gpu: 6098.71 [ms]
nonehipGKOCG:  Solving for p, Initial residual = 1, Final residual = 9.81881e-05, No Iterations 2431
[INFO] SolveP: 6928.35 [ms]
time step continuity errors : sum local = 3.97416e-09, global = 1.0926e-21, cumulative = 1.0926e-21
[INFO] ContinuityError: 53.719 [ms]
[INFO] CorrectBoundary: 0.912 [ms]
[INFO] PISOStep: 7571.21 [ms]
[INFO] MatrixAssemblyPI: 342.463 [ms]
[INFO] AdjustPhi: 18.82 [ms]
[INFO] ConstrainPressure: 0.005 [ms]
[INFO] MatrixAssemblyPII: 99.667 [ms]
[OGL LOG][Proc: 0]: global_index_init: 0.094 [ms]
[OGL LOG][Proc: 0]p_local_coeffs: call_update: 0.003 [ms]
[OGL LOG][Proc: 0]p_non_local_coeffs: call_update: 0 [ms]
[OGL LOG][Proc: 0]p: update_local_matrix_data: 48.873 [ms]
[OGL LOG][Proc: 0]p: update_non_local_matrix_data: 0.244 [ms]
[OGL LOG][Proc: 0]p_matrix: call_update: 22.528 [ms]
[OGL LOG][Proc: 0]p_rhs: call_update: 6.374 [ms]
[OGL LOG][Proc: 0]p: init_precond: 0.068 [ms]
[OGL LOG][StoppingCriterion.H:372] Creating stopping criterion with minIter 1458 frequency 31
[OGL LOG][Proc: 0]p: generate_solver: 0.005 [ms]
[OGL LOG][Proc: 0]p: solve: 3984.65 [ms]
[OGL LOG][Proc: 0]p: copy_x_back: 11.401 [ms]
[OGL LOG][lduLduBase.H:339] 
Statistics:
	Time per iteration: 1647 [mu s]
	Time per residual norm calculation: 319.000000 [mu s]
	Time per iteration and DOF: 0.061000 [ns]
	Retrieve results bandwidth 2.368000 [GByte/s]
[OGL LOG][Proc: 0]p: solve_multi_gpu: 4026.13 [ms]
nonehipGKOCG:  Solving for p, Initial residual = 0.809676, Final residual = 9.43241e-05, No Iterations 2419
[INFO] SolveP: 4085.95 [ms]
time step continuity errors : sum local = 4.6587e-09, global = 2.98674e-22, cumulative = 1.39127e-21
[INFO] ContinuityError: 48.076 [ms]
[INFO] CorrectBoundary: 1.491 [ms]
[INFO] PISOStep: 4711.7 [ms]
[INFO] TimeStep: 14253.4 [ms]
ExecutionTime = 18.13 s  ClockTime = 16 s

Time = 0.000332

Courant Number mean: 0.0128497 max: 0.426563
[INFO] MatrixAssemblyU: 264.94 [ms]
DILUPBiCGStab:  Solving for Ux, Initial residual = 0.116942, Final residual = 0.00923014, No Iterations 5
DILUPBiCGStab:  Solving for Uy, Initial residual = 0.459876, Final residual = 0.0300233, No Iterations 5
DILUPBiCGStab:  Solving for Uz, Initial residual = 0.995324, Final residual = 0.0718333, No Iterations 5
[INFO] MomentumPredictor: 2974.12 [ms]
[INFO] MatrixAssemblyPI: 347.619 [ms]
[INFO] AdjustPhi: 17.825 [ms]
[INFO] ConstrainPressure: 0.005 [ms]
[INFO] MatrixAssemblyPII: 98.786 [ms]
[OGL LOG][Proc: 0]: global_index_init: 0.133 [ms]
[OGL LOG][Proc: 0]p_local_coeffs: call_update: 0 [ms]
[OGL LOG][Proc: 0]p_non_local_coeffs: call_update: 0 [ms]
[OGL LOG][Proc: 0]p: update_local_matrix_data: 48.98 [ms]
[OGL LOG][Proc: 0]p: update_non_local_matrix_data: 0.235 [ms]
[OGL LOG][Proc: 0]p_matrix: call_update: 23.356 [ms]
[OGL LOG][Proc: 0]p_rhs: call_update: 10.851 [ms]
[OGL LOG][Proc: 0]p: init_precond: 0.06 [ms]
[OGL LOG][StoppingCriterion.H:372] Creating stopping criterion with minIter 1451 frequency 13
[OGL LOG][Proc: 0]p: generate_solver: 0.005 [ms]
[OGL LOG][Proc: 0]p: solve: 3849.92 [ms]
[OGL LOG][Proc: 0]p: copy_x_back: 9.791 [ms]
[OGL LOG][lduLduBase.H:339] 
Statistics:
	Time per iteration: 1608 [mu s]
	Time per residual norm calculation: 291.000000 [mu s]
	Time per iteration and DOF: 0.059556 [ns]
	Retrieve results bandwidth 2.757000 [GByte/s]
[OGL LOG][Proc: 0]p: solve_multi_gpu: 3895.1 [ms]
nonehipGKOCG:  Solving for p, Initial residual = 0.878212, Final residual = 7.44281e-05, No Iterations 2393
[INFO] SolveP: 3954.64 [ms]
time step continuity errors : sum local = 7.07075e-09, global = 9.62909e-22, cumulative = 2.35418e-21
[INFO] ContinuityError: 51.453 [ms]
[INFO] CorrectBoundary: 0.902 [ms]
[INFO] PISOStep: 4590.03 [ms]
[INFO] MatrixAssemblyPI: 341.378 [ms]
[INFO] AdjustPhi: 19.47 [ms]
[INFO] ConstrainPressure: 0.004 [ms]
[INFO] MatrixAssemblyPII: 99.586 [ms]
[OGL LOG][Proc: 0]: global_index_init: 0.041 [ms]
[OGL LOG][Proc: 0]p_local_coeffs: call_update: 0 [ms]
[OGL LOG][Proc: 0]p_non_local_coeffs: call_update: 0 [ms]
[OGL LOG][Proc: 0]p: update_local_matrix_data: 48.495 [ms]
[OGL LOG][Proc: 0]p: update_non_local_matrix_data: 0.254 [ms]
[OGL LOG][Proc: 0]p_matrix: call_update: 36.643 [ms]
[OGL LOG][Proc: 0]p_rhs: call_update: 7.913 [ms]
[OGL LOG][Proc: 0]p: init_precond: 0.06 [ms]
[OGL LOG][StoppingCriterion.H:372] Creating stopping criterion with minIter 1435 frequency 13
[OGL LOG][Proc: 0]p: generate_solver: 0.005 [ms]
[OGL LOG][Proc: 0]p: solve: 3919.8 [ms]
[OGL LOG][Proc: 0]p: copy_x_back: 9.769 [ms]
[OGL LOG][lduLduBase.H:339] 
Statistics:
	Time per iteration: 1646 [mu s]
	Time per residual norm calculation: 324.000000 [mu s]
	Time per iteration and DOF: 0.060963 [ns]
	Retrieve results bandwidth 2.763000 [GByte/s]
[OGL LOG][Proc: 0]p: solve_multi_gpu: 3975.27 [ms]
nonehipGKOCG:  Solving for p, Initial residual = 0.826379, Final residual = 9.00124e-05, No Iterations 2380
[INFO] SolveP: 4034.54 [ms]
time step continuity errors : sum local = 8.70919e-09, global = 9.14308e-22, cumulative = 3.26849e-21
[INFO] ContinuityError: 51.036 [ms]
[INFO] CorrectBoundary: 1.483 [ms]
[INFO] PISOStep: 4661.31 [ms]
[INFO] TimeStep: 12535.2 [ms]
ExecutionTime = 32.78 s  ClockTime = 29 s

Time = 0.000498

Courant Number mean: 0.0198261 max: 0.491805
[INFO] MatrixAssemblyU: 264.584 [ms]
DILUPBiCGStab:  Solving for Ux, Initial residual = 0.0544582, Final residual = 0.00348871, No Iterations 5
DILUPBiCGStab:  Solving for Uy, Initial residual = 0.226376, Final residual = 0.0156761, No Iterations 5
DILUPBiCGStab:  Solving for Uz, Initial residual = 0.854946, Final residual = 0.0552555, No Iterations 5
[INFO] MomentumPredictor: 2963.32 [ms]
[INFO] MatrixAssemblyPI: 344.986 [ms]
[INFO] AdjustPhi: 19.701 [ms]
[INFO] ConstrainPressure: 0.004 [ms]
[INFO] MatrixAssemblyPII: 98.534 [ms]
[OGL LOG][Proc: 0]: global_index_init: 0.042 [ms]
[OGL LOG][Proc: 0]p_local_coeffs: call_update: 0 [ms]
[OGL LOG][Proc: 0]p_non_local_coeffs: call_update: 0 [ms]
[OGL LOG][Proc: 0]p: update_local_matrix_data: 49.105 [ms]
[OGL LOG][Proc: 0]p: update_non_local_matrix_data: 0.248 [ms]
[OGL LOG][Proc: 0]p_matrix: call_update: 22.392 [ms]
[OGL LOG][Proc: 0]p_rhs: call_update: 13.772 [ms]
[OGL LOG][Proc: 0]p: init_precond: 0.062 [ms]
[OGL LOG][StoppingCriterion.H:372] Creating stopping criterion with minIter 1428 frequency 13
[OGL LOG][Proc: 0]p: generate_solver: 0.005 [ms]
[OGL LOG][Proc: 0]p: solve: 2365.87 [ms]
[OGL LOG][Proc: 0]p: copy_x_back: 9.638 [ms]
[OGL LOG][lduLduBase.H:339] 
Statistics:
	Time per iteration: 1653 [mu s]
	Time per residual norm calculation: 355.000000 [mu s]
	Time per iteration and DOF: 0.061222 [ns]
	Retrieve results bandwidth 2.801000 [GByte/s]
[OGL LOG][Proc: 0]p: solve_multi_gpu: 2412.77 [ms]
nonehipGKOCG:  Solving for p, Initial residual = 0.913751, Final residual = 6.92029e-05, No Iterations 1431
[INFO] SolveP: 2472.73 [ms]
time step continuity errors : sum local = 7.69733e-09, global = -4.23436e-22, cumulative = 2.84505e-21
[INFO] ContinuityError: 48.821 [ms]
[INFO] CorrectBoundary: 0.982 [ms]
[INFO] PISOStep: 3097.86 [ms]
[INFO] MatrixAssemblyPI: 336.068 [ms]
[INFO] AdjustPhi: 18.497 [ms]
[INFO] ConstrainPressure: 0.01 [ms]
[INFO] MatrixAssemblyPII: 99.028 [ms]
[OGL LOG][Proc: 0]: global_index_init: 0.054 [ms]
[OGL LOG][Proc: 0]p_local_coeffs: call_update: 0 [ms]
[OGL LOG][Proc: 0]p_non_local_coeffs: call_update: 0 [ms]
[OGL LOG][Proc: 0]p: update_local_matrix_data: 47.956 [ms]
[OGL LOG][Proc: 0]p: update_non_local_matrix_data: 0.239 [ms]
[OGL LOG][Proc: 0]p_matrix: call_update: 24.743 [ms]
[OGL LOG][Proc: 0]p_rhs: call_update: 3.974 [ms]
[OGL LOG][Proc: 0]p: init_precond: 0.055 [ms]
[OGL LOG][StoppingCriterion.H:372] Creating stopping criterion with minIter 858 frequency 11
[OGL LOG][Proc: 0]p: generate_solver: 0.005 [ms]
[OGL LOG][Proc: 0]p: solve: 1940.67 [ms]
[OGL LOG][Proc: 0]p: copy_x_back: 9.509 [ms]
[OGL LOG][lduLduBase.H:339] 
Statistics:
	Time per iteration: 1678 [mu s]
	Time per residual norm calculation: 326.000000 [mu s]
	Time per iteration and DOF: 0.062148 [ns]
	Retrieve results bandwidth 2.839000 [GByte/s]
[OGL LOG][Proc: 0]p: solve_multi_gpu: 1979.97 [ms]
nonehipGKOCG:  Solving for p, Initial residual = 0.882693, Final residual = 9.00992e-05, No Iterations 1156
[INFO] SolveP: 2041.2 [ms]
time step continuity errors : sum local = 9.4144e-09, global = 3.03181e-22, cumulative = 3.14824e-21
[INFO] ContinuityError: 51.572 [ms]
[INFO] CorrectBoundary: 0.978 [ms]
[INFO] PISOStep: 2659.11 [ms]
[INFO] TimeStep: 9032.25 [ms]
ExecutionTime = 42.99 s  ClockTime = 38 s

Time = 0.000664

Courant Number mean: 0.0239197 max: 0.47201
[INFO] MatrixAssemblyU: 263.408 [ms]
DILUPBiCGStab:  Solving for Ux, Initial residual = 0.0384976, Final residual = 0.00279683, No Iterations 5
DILUPBiCGStab:  Solving for Uy, Initial residual = 0.174094, Final residual = 0.0125979, No Iterations 5
DILUPBiCGStab:  Solving for Uz, Initial residual = 0.730063, Final residual = 0.0385534, No Iterations 5
[INFO] MomentumPredictor: 2958.28 [ms]
[INFO] MatrixAssemblyPI: 349.056 [ms]
[INFO] AdjustPhi: 17.957 [ms]
[INFO] ConstrainPressure: 0.004 [ms]
[INFO] MatrixAssemblyPII: 98.57 [ms]
[OGL LOG][Proc: 0]: global_index_init: 0.109 [ms]
[OGL LOG][Proc: 0]p_local_coeffs: call_update: 0 [ms]
[OGL LOG][Proc: 0]p_non_local_coeffs: call_update: 0 [ms]
[OGL LOG][Proc: 0]p: update_local_matrix_data: 48.947 [ms]
[OGL LOG][Proc: 0]p: update_non_local_matrix_data: 0.25 [ms]
[OGL LOG][Proc: 0]p_matrix: call_update: 29.096 [ms]
[OGL LOG][Proc: 0]p_rhs: call_update: 5.852 [ms]
[OGL LOG][Proc: 0]p: init_precond: 0.06 [ms]
[OGL LOG][StoppingCriterion.H:372] Creating stopping criterion with minIter 693 frequency 9
[OGL LOG][Proc: 0]p: generate_solver: 0.004 [ms]
[OGL LOG][Proc: 0]p: solve: 1943.39 [ms]
[OGL LOG][Proc: 0]p: copy_x_back: 9.397 [ms]
[OGL LOG][lduLduBase.H:339] 
Statistics:
	Time per iteration: 1672 [mu s]
	Time per residual norm calculation: 288.000000 [mu s]
	Time per iteration and DOF: 0.061926 [ns]
	Retrieve results bandwidth 2.873000 [GByte/s]
[OGL LOG][Proc: 0]p: solve_multi_gpu: 1989.24 [ms]
nonehipGKOCG:  Solving for p, Initial residual = 0.890271, Final residual = 9.41608e-05, No Iterations 1162
[INFO] SolveP: 2048.77 [ms]
time step continuity errors : sum local = 1.12541e-08, global = 1.16921e-22, cumulative = 3.26516e-21
[INFO] ContinuityError: 50.081 [ms]
[INFO] CorrectBoundary: 0.921 [ms]
[INFO] PISOStep: 2677.72 [ms]
[INFO] MatrixAssemblyPI: 335.314 [ms]
[INFO] AdjustPhi: 21.999 [ms]
[INFO] ConstrainPressure: 0.005 [ms]
[INFO] MatrixAssemblyPII: 101.576 [ms]
[OGL LOG][Proc: 0]: global_index_init: 0.036 [ms]
[OGL LOG][Proc: 0]p_local_coeffs: call_update: 0 [ms]
[OGL LOG][Proc: 0]p_non_local_coeffs: call_update: 0 [ms]
[OGL LOG][Proc: 0]p: update_local_matrix_data: 48.157 [ms]
[OGL LOG][Proc: 0]p: update_non_local_matrix_data: 0.245 [ms]
[OGL LOG][Proc: 0]p_matrix: call_update: 23.671 [ms]
[OGL LOG][Proc: 0]p_rhs: call_update: 7.392 [ms]
[OGL LOG][Proc: 0]p: init_precond: 0.055 [ms]
[OGL LOG][StoppingCriterion.H:372] Creating stopping criterion with minIter 697 frequency 9
[OGL LOG][Proc: 0]p: generate_solver: 0.004 [ms]
[OGL LOG][Proc: 0]p: solve: 1934.84 [ms]
[OGL LOG][Proc: 0]p: copy_x_back: 9.63 [ms]
[OGL LOG][lduLduBase.H:339] 
Statistics:
	Time per iteration: 1678 [mu s]
	Time per residual norm calculation: 286.000000 [mu s]
	Time per iteration and DOF: 0.062148 [ns]
	Retrieve results bandwidth 2.803000 [GByte/s]
[OGL LOG][Proc: 0]p: solve_multi_gpu: 1976.62 [ms]
nonehipGKOCG:  Solving for p, Initial residual = 0.830215, Final residual = 8.52264e-05, No Iterations 1153
[INFO] SolveP: 2035.54 [ms]
time step continuity errors : sum local = 9.8819e-09, global = 6.86914e-22, cumulative = 3.95207e-21
[INFO] ContinuityError: 49.396 [ms]
[INFO] CorrectBoundary: 1.164 [ms]
[INFO] PISOStep: 2655.93 [ms]
[INFO] TimeStep: 8599.82 [ms]
ExecutionTime = 52.63 s  ClockTime = 47 s

Time = 0.00083

Courant Number mean: 0.0274473 max: 0.504973
[INFO] MatrixAssemblyU: 262.474 [ms]
DILUPBiCGStab:  Solving for Ux, Initial residual = 0.0323959, Final residual = 0.00238071, No Iterations 5
DILUPBiCGStab:  Solving for Uy, Initial residual = 0.129655, Final residual = 0.0105548, No Iterations 5
DILUPBiCGStab:  Solving for Uz, Initial residual = 0.676281, Final residual = 0.0332747, No Iterations 5
[INFO] MomentumPredictor: 2955.04 [ms]
[INFO] MatrixAssemblyPI: 346.329 [ms]
[INFO] AdjustPhi: 18.82 [ms]
[INFO] ConstrainPressure: 0.004 [ms]
[INFO] MatrixAssemblyPII: 98.475 [ms]
[OGL LOG][Proc: 0]: global_index_init: 0.104 [ms]
[OGL LOG][Proc: 0]p_local_coeffs: call_update: 0 [ms]
[OGL LOG][Proc: 0]p_non_local_coeffs: call_update: 0 [ms]
[OGL LOG][Proc: 0]p: update_local_matrix_data: 48.874 [ms]
[OGL LOG][Proc: 0]p: update_non_local_matrix_data: 0.219 [ms]
[OGL LOG][Proc: 0]p_matrix: call_update: 42.693 [ms]
[OGL LOG][Proc: 0]p_rhs: call_update: 2.15 [ms]
[OGL LOG][Proc: 0]p: init_precond: 0.055 [ms]
[OGL LOG][StoppingCriterion.H:372] Creating stopping criterion with minIter 691 frequency 9
[OGL LOG][Proc: 0]p: generate_solver: 0.004 [ms]
[OGL LOG][Proc: 0]p: solve: 3930.12 [ms]
[OGL LOG][Proc: 0]p: copy_x_back: 9.498 [ms]
[OGL LOG][lduLduBase.H:339] 
Statistics:
	Time per iteration: 1653 [mu s]
	Time per residual norm calculation: 331.000000 [mu s]
	Time per iteration and DOF: 0.061222 [ns]
	Retrieve results bandwidth 2.842000 [GByte/s]
[OGL LOG][Proc: 0]p: solve_multi_gpu: 3985.6 [ms]
nonehipGKOCG:  Solving for p, Initial residual = 0.910499, Final residual = 9.92176e-05, No Iterations 2377
[INFO] SolveP: 4046.3 [ms]
time step continuity errors : sum local = 1.09426e-08, global = 1.28261e-21, cumulative = 5.23468e-21
[INFO] ContinuityError: 49.301 [ms]
[INFO] CorrectBoundary: 1.025 [ms]
[INFO] PISOStep: 4673.24 [ms]
[INFO] MatrixAssemblyPI: 336.197 [ms]
[INFO] AdjustPhi: 19.346 [ms]
[INFO] ConstrainPressure: 0.005 [ms]
[INFO] MatrixAssemblyPII: 98.501 [ms]
[OGL LOG][Proc: 0]: global_index_init: 0.12 [ms]
[OGL LOG][Proc: 0]p_local_coeffs: call_update: 0 [ms]
[OGL LOG][Proc: 0]p_non_local_coeffs: call_update: 0 [ms]
[OGL LOG][Proc: 0]p: update_local_matrix_data: 47.783 [ms]
[OGL LOG][Proc: 0]p: update_non_local_matrix_data: 0.248 [ms]
[OGL LOG][Proc: 0]p_matrix: call_update: 23.925 [ms]
[OGL LOG][Proc: 0]p_rhs: call_update: 7.155 [ms]
[OGL LOG][Proc: 0]p: init_precond: 0.066 [ms]
[OGL LOG][StoppingCriterion.H:372] Creating stopping criterion with minIter 1426 frequency 15
[OGL LOG][Proc: 0]p: generate_solver: 0.005 [ms]
[OGL LOG][Proc: 0]p: solve: 3844.22 [ms]
[OGL LOG][Proc: 0]p: copy_x_back: 9.644 [ms]
[OGL LOG][lduLduBase.H:339] 
Statistics:
	Time per iteration: 1611 [mu s]
	Time per residual norm calculation: 283.000000 [mu s]
	Time per iteration and DOF: 0.059667 [ns]
	Retrieve results bandwidth 2.799000 [GByte/s]
[OGL LOG][Proc: 0]p: solve_multi_gpu: 3886.23 [ms]
nonehipGKOCG:  Solving for p, Initial residual = 0.872716, Final residual = 7.46885e-05, No Iterations 2386
[INFO] SolveP: 3945.55 [ms]
time step continuity errors : sum local = 8.1314e-09, global = 5.66603e-22, cumulative = 5.80129e-21
[INFO] ContinuityError: 48.205 [ms]
[INFO] CorrectBoundary: 1.294 [ms]
[INFO] PISOStep: 4562.21 [ms]
[INFO] TimeStep: 12497.9 [ms]
ExecutionTime = 67.26 s  ClockTime = 59 s

Time = 0.000996

Courant Number mean: 0.0301893 max: 0.47838
[INFO] MatrixAssemblyU: 263.405 [ms]
DILUPBiCGStab:  Solving for Ux, Initial residual = 0.0270652, Final residual = 0.00213764, No Iterations 5
DILUPBiCGStab:  Solving for Uy, Initial residual = 0.111896, Final residual = 0.00833878, No Iterations 5
DILUPBiCGStab:  Solving for Uz, Initial residual = 0.579675, Final residual = 0.0255726, No Iterations 5
[INFO] MomentumPredictor: 2950.09 [ms]
[INFO] MatrixAssemblyPI: 345.453 [ms]
[INFO] AdjustPhi: 17.951 [ms]
[INFO] ConstrainPressure: 0.004 [ms]
[INFO] MatrixAssemblyPII: 98.463 [ms]
[OGL LOG][Proc: 0]: global_index_init: 0.251 [ms]
[OGL LOG][Proc: 0]p_local_coeffs: call_update: 0 [ms]
[OGL LOG][Proc: 0]p_non_local_coeffs: call_update: 0 [ms]
[OGL LOG][Proc: 0]p: update_local_matrix_data: 48.122 [ms]
[OGL LOG][Proc: 0]p: update_non_local_matrix_data: 0.247 [ms]
[OGL LOG][Proc: 0]p_matrix: call_update: 27.375 [ms]
[OGL LOG][Proc: 0]p_rhs: call_update: 12.054 [ms]
[OGL LOG][Proc: 0]p: init_precond: 0.053 [ms]
[OGL LOG][StoppingCriterion.H:372] Creating stopping criterion with minIter 1431 frequency 13
[OGL LOG][Proc: 0]p: generate_solver: 0.005 [ms]
[OGL LOG][Proc: 0]p: solve: 3831.34 [ms]
[OGL LOG][Proc: 0]p: copy_x_back: 9.571 [ms]
[OGL LOG][lduLduBase.H:339] 
Statistics:
	Time per iteration: 1609 [mu s]
	Time per residual norm calculation: 334.000000 [mu s]
	Time per iteration and DOF: 0.059593 [ns]
	Retrieve results bandwidth 2.821000 [GByte/s]
[OGL LOG][Proc: 0]p: solve_multi_gpu: 3881.52 [ms]
nonehipGKOCG:  Solving for p, Initial residual = 0.887861, Final residual = 8.20438e-05, No Iterations 2380
[INFO] SolveP: 3941.5 [ms]
time step continuity errors : sum local = 9.23121e-09, global = 4.68264e-22, cumulative = 6.26955e-21
[INFO] ContinuityError: 50.567 [ms]
[INFO] CorrectBoundary: 1.351 [ms]
[INFO] PISOStep: 4567.33 [ms]
[INFO] MatrixAssemblyPI: 341.976 [ms]
[INFO] AdjustPhi: 18.55 [ms]
[INFO] ConstrainPressure: 0.004 [ms]
[INFO] MatrixAssemblyPII: 98.108 [ms]
[OGL LOG][Proc: 0]: global_index_init: 0.149 [ms]
[OGL LOG][Proc: 0]p_local_coeffs: call_update: 0 [ms]
[OGL LOG][Proc: 0]p_non_local_coeffs: call_update: 0 [ms]
[OGL LOG][Proc: 0]p: update_local_matrix_data: 48.637 [ms]
[OGL LOG][Proc: 0]p: update_non_local_matrix_data: 0.24 [ms]
[OGL LOG][Proc: 0]p_matrix: call_update: 31.349 [ms]
[OGL LOG][Proc: 0]p_rhs: call_update: 5.1 [ms]
[OGL LOG][Proc: 0]p: init_precond: 0.071 [ms]
[OGL LOG][StoppingCriterion.H:372] Creating stopping criterion with minIter 1428 frequency 15
[OGL LOG][Proc: 0]p: generate_solver: 0.005 [ms]
[OGL LOG][Proc: 0]p: solve: 3825.32 [ms]
[OGL LOG][Proc: 0]p: copy_x_back: 9.581 [ms]
[OGL LOG][lduLduBase.H:339] 
Statistics:
	Time per iteration: 1613 [mu s]
	Time per residual norm calculation: 289.000000 [mu s]
	Time per iteration and DOF: 0.059741 [ns]
	Retrieve results bandwidth 2.818000 [GByte/s]
[OGL LOG][Proc: 0]p: solve_multi_gpu: 3872.86 [ms]
nonehipGKOCG:  Solving for p, Initial residual = 0.824757, Final residual = 9.73595e-05, No Iterations 2371
[INFO] SolveP: 3932.2 [ms]
time step continuity errors : sum local = 1.11214e-08, global = -4.98125e-22, cumulative = 5.77143e-21
[INFO] ContinuityError: 48.669 [ms]
[INFO] CorrectBoundary: 1.592 [ms]
[INFO] PISOStep: 4553.34 [ms]
[INFO] TimeStep: 12378.4 [ms]
ExecutionTime = 81.74 s  ClockTime = 72 s

Time = 0.001162

Courant Number mean: 0.0326682 max: 0.511865
[INFO] MatrixAssemblyU: 261.469 [ms]
DILUPBiCGStab:  Solving for Ux, Initial residual = 0.0245505, Final residual = 0.00196811, No Iterations 5
DILUPBiCGStab:  Solving for Uy, Initial residual = 0.0982917, Final residual = 0.00769257, No Iterations 5
DILUPBiCGStab:  Solving for Uz, Initial residual = 0.553029, Final residual = 0.0227959, No Iterations 5
[INFO] MomentumPredictor: 2961.79 [ms]
[INFO] MatrixAssemblyPI: 345.586 [ms]
[INFO] AdjustPhi: 17.961 [ms]
[INFO] ConstrainPressure: 0.003 [ms]
[INFO] MatrixAssemblyPII: 100.766 [ms]
[OGL LOG][Proc: 0]: global_index_init: 0.249 [ms]
[OGL LOG][Proc: 0]p_local_coeffs: call_update: 0 [ms]
[OGL LOG][Proc: 0]p_non_local_coeffs: call_update: 0 [ms]
[OGL LOG][Proc: 0]p: update_local_matrix_data: 48.269 [ms]
[OGL LOG][Proc: 0]p: update_non_local_matrix_data: 0.24 [ms]
[OGL LOG][Proc: 0]p_matrix: call_update: 26.004 [ms]
[OGL LOG][Proc: 0]p_rhs: call_update: 9.938 [ms]
[OGL LOG][Proc: 0]p: init_precond: 0.056 [ms]
[OGL LOG][StoppingCriterion.H:372] Creating stopping criterion with minIter 1422 frequency 13
[OGL LOG][Proc: 0]p: generate_solver: 0.005 [ms]
[OGL LOG][Proc: 0]p: solve: 3690.43 [ms]
[OGL LOG][Proc: 0]p: copy_x_back: 9.459 [ms]
[OGL LOG][lduLduBase.H:339] 
Statistics:
	Time per iteration: 1603 [mu s]
	Time per residual norm calculation: 311.000000 [mu s]
	Time per iteration and DOF: 0.059370 [ns]
	Retrieve results bandwidth 2.854000 [GByte/s]
[OGL LOG][Proc: 0]p: solve_multi_gpu: 3737.05 [ms]
nonehipGKOCG:  Solving for p, Initial residual = 0.905801, Final residual = 8.00087e-05, No Iterations 2302
[INFO] SolveP: 3795.89 [ms]
time step continuity errors : sum local = 8.77723e-09, global = 5.62807e-22, cumulative = 6.33423e-21
[INFO] ContinuityError: 49.74 [ms]
[INFO] CorrectBoundary: 0.913 [ms]
[INFO] PISOStep: 4423.03 [ms]
[INFO] MatrixAssemblyPI: 337.896 [ms]
[INFO] AdjustPhi: 19.704 [ms]
[INFO] ConstrainPressure: 0.005 [ms]
[INFO] MatrixAssemblyPII: 99.233 [ms]
[OGL LOG][Proc: 0]: global_index_init: 0.039 [ms]
[OGL LOG][Proc: 0]p_local_coeffs: call_update: 0 [ms]
[OGL LOG][Proc: 0]p_non_local_coeffs: call_update: 0 [ms]
[OGL LOG][Proc: 0]p: update_local_matrix_data: 48.163 [ms]
[OGL LOG][Proc: 0]p: update_non_local_matrix_data: 0.236 [ms]
[OGL LOG][Proc: 0]p_matrix: call_update: 24.991 [ms]
[OGL LOG][Proc: 0]p_rhs: call_update: 25.218 [ms]
[OGL LOG][Proc: 0]p: init_precond: 0.056 [ms]
[OGL LOG][StoppingCriterion.H:372] Creating stopping criterion with minIter 1381 frequency 13
[OGL LOG][Proc: 0]p: generate_solver: 0.005 [ms]
[OGL LOG][Proc: 0]p: solve: 3707.43 [ms]
[OGL LOG][Proc: 0]p: copy_x_back: 9.521 [ms]
[OGL LOG][lduLduBase.H:339] 
Statistics:
	Time per iteration: 1610 [mu s]
	Time per residual norm calculation: 327.000000 [mu s]
	Time per iteration and DOF: 0.059630 [ns]
	Retrieve results bandwidth 2.835000 [GByte/s]
[OGL LOG][Proc: 0]p: solve_multi_gpu: 3768.29 [ms]
nonehipGKOCG:  Solving for p, Initial residual = 0.860973, Final residual = 8.45018e-05, No Iterations 2302
[INFO] SolveP: 3829.42 [ms]
time step continuity errors : sum local = 9.16873e-09, global = 9.80871e-22, cumulative = 7.3151e-21
[INFO] ContinuityError: 50.591 [ms]
[INFO] CorrectBoundary: 1.128 [ms]
[INFO] PISOStep: 4450.83 [ms]
[INFO] TimeStep: 12141.4 [ms]
ExecutionTime = 95.94 s  ClockTime = 84 s

Time = 0.001328

Courant Number mean: 0.034753 max: 0.481308
[INFO] MatrixAssemblyU: 263.084 [ms]
DILUPBiCGStab:  Solving for Ux, Initial residual = 0.0221227, Final residual = 0.00183363, No Iterations 5
DILUPBiCGStab:  Solving for Uy, Initial residual = 0.087073, Final residual = 0.00645269, No Iterations 5
DILUPBiCGStab:  Solving for Uz, Initial residual = 0.509763, Final residual = 0.0204103, No Iterations 5
[INFO] MomentumPredictor: 2970.56 [ms]
[INFO] MatrixAssemblyPI: 346.038 [ms]
[INFO] AdjustPhi: 19.32 [ms]
[INFO] ConstrainPressure: 0.004 [ms]
[INFO] MatrixAssemblyPII: 98.127 [ms]
[OGL LOG][Proc: 0]: global_index_init: 0.324 [ms]
[OGL LOG][Proc: 0]p_local_coeffs: call_update: 0 [ms]
[OGL LOG][Proc: 0]p_non_local_coeffs: call_update: 0 [ms]
[OGL LOG][Proc: 0]p: update_local_matrix_data: 49.071 [ms]
[OGL LOG][Proc: 0]p: update_non_local_matrix_data: 0.238 [ms]
[OGL LOG][Proc: 0]p_matrix: call_update: 22.425 [ms]
[OGL LOG][Proc: 0]p_rhs: call_update: 6.296 [ms]
[OGL LOG][Proc: 0]p: init_precond: 0.064 [ms]
[OGL LOG][StoppingCriterion.H:372] Creating stopping criterion with minIter 1381 frequency 15
[OGL LOG][Proc: 0]p: generate_solver: 0.004 [ms]
[OGL LOG][Proc: 0]p: solve: 3768.06 [ms]
[OGL LOG][Proc: 0]p: copy_x_back: 9.302 [ms]
[OGL LOG][lduLduBase.H:339] 
Statistics:
	Time per iteration: 1619 [mu s]
	Time per residual norm calculation: 290.000000 [mu s]
	Time per iteration and DOF: 0.059963 [ns]
	Retrieve results bandwidth 2.902000 [GByte/s]
[OGL LOG][Proc: 0]p: solve_multi_gpu: 3807.39 [ms]
nonehipGKOCG:  Solving for p, Initial residual = 0.88373, Final residual = 8.05452e-05, No Iterations 2326
[INFO] SolveP: 3867.3 [ms]
time step continuity errors : sum local = 8.97442e-09, global = 2.772e-21, cumulative = 1.00871e-20
[INFO] ContinuityError: 49.76 [ms]
[INFO] CorrectBoundary: 1.099 [ms]
[INFO] PISOStep: 4495.09 [ms]
[INFO] MatrixAssemblyPI: 336.133 [ms]
[INFO] AdjustPhi: 19.835 [ms]
[INFO] ConstrainPressure: 0.005 [ms]
[INFO] MatrixAssemblyPII: 98.502 [ms]
[OGL LOG][Proc: 0]: global_index_init: 0.039 [ms]
[OGL LOG][Proc: 0]p_local_coeffs: call_update: 0 [ms]
[OGL LOG][Proc: 0]p_non_local_coeffs: call_update: 0 [ms]
[OGL LOG][Proc: 0]p: update_local_matrix_data: 48.188 [ms]
[OGL LOG][Proc: 0]p: update_non_local_matrix_data: 0.251 [ms]
[OGL LOG][Proc: 0]p_matrix: call_update: 25.168 [ms]
[OGL LOG][Proc: 0]p_rhs: call_update: 6.279 [ms]
[OGL LOG][Proc: 0]p: init_precond: 0.056 [ms]
[OGL LOG][StoppingCriterion.H:372] Creating stopping criterion with minIter 1395 frequency 13
[OGL LOG][Proc: 0]p: generate_solver: 0.005 [ms]
[OGL LOG][Proc: 0]p: solve: 3766.96 [ms]
[OGL LOG][Proc: 0]p: copy_x_back: 9.435 [ms]
[OGL LOG][lduLduBase.H:339] 
Statistics:
	Time per iteration: 1627 [mu s]
	Time per residual norm calculation: 311.000000 [mu s]
	Time per iteration and DOF: 0.060259 [ns]
	Retrieve results bandwidth 2.861000 [GByte/s]
[OGL LOG][Proc: 0]p: solve_multi_gpu: 3809.14 [ms]
nonehipGKOCG:  Solving for p, Initial residual = 0.817885, Final residual = 8.88523e-05, No Iterations 2315
[INFO] SolveP: 3869.02 [ms]
time step continuity errors : sum local = 1.00366e-08, global = -1.22091e-21, cumulative = 8.86619e-21
[INFO] ContinuityError: 51.933 [ms]
[INFO] CorrectBoundary: 1.334 [ms]
[INFO] PISOStep: 4489.83 [ms]
[INFO] TimeStep: 12263.3 [ms]
ExecutionTime = 110.3 s  ClockTime = 96 s

Time = 0.001494

Courant Number mean: 0.0367021 max: 0.518002
[INFO] MatrixAssemblyU: 262.467 [ms]
DILUPBiCGStab:  Solving for Ux, Initial residual = 0.0205463, Final residual = 0.00171311, No Iterations 5
DILUPBiCGStab:  Solving for Uy, Initial residual = 0.0819323, Final residual = 0.00611179, No Iterations 5
DILUPBiCGStab:  Solving for Uz, Initial residual = 0.505733, Final residual = 0.0191873, No Iterations 5
[INFO] MomentumPredictor: 2959.23 [ms]
[INFO] MatrixAssemblyPI: 344.748 [ms]
[INFO] AdjustPhi: 17.919 [ms]
[INFO] ConstrainPressure: 0.005 [ms]
[INFO] MatrixAssemblyPII: 98.164 [ms]
[OGL LOG][Proc: 0]: global_index_init: 1.63 [ms]
[OGL LOG][Proc: 0]p_local_coeffs: call_update: 0 [ms]
[OGL LOG][Proc: 0]p_non_local_coeffs: call_update: 0 [ms]
[OGL LOG][Proc: 0]p: update_local_matrix_data: 48.076 [ms]
[OGL LOG][Proc: 0]p: update_non_local_matrix_data: 0.241 [ms]
[OGL LOG][Proc: 0]p_matrix: call_update: 26.908 [ms]
[OGL LOG][Proc: 0]p_rhs: call_update: 13.697 [ms]
[OGL LOG][Proc: 0]p: init_precond: 0.054 [ms]
[OGL LOG][StoppingCriterion.H:372] Creating stopping criterion with minIter 1389 frequency 13
[OGL LOG][Proc: 0]p: generate_solver: 0.004 [ms]
[OGL LOG][Proc: 0]p: solve: 3372.19 [ms]
[OGL LOG][Proc: 0]p: copy_x_back: 9.4 [ms]
[OGL LOG][lduLduBase.H:339] 
Statistics:
	Time per iteration: 1610 [mu s]
	Time per residual norm calculation: 284.000000 [mu s]
	Time per iteration and DOF: 0.059630 [ns]
	Retrieve results bandwidth 2.872000 [GByte/s]
[OGL LOG][Proc: 0]p: solve_multi_gpu: 3423.49 [ms]
nonehipGKOCG:  Solving for p, Initial residual = 0.901636, Final residual = 9.64675e-05, No Iterations 2094
[INFO] SolveP: 3484.74 [ms]
time step continuity errors : sum local = 1.05271e-08, global = 6.44439e-22, cumulative = 9.51063e-21
[INFO] ContinuityError: 46.876 [ms]
[INFO] CorrectBoundary: 0.991 [ms]
[INFO] PISOStep: 4108.14 [ms]
[INFO] MatrixAssemblyPI: 338.318 [ms]
[INFO] AdjustPhi: 17.888 [ms]
[INFO] ConstrainPressure: 0.004 [ms]
[INFO] MatrixAssemblyPII: 98.721 [ms]
[OGL LOG][Proc: 0]: global_index_init: 0.037 [ms]
[OGL LOG][Proc: 0]p_local_coeffs: call_update: 0 [ms]
[OGL LOG][Proc: 0]p_non_local_coeffs: call_update: 0 [ms]
[OGL LOG][Proc: 0]p: update_local_matrix_data: 49.006 [ms]
[OGL LOG][Proc: 0]p: update_non_local_matrix_data: 0.223 [ms]
[OGL LOG][Proc: 0]p_matrix: call_update: 22.203 [ms]
[OGL LOG][Proc: 0]p_rhs: call_update: 7.395 [ms]
[OGL LOG][Proc: 0]p: init_precond: 0.055 [ms]
[OGL LOG][StoppingCriterion.H:372] Creating stopping criterion with minIter 1256 frequency 12
[OGL LOG][Proc: 0]p: generate_solver: 0.004 [ms]
[OGL LOG][Proc: 0]p: solve: 3374.99 [ms]
[OGL LOG][Proc: 0]p: copy_x_back: 9.356 [ms]
[OGL LOG][lduLduBase.H:339] 
Statistics:
	Time per iteration: 1615 [mu s]
	Time per residual norm calculation: 329.000000 [mu s]
	Time per iteration and DOF: 0.059815 [ns]
	Retrieve results bandwidth 2.885000 [GByte/s]
[OGL LOG][Proc: 0]p: solve_multi_gpu: 3415.07 [ms]
nonehipGKOCG:  Solving for p, Initial residual = 0.851744, Final residual = 9.16251e-05, No Iterations 2089
[INFO] SolveP: 3474.91 [ms]
time step continuity errors : sum local = 9.90066e-09, global = 8.0609e-22, cumulative = 1.03167e-20
[INFO] ContinuityError: 48.945 [ms]
[INFO] CorrectBoundary: 1.427 [ms]
[INFO] PISOStep: 4093.2 [ms]
[INFO] TimeStep: 11467.6 [ms]
ExecutionTime = 123.6 s  ClockTime = 107 s

Time = 0.00166

Courant Number mean: 0.0383957 max: 0.483672
[INFO] MatrixAssemblyU: 261.493 [ms]
DILUPBiCGStab:  Solving for Ux, Initial residual = 0.019337, Final residual = 0.00162649, No Iterations 5
DILUPBiCGStab:  Solving for Uy, Initial residual = 0.0736106, Final residual = 0.00529584, No Iterations 5
DILUPBiCGStab:  Solving for Uz, Initial residual = 0.485085, Final residual = 0.0184934, No Iterations 5
[INFO] MomentumPredictor: 2969.16 [ms]
[INFO] MatrixAssemblyPI: 348.793 [ms]
[INFO] AdjustPhi: 17.972 [ms]
[INFO] ConstrainPressure: 0.004 [ms]
[INFO] MatrixAssemblyPII: 98.304 [ms]
[OGL LOG][Proc: 0]: global_index_init: 0.259 [ms]
[OGL LOG][Proc: 0]p_local_coeffs: call_update: 0 [ms]
[OGL LOG][Proc: 0]p_non_local_coeffs: call_update: 0 [ms]
[OGL LOG][Proc: 0]p: update_local_matrix_data: 48.449 [ms]
[OGL LOG][Proc: 0]p: update_non_local_matrix_data: 0.256 [ms]
[OGL LOG][Proc: 0]p_matrix: call_update: 23.173 [ms]
[OGL LOG][Proc: 0]p_rhs: call_update: 20.875 [ms]
[OGL LOG][Proc: 0]p: init_precond: 0.057 [ms]
[OGL LOG][StoppingCriterion.H:372] Creating stopping criterion with minIter 1253 frequency 14
[OGL LOG][Proc: 0]p: generate_solver: 0.005 [ms]
[OGL LOG][Proc: 0]p: solve: 3725.26 [ms]
[OGL LOG][Proc: 0]p: copy_x_back: 9.298 [ms]
[OGL LOG][lduLduBase.H:339] 
Statistics:
	Time per iteration: 1611 [mu s]
	Time per residual norm calculation: 290.000000 [mu s]
	Time per iteration and DOF: 0.059667 [ns]
	Retrieve results bandwidth 2.903000 [GByte/s]
[OGL LOG][Proc: 0]p: solve_multi_gpu: 3779.74 [ms]
nonehipGKOCG:  Solving for p, Initial residual = 0.882641, Final residual = 8.48289e-05, No Iterations 2311
[INFO] SolveP: 3838.94 [ms]
time step continuity errors : sum local = 9.55494e-09, global = -8.32926e-22, cumulative = 9.48379e-21
[INFO] ContinuityError: 50.917 [ms]
[INFO] CorrectBoundary: 0.94 [ms]
[INFO] PISOStep: 4467.61 [ms]
[INFO] MatrixAssemblyPI: 336.521 [ms]
[INFO] AdjustPhi: 22.534 [ms]
[INFO] ConstrainPressure: 0.005 [ms]
[INFO] MatrixAssemblyPII: 98.179 [ms]
[OGL LOG][Proc: 0]: global_index_init: 0.037 [ms]
[OGL LOG][Proc: 0]p_local_coeffs: call_update: 0 [ms]
[OGL LOG][Proc: 0]p_non_local_coeffs: call_update: 0 [ms]
[OGL LOG][Proc: 0]p: update_local_matrix_data: 48.235 [ms]
[OGL LOG][Proc: 0]p: update_non_local_matrix_data: 0.244 [ms]
[OGL LOG][Proc: 0]p_matrix: call_update: 23.087 [ms]
[OGL LOG][Proc: 0]p_rhs: call_update: 6.058 [ms]
[OGL LOG][Proc: 0]p: init_precond: 0.056 [ms]
[OGL LOG][StoppingCriterion.H:372] Creating stopping criterion with minIter 1386 frequency 13
[OGL LOG][Proc: 0]p: generate_solver: 0.005 [ms]
[OGL LOG][Proc: 0]p: solve: 3698.36 [ms]
[OGL LOG][Proc: 0]p: copy_x_back: 9.548 [ms]
[OGL LOG][lduLduBase.H:339] 
Statistics:
	Time per iteration: 1606 [mu s]
	Time per residual norm calculation: 316.000000 [mu s]
	Time per iteration and DOF: 0.059481 [ns]
	Retrieve results bandwidth 2.827000 [GByte/s]
[OGL LOG][Proc: 0]p: solve_multi_gpu: 3738.57 [ms]
nonehipGKOCG:  Solving for p, Initial residual = 0.813513, Final residual = 8.62238e-05, No Iterations 2302
[INFO] SolveP: 3797.41 [ms]
time step continuity errors : sum local = 9.83395e-09, global = 8.08038e-23, cumulative = 9.5646e-21
[INFO] ContinuityError: 49.466 [ms]
[INFO] CorrectBoundary: 1.04 [ms]
[INFO] PISOStep: 4417.89 [ms]
[INFO] TimeStep: 12160.6 [ms]
ExecutionTime = 137.79 s  ClockTime = 120 s

Time = 0.001826

Courant Number mean: 0.0400178 max: 0.524624
[INFO] MatrixAssemblyU: 262.78 [ms]
DILUPBiCGStab:  Solving for Ux, Initial residual = 0.0181668, Final residual = 0.00152145, No Iterations 5
DILUPBiCGStab:  Solving for Uy, Initial residual = 0.0719894, Final residual = 0.0051157, No Iterations 5
DILUPBiCGStab:  Solving for Uz, Initial residual = 0.48595, Final residual = 0.0172331, No Iterations 5
[INFO] MomentumPredictor: 2952.65 [ms]
[INFO] MatrixAssemblyPI: 345.989 [ms]
[INFO] AdjustPhi: 18.486 [ms]
[INFO] ConstrainPressure: 0.005 [ms]
[INFO] MatrixAssemblyPII: 97.628 [ms]
[OGL LOG][Proc: 0]: global_index_init: 0.368 [ms]
[OGL LOG][Proc: 0]p_local_coeffs: call_update: 0 [ms]
[OGL LOG][Proc: 0]p_non_local_coeffs: call_update: 0 [ms]
[OGL LOG][Proc: 0]p: update_local_matrix_data: 48.119 [ms]
[OGL LOG][Proc: 0]p: update_non_local_matrix_data: 0.243 [ms]
[OGL LOG][Proc: 0]p_matrix: call_update: 30.589 [ms]
[OGL LOG][Proc: 0]p_rhs: call_update: 2.872 [ms]
[OGL LOG][Proc: 0]p: init_precond: 0.054 [ms]
[OGL LOG][StoppingCriterion.H:372] Creating stopping criterion with minIter 1381 frequency 13
[OGL LOG][Proc: 0]p: generate_solver: 0.005 [ms]
[OGL LOG][Proc: 0]p: solve: 3732.55 [ms]
[OGL LOG][Proc: 0]p: copy_x_back: 15.913 [ms]
[OGL LOG][lduLduBase.H:339] 
Statistics:
	Time per iteration: 1621 [mu s]
	Time per residual norm calculation: 284.000000 [mu s]
	Time per iteration and DOF: 0.060037 [ns]
	Retrieve results bandwidth 1.696000 [GByte/s]
[OGL LOG][Proc: 0]p: solve_multi_gpu: 3783 [ms]
nonehipGKOCG:  Solving for p, Initial residual = 0.901631, Final residual = 8.61809e-05, No Iterations 2302
[INFO] SolveP: 3843.67 [ms]
time step continuity errors : sum local = 9.65217e-09, global = 1.18708e-21, cumulative = 1.07517e-20
[INFO] ContinuityError: 47.085 [ms]
[INFO] CorrectBoundary: 1.082 [ms]
[INFO] PISOStep: 4468.19 [ms]
[INFO] MatrixAssemblyPI: 340.171 [ms]
[INFO] AdjustPhi: 17.917 [ms]
[INFO] ConstrainPressure: 0.004 [ms]
[INFO] MatrixAssemblyPII: 98.194 [ms]
[OGL LOG][Proc: 0]: global_index_init: 0.035 [ms]
[OGL LOG][Proc: 0]p_local_coeffs: call_update: 0 [ms]
[OGL LOG][Proc: 0]p_non_local_coeffs: call_update: 0 [ms]
[OGL LOG][Proc: 0]p: update_local_matrix_data: 48.138 [ms]
[OGL LOG][Proc: 0]p: update_non_local_matrix_data: 0.24 [ms]
[OGL LOG][Proc: 0]p_matrix: call_update: 32.753 [ms]
[OGL LOG][Proc: 0]p_rhs: call_update: 6.042 [ms]
[OGL LOG][Proc: 0]p: init_precond: 0.056 [ms]
[OGL LOG][StoppingCriterion.H:372] Creating stopping criterion with minIter 1381 frequency 13
[OGL LOG][Proc: 0]p: generate_solver: 0.004 [ms]
[OGL LOG][Proc: 0]p: solve: 3723.62 [ms]
[OGL LOG][Proc: 0]p: copy_x_back: 9.51 [ms]
[OGL LOG][lduLduBase.H:339] 
Statistics:
	Time per iteration: 1617 [mu s]
	Time per residual norm calculation: 322.000000 [mu s]
	Time per iteration and DOF: 0.059889 [ns]
	Retrieve results bandwidth 2.839000 [GByte/s]
[OGL LOG][Proc: 0]p: solve_multi_gpu: 3773.26 [ms]
nonehipGKOCG:  Solving for p, Initial residual = 0.847136, Final residual = 8.47845e-05, No Iterations 2302
[INFO] SolveP: 3832.2 [ms]
time step continuity errors : sum local = 9.41599e-09, global = 9.06328e-22, cumulative = 1.1658e-20
[INFO] ContinuityError: 49.482 [ms]
[INFO] CorrectBoundary: 1.311 [ms]
[INFO] PISOStep: 4452.45 [ms]
[INFO] TimeStep: 12180.4 [ms]
ExecutionTime = 152.06 s  ClockTime = 132 s

Time = 0.001992

Courant Number mean: 0.041449 max: 0.486753
[INFO] MatrixAssemblyU: 261.984 [ms]
DILUPBiCGStab:  Solving for Ux, Initial residual = 0.0175749, Final residual = 0.00146953, No Iterations 5
DILUPBiCGStab:  Solving for Uy, Initial residual = 0.0655169, Final residual = 0.0044984, No Iterations 5
DILUPBiCGStab:  Solving for Uz, Initial residual = 0.470818, Final residual = 0.0165416, No Iterations 5
[INFO] MomentumPredictor: 2972.71 [ms]
[INFO] MatrixAssemblyPI: 344.157 [ms]
[INFO] AdjustPhi: 21.719 [ms]
[INFO] ConstrainPressure: 0.004 [ms]
[INFO] MatrixAssemblyPII: 98.45 [ms]
[OGL LOG][Proc: 0]: global_index_init: 0.213 [ms]
[OGL LOG][Proc: 0]p_local_coeffs: call_update: 0 [ms]
[OGL LOG][Proc: 0]p_non_local_coeffs: call_update: 0 [ms]
[OGL LOG][Proc: 0]p: update_local_matrix_data: 49.27 [ms]
[OGL LOG][Proc: 0]p: update_non_local_matrix_data: 0.242 [ms]
[OGL LOG][Proc: 0]p_matrix: call_update: 31.239 [ms]
[OGL LOG][Proc: 0]p_rhs: call_update: 3.552 [ms]
[OGL LOG][Proc: 0]p: init_precond: 0.063 [ms]
[OGL LOG][StoppingCriterion.H:372] Creating stopping criterion with minIter 1381 frequency 13
[OGL LOG][Proc: 0]p: generate_solver: 0.005 [ms]
[OGL LOG][Proc: 0]p: solve: 3722.41 [ms]
[OGL LOG][Proc: 0]p: copy_x_back: 9.271 [ms]
[OGL LOG][lduLduBase.H:339] 
Statistics:
	Time per iteration: 1617 [mu s]
	Time per residual norm calculation: 289.000000 [mu s]
	Time per iteration and DOF: 0.059889 [ns]
	Retrieve results bandwidth 2.912000 [GByte/s]
[OGL LOG][Proc: 0]p: solve_multi_gpu: 3767.76 [ms]
nonehipGKOCG:  Solving for p, Initial residual = 0.884143, Final residual = 8.43242e-05, No Iterations 2302
[INFO] SolveP: 3827.57 [ms]
time step continuity errors : sum local = 9.81686e-09, global = -1.13481e-21, cumulative = 1.05232e-20
[INFO] ContinuityError: 49.529 [ms]
[INFO] CorrectBoundary: 1.135 [ms]
[INFO] PISOStep: 4457.07 [ms]
[INFO] MatrixAssemblyPI: 335.934 [ms]
[INFO] AdjustPhi: 18.536 [ms]
[INFO] ConstrainPressure: 0.005 [ms]
[INFO] MatrixAssemblyPII: 98.426 [ms]
[OGL LOG][Proc: 0]: global_index_init: 0.041 [ms]
[OGL LOG][Proc: 0]p_local_coeffs: call_update: 0 [ms]
[OGL LOG][Proc: 0]p_non_local_coeffs: call_update: 0 [ms]
[OGL LOG][Proc: 0]p: update_local_matrix_data: 48.455 [ms]
[OGL LOG][Proc: 0]p: update_non_local_matrix_data: 0.244 [ms]
[OGL LOG][Proc: 0]p_matrix: call_update: 25.334 [ms]
[OGL LOG][Proc: 0]p_rhs: call_update: 6.553 [ms]
[OGL LOG][Proc: 0]p: init_precond: 0.057 [ms]
[OGL LOG][StoppingCriterion.H:372] Creating stopping criterion with minIter 1381 frequency 13
[OGL LOG][Proc: 0]p: generate_solver: 0.004 [ms]
[OGL LOG][Proc: 0]p: solve: 3721.49 [ms]
[OGL LOG][Proc: 0]p: copy_x_back: 9.755 [ms]
[OGL LOG][lduLduBase.H:339] 
Statistics:
	Time per iteration: 1616 [mu s]
	Time per residual norm calculation: 316.000000 [mu s]
	Time per iteration and DOF: 0.059852 [ns]
	Retrieve results bandwidth 2.767000 [GByte/s]
[OGL LOG][Proc: 0]p: solve_multi_gpu: 3764.45 [ms]
nonehipGKOCG:  Solving for p, Initial residual = 0.813586, Final residual = 8.46203e-05, No Iterations 2302
[INFO] SolveP: 3823.31 [ms]
time step continuity errors : sum local = 9.96129e-09, global = 5.64082e-22, cumulative = 1.10873e-20
[INFO] ContinuityError: 50.152 [ms]
[INFO] CorrectBoundary: 0.941 [ms]
[INFO] PISOStep: 4439.6 [ms]
[INFO] TimeStep: 12176.3 [ms]
ExecutionTime = 166.22 s  ClockTime = 144 s

Time = 0.002158

Courant Number mean: 0.0428475 max: 0.532251
[INFO] MatrixAssemblyU: 262.223 [ms]
DILUPBiCGStab:  Solving for Ux, Initial residual = 0.0166403, Final residual = 0.00136929, No Iterations 5
DILUPBiCGStab:  Solving for Uy, Initial residual = 0.0655664, Final residual = 0.00442757, No Iterations 5
DILUPBiCGStab:  Solving for Uz, Initial residual = 0.479015, Final residual = 0.0162969, No Iterations 5
[INFO] MomentumPredictor: 2950.49 [ms]
[INFO] MatrixAssemblyPI: 345.323 [ms]
[INFO] AdjustPhi: 18.218 [ms]
[INFO] ConstrainPressure: 0.004 [ms]
[INFO] MatrixAssemblyPII: 98.596 [ms]
[OGL LOG][Proc: 0]: global_index_init: 0.265 [ms]
[OGL LOG][Proc: 0]p_local_coeffs: call_update: 0 [ms]
[OGL LOG][Proc: 0]p_non_local_coeffs: call_update: 0 [ms]
[OGL LOG][Proc: 0]p: update_local_matrix_data: 48.413 [ms]
[OGL LOG][Proc: 0]p: update_non_local_matrix_data: 0.25 [ms]
[OGL LOG][Proc: 0]p_matrix: call_update: 23.009 [ms]
[OGL LOG][Proc: 0]p_rhs: call_update: 11.538 [ms]
[OGL LOG][Proc: 0]p: init_precond: 0.057 [ms]
[OGL LOG][StoppingCriterion.H:372] Creating stopping criterion with minIter 1381 frequency 13
[OGL LOG][Proc: 0]p: generate_solver: 0.005 [ms]
[OGL LOG][Proc: 0]p: solve: 3699.62 [ms]
[OGL LOG][Proc: 0]p: copy_x_back: 9.452 [ms]
[OGL LOG][lduLduBase.H:339] 
Statistics:
	Time per iteration: 1607 [mu s]
	Time per residual norm calculation: 317.000000 [mu s]
	Time per iteration and DOF: 0.059519 [ns]
	Retrieve results bandwidth 2.856000 [GByte/s]
[OGL LOG][Proc: 0]p: solve_multi_gpu: 3744.93 [ms]
nonehipGKOCG:  Solving for p, Initial residual = 0.902382, Final residual = 8.46378e-05, No Iterations 2302
[INFO] SolveP: 3803.91 [ms]
time step continuity errors : sum local = 9.85521e-09, global = 2.00415e-22, cumulative = 1.12877e-20
[INFO] ContinuityError: 51.014 [ms]
[INFO] CorrectBoundary: 1.964 [ms]
[INFO] PISOStep: 4430.4 [ms]
[INFO] MatrixAssemblyPI: 336.842 [ms]
[INFO] AdjustPhi: 21.293 [ms]
[INFO] ConstrainPressure: 0.005 [ms]
[INFO] MatrixAssemblyPII: 98.651 [ms]
[OGL LOG][Proc: 0]: global_index_init: 0.037 [ms]
[OGL LOG][Proc: 0]p_local_coeffs: call_update: 0 [ms]
[OGL LOG][Proc: 0]p_non_local_coeffs: call_update: 0 [ms]
[OGL LOG][Proc: 0]p: update_local_matrix_data: 48.575 [ms]
[OGL LOG][Proc: 0]p: update_non_local_matrix_data: 0.245 [ms]
[OGL LOG][Proc: 0]p_matrix: call_update: 24.999 [ms]
[OGL LOG][Proc: 0]p_rhs: call_update: 5.558 [ms]
[OGL LOG][Proc: 0]p: init_precond: 0.055 [ms]
[OGL LOG][StoppingCriterion.H:372] Creating stopping criterion with minIter 1381 frequency 13
[OGL LOG][Proc: 0]p: generate_solver: 0.005 [ms]
[OGL LOG][Proc: 0]p: solve: 3698.82 [ms]
[OGL LOG][Proc: 0]p: copy_x_back: 9.368 [ms]
[OGL LOG][lduLduBase.H:339] 
Statistics:
	Time per iteration: 1606 [mu s]
	Time per residual norm calculation: 321.000000 [mu s]
	Time per iteration and DOF: 0.059481 [ns]
	Retrieve results bandwidth 2.882000 [GByte/s]
[OGL LOG][Proc: 0]p: solve_multi_gpu: 3740 [ms]
nonehipGKOCG:  Solving for p, Initial residual = 0.844282, Final residual = 8.55938e-05, No Iterations 2302
[INFO] SolveP: 3800.53 [ms]
time step continuity errors : sum local = 9.89674e-09, global = 2.59747e-22, cumulative = 1.15474e-20
[INFO] ContinuityError: 54.234 [ms]
[INFO] CorrectBoundary: 0.926 [ms]
[INFO] PISOStep: 4424.83 [ms]
[INFO] TimeStep: 12112.3 [ms]
ExecutionTime = 180.33 s  ClockTime = 156 s

Time = 0.002324

Courant Number mean: 0.0440892 max: 0.489793
[INFO] MatrixAssemblyU: 262.59 [ms]
DILUPBiCGStab:  Solving for Ux, Initial residual = 0.0164099, Final residual = 0.00134469, No Iterations 5
DILUPBiCGStab:  Solving for Uy, Initial residual = 0.0604379, Final residual = 0.0039302, No Iterations 5
DILUPBiCGStab:  Solving for Uz, Initial residual = 0.469664, Final residual = 0.0158201, No Iterations 5
[INFO] MomentumPredictor: 2963.02 [ms]
[INFO] MatrixAssemblyPI: 344.013 [ms]
[INFO] AdjustPhi: 18.914 [ms]
[INFO] ConstrainPressure: 0.004 [ms]
[INFO] MatrixAssemblyPII: 98.281 [ms]
[OGL LOG][Proc: 0]: global_index_init: 0.376 [ms]
[OGL LOG][Proc: 0]p_local_coeffs: call_update: 0 [ms]
[OGL LOG][Proc: 0]p_non_local_coeffs: call_update: 0 [ms]
[OGL LOG][Proc: 0]p: update_local_matrix_data: 48.291 [ms]
[OGL LOG][Proc: 0]p: update_non_local_matrix_data: 0.243 [ms]
[OGL LOG][Proc: 0]p_matrix: call_update: 36.315 [ms]
[OGL LOG][Proc: 0]p_rhs: call_update: 6.778 [ms]
[OGL LOG][Proc: 0]p: init_precond: 0.054 [ms]
[OGL LOG][StoppingCriterion.H:372] Creating stopping criterion with minIter 1381 frequency 13
[OGL LOG][Proc: 0]p: generate_solver: 0.005 [ms]
[OGL LOG][Proc: 0]p: solve: 3737.13 [ms]
[OGL LOG][Proc: 0]p: copy_x_back: 9.432 [ms]
[OGL LOG][lduLduBase.H:339] 
Statistics:
	Time per iteration: 1623 [mu s]
	Time per residual norm calculation: 290.000000 [mu s]
	Time per iteration and DOF: 0.060111 [ns]
	Retrieve results bandwidth 2.862000 [GByte/s]
[OGL LOG][Proc: 0]p: solve_multi_gpu: 3792.15 [ms]
nonehipGKOCG:  Solving for p, Initial residual = 0.886496, Final residual = 8.61888e-05, No Iterations 2302
[INFO] SolveP: 3851.02 [ms]
time step continuity errors : sum local = 1.04466e-08, global = -6.63796e-22, cumulative = 1.08836e-20
[INFO] ContinuityError: 49.433 [ms]
[INFO] CorrectBoundary: 1.086 [ms]
[INFO] PISOStep: 4473.78 [ms]
[INFO] MatrixAssemblyPI: 337.624 [ms]
[INFO] AdjustPhi: 20.181 [ms]
[INFO] ConstrainPressure: 0.004 [ms]
[INFO] MatrixAssemblyPII: 98.177 [ms]
[OGL LOG][Proc: 0]: global_index_init: 0.133 [ms]
[OGL LOG][Proc: 0]p_local_coeffs: call_update: 0 [ms]
[OGL LOG][Proc: 0]p_non_local_coeffs: call_update: 0 [ms]
[OGL LOG][Proc: 0]p: update_local_matrix_data: 49.249 [ms]
[OGL LOG][Proc: 0]p: update_non_local_matrix_data: 0.224 [ms]
[OGL LOG][Proc: 0]p_matrix: call_update: 22.947 [ms]
[OGL LOG][Proc: 0]p_rhs: call_update: 5.899 [ms]
[OGL LOG][Proc: 0]p: init_precond: 0.053 [ms]
[OGL LOG][StoppingCriterion.H:372] Creating stopping criterion with minIter 1381 frequency 13
[OGL LOG][Proc: 0]p: generate_solver: 0.004 [ms]
[OGL LOG][Proc: 0]p: solve: 3720.51 [ms]
[OGL LOG][Proc: 0]p: copy_x_back: 9.74 [ms]
[OGL LOG][lduLduBase.H:339] 
Statistics:
	Time per iteration: 1616 [mu s]
	Time per residual norm calculation: 327.000000 [mu s]
	Time per iteration and DOF: 0.059852 [ns]
	Retrieve results bandwidth 2.772000 [GByte/s]
[OGL LOG][Proc: 0]p: solve_multi_gpu: 3760.41 [ms]
nonehipGKOCG:  Solving for p, Initial residual = 0.814791, Final residual = 8.49579e-05, No Iterations 2302
[INFO] SolveP: 3820.38 [ms]
time step continuity errors : sum local = 1.0398e-08, global = 1.46662e-21, cumulative = 1.23503e-20
[INFO] ContinuityError: 49.466 [ms]
[INFO] CorrectBoundary: 0.923 [ms]
[INFO] PISOStep: 4442.53 [ms]
[INFO] TimeStep: 12186.1 [ms]
ExecutionTime = 194.58 s  ClockTime = 168 s

Time = 0.00249

Courant Number mean: 0.0453247 max: 0.540994
[INFO] MatrixAssemblyU: 261.226 [ms]
DILUPBiCGStab:  Solving for Ux, Initial residual = 0.0156583, Final residual = 0.00124695, No Iterations 5
DILUPBiCGStab:  Solving for Uy, Initial residual = 0.0613183, Final residual = 0.00392751, No Iterations 5
DILUPBiCGStab:  Solving for Uz, Initial residual = 0.480048, Final residual = 0.0157325, No Iterations 5
[INFO] MomentumPredictor: 2959.83 [ms]
[INFO] MatrixAssemblyPI: 343.879 [ms]
[INFO] AdjustPhi: 19.498 [ms]
[INFO] ConstrainPressure: 0.004 [ms]
[INFO] MatrixAssemblyPII: 97.863 [ms]
[OGL LOG][Proc: 0]: global_index_init: 0.404 [ms]
[OGL LOG][Proc: 0]p_local_coeffs: call_update: 0 [ms]
[OGL LOG][Proc: 0]p_non_local_coeffs: call_update: 0 [ms]
[OGL LOG][Proc: 0]p: update_local_matrix_data: 48.633 [ms]
[OGL LOG][Proc: 0]p: update_non_local_matrix_data: 0.248 [ms]
[OGL LOG][Proc: 0]p_matrix: call_update: 22.642 [ms]
[OGL LOG][Proc: 0]p_rhs: call_update: 13.202 [ms]
[OGL LOG][Proc: 0]p: init_precond: 0.056 [ms]
[OGL LOG][StoppingCriterion.H:372] Creating stopping criterion with minIter 1381 frequency 15
[OGL LOG][Proc: 0]p: generate_solver: 0.005 [ms]
[OGL LOG][Proc: 0]p: solve: 3732.14 [ms]
[OGL LOG][Proc: 0]p: copy_x_back: 9.327 [ms]
[OGL LOG][lduLduBase.H:339] 
Statistics:
	Time per iteration: 1625 [mu s]
	Time per residual norm calculation: 286.000000 [mu s]
	Time per iteration and DOF: 0.060185 [ns]
	Retrieve results bandwidth 2.894000 [GByte/s]
[OGL LOG][Proc: 0]p: solve_multi_gpu: 3778.43 [ms]
nonehipGKOCG:  Solving for p, Initial residual = 0.903196, Final residual = 9.49164e-05, No Iterations 2296
[INFO] SolveP: 3837.89 [ms]
time step continuity errors : sum local = 1.1547e-08, global = 4.08254e-22, cumulative = 1.27585e-20
[INFO] ContinuityError: 49.529 [ms]
[INFO] CorrectBoundary: 1.062 [ms]
[INFO] PISOStep: 4462.35 [ms]
[INFO] MatrixAssemblyPI: 336.392 [ms]
[INFO] AdjustPhi: 18.554 [ms]
[INFO] ConstrainPressure: 0.004 [ms]
[INFO] MatrixAssemblyPII: 98.778 [ms]
[OGL LOG][Proc: 0]: global_index_init: 0.04 [ms]
[OGL LOG][Proc: 0]p_local_coeffs: call_update: 0 [ms]
[OGL LOG][Proc: 0]p_non_local_coeffs: call_update: 0 [ms]
[OGL LOG][Proc: 0]p: update_local_matrix_data: 48.407 [ms]
[OGL LOG][Proc: 0]p: update_non_local_matrix_data: 0.24 [ms]
[OGL LOG][Proc: 0]p_matrix: call_update: 26.55 [ms]
[OGL LOG][Proc: 0]p_rhs: call_update: 7.65 [ms]
[OGL LOG][Proc: 0]p: init_precond: 0.058 [ms]
[OGL LOG][StoppingCriterion.H:372] Creating stopping criterion with minIter 1377 frequency 13
[OGL LOG][Proc: 0]p: generate_solver: 0.005 [ms]
[OGL LOG][Proc: 0]p: solve: 3718.85 [ms]
[OGL LOG][Proc: 0]p: copy_x_back: 9.517 [ms]
[OGL LOG][lduLduBase.H:339] 
Statistics:
	Time per iteration: 1615 [mu s]
	Time per residual norm calculation: 286.000000 [mu s]
	Time per iteration and DOF: 0.059815 [ns]
	Retrieve results bandwidth 2.837000 [GByte/s]
[OGL LOG][Proc: 0]p: solve_multi_gpu: 3763.82 [ms]
nonehipGKOCG:  Solving for p, Initial residual = 0.842113, Final residual = 8.24538e-05, No Iterations 2302
[INFO] SolveP: 3822.73 [ms]
time step continuity errors : sum local = 9.97423e-09, global = 2.80297e-22, cumulative = 1.30388e-20
[INFO] ContinuityError: 48.676 [ms]
[INFO] CorrectBoundary: 3.52 [ms]
[INFO] PISOStep: 4441.44 [ms]
[INFO] TimeStep: 12169.3 [ms]
ExecutionTime = 208.78 s  ClockTime = 180 s

Time = 0.002656

Courant Number mean: 0.0464224 max: 0.492862
[INFO] MatrixAssemblyU: 262.293 [ms]
DILUPBiCGStab:  Solving for Ux, Initial residual = 0.0156461, Final residual = 0.00124148, No Iterations 5
DILUPBiCGStab:  Solving for Uy, Initial residual = 0.0572856, Final residual = 0.00351487, No Iterations 5
DILUPBiCGStab:  Solving for Uz, Initial residual = 0.474089, Final residual = 0.0154081, No Iterations 5
[INFO] MomentumPredictor: 2980.42 [ms]
[INFO] MatrixAssemblyPI: 344.057 [ms]
[INFO] AdjustPhi: 19.547 [ms]
[INFO] ConstrainPressure: 0.004 [ms]
[INFO] MatrixAssemblyPII: 98.551 [ms]
[OGL LOG][Proc: 0]: global_index_init: 0.271 [ms]
[OGL LOG][Proc: 0]p_local_coeffs: call_update: 0 [ms]
[OGL LOG][Proc: 0]p_non_local_coeffs: call_update: 0 [ms]
[OGL LOG][Proc: 0]p: update_local_matrix_data: 48.073 [ms]
[OGL LOG][Proc: 0]p: update_non_local_matrix_data: 0.244 [ms]
[OGL LOG][Proc: 0]p_matrix: call_update: 26.062 [ms]
[OGL LOG][Proc: 0]p_rhs: call_update: 10.389 [ms]
[OGL LOG][Proc: 0]p: init_precond: 0.058 [ms]
[OGL LOG][StoppingCriterion.H:372] Creating stopping criterion with minIter 1381 frequency 13
[OGL LOG][Proc: 0]p: generate_solver: 0.004 [ms]
[OGL LOG][Proc: 0]p: solve: 3700.73 [ms]
[OGL LOG][Proc: 0]p: copy_x_back: 9.497 [ms]
[OGL LOG][lduLduBase.H:339] 
Statistics:
	Time per iteration: 1607 [mu s]
	Time per residual norm calculation: 286.000000 [mu s]
	Time per iteration and DOF: 0.059519 [ns]
	Retrieve results bandwidth 2.843000 [GByte/s]
[OGL LOG][Proc: 0]p: solve_multi_gpu: 3747.97 [ms]
nonehipGKOCG:  Solving for p, Initial residual = 0.889481, Final residual = 8.6494e-05, No Iterations 2302
[INFO] SolveP: 3806.73 [ms]
time step continuity errors : sum local = 1.09451e-08, global = 8.36801e-22, cumulative = 1.38756e-20
[INFO] ContinuityError: 51.81 [ms]
[INFO] CorrectBoundary: 3.093 [ms]
[INFO] PISOStep: 4435.6 [ms]
[INFO] MatrixAssemblyPI: 336.661 [ms]
[INFO] AdjustPhi: 18.968 [ms]
[INFO] ConstrainPressure: 0.004 [ms]
[INFO] MatrixAssemblyPII: 98.5 [ms]
[OGL LOG][Proc: 0]: global_index_init: 0.037 [ms]
[OGL LOG][Proc: 0]p_local_coeffs: call_update: 0 [ms]
[OGL LOG][Proc: 0]p_non_local_coeffs: call_update: 0 [ms]
[OGL LOG][Proc: 0]p: update_local_matrix_data: 48.212 [ms]
[OGL LOG][Proc: 0]p: update_non_local_matrix_data: 0.239 [ms]
[OGL LOG][Proc: 0]p_matrix: call_update: 42.571 [ms]
[OGL LOG][Proc: 0]p_rhs: call_update: 7.101 [ms]
[OGL LOG][Proc: 0]p: init_precond: 0.055 [ms]
[OGL LOG][StoppingCriterion.H:372] Creating stopping criterion with minIter 1381 frequency 13
[OGL LOG][Proc: 0]p: generate_solver: 0.005 [ms]
[OGL LOG][Proc: 0]p: solve: 3705.29 [ms]
[OGL LOG][Proc: 0]p: copy_x_back: 9.701 [ms]
[OGL LOG][lduLduBase.H:339] 
Statistics:
	Time per iteration: 1609 [mu s]
	Time per residual norm calculation: 313.000000 [mu s]
	Time per iteration and DOF: 0.059593 [ns]
	Retrieve results bandwidth 2.783000 [GByte/s]
[OGL LOG][Proc: 0]p: solve_multi_gpu: 3765.93 [ms]
nonehipGKOCG:  Solving for p, Initial residual = 0.816807, Final residual = 8.25866e-05, No Iterations 2302
[INFO] SolveP: 3824.54 [ms]
time step continuity errors : sum local = 1.05393e-08, global = -2.82519e-22, cumulative = 1.35931e-20
[INFO] ContinuityError: 50 [ms]
[INFO] CorrectBoundary: 0.943 [ms]
[INFO] PISOStep: 4443.26 [ms]
[INFO] TimeStep: 12165.6 [ms]
ExecutionTime = 222.98 s  ClockTime = 193 s

Time = 0.002822

Courant Number mean: 0.0475331 max: 0.551151
[INFO] MatrixAssemblyU: 263.791 [ms]
DILUPBiCGStab:  Solving for Ux, Initial residual = 0.0150677, Final residual = 0.00114934, No Iterations 5
DILUPBiCGStab:  Solving for Uy, Initial residual = 0.0586154, Final residual = 0.00355375, No Iterations 5
DILUPBiCGStab:  Solving for Uz, Initial residual = 0.485437, Final residual = 0.0154278, No Iterations 5
[INFO] MomentumPredictor: 2958.46 [ms]
[INFO] MatrixAssemblyPI: 343.459 [ms]
[INFO] AdjustPhi: 19.47 [ms]
[INFO] ConstrainPressure: 0.005 [ms]
[INFO] MatrixAssemblyPII: 97.678 [ms]
[OGL LOG][Proc: 0]: global_index_init: 0.345 [ms]
[OGL LOG][Proc: 0]p_local_coeffs: call_update: 0 [ms]
[OGL LOG][Proc: 0]p_non_local_coeffs: call_update: 0 [ms]
[OGL LOG][Proc: 0]p: update_local_matrix_data: 48.999 [ms]
[OGL LOG][Proc: 0]p: update_non_local_matrix_data: 0.221 [ms]
[OGL LOG][Proc: 0]p_matrix: call_update: 22.291 [ms]
[OGL LOG][Proc: 0]p_rhs: call_update: 6.129 [ms]
[OGL LOG][Proc: 0]p: init_precond: 0.054 [ms]
[OGL LOG][StoppingCriterion.H:372] Creating stopping criterion with minIter 1381 frequency 13
[OGL LOG][Proc: 0]p: generate_solver: 0.005 [ms]
[OGL LOG][Proc: 0]p: solve: 3724.45 [ms]
[OGL LOG][Proc: 0]p: copy_x_back: 9.534 [ms]
[OGL LOG][lduLduBase.H:339] 
Statistics:
	Time per iteration: 1617 [mu s]
	Time per residual norm calculation: 312.000000 [mu s]
	Time per iteration and DOF: 0.059889 [ns]
	Retrieve results bandwidth 2.831000 [GByte/s]
[OGL LOG][Proc: 0]p: solve_multi_gpu: 3763.5 [ms]
nonehipGKOCG:  Solving for p, Initial residual = 0.904734, Final residual = 8.4512e-05, No Iterations 2302
[INFO] SolveP: 3823.3 [ms]
time step continuity errors : sum local = 1.07825e-08, global = 1.42991e-21, cumulative = 1.5023e-20
[INFO] ContinuityError: 50.374 [ms]
[INFO] CorrectBoundary: 1.385 [ms]
[INFO] PISOStep: 4447.99 [ms]
[INFO] MatrixAssemblyPI: 337.024 [ms]
[INFO] AdjustPhi: 21.333 [ms]
[INFO] ConstrainPressure: 0.005 [ms]
[INFO] MatrixAssemblyPII: 98.545 [ms]
[OGL LOG][Proc: 0]: global_index_init: 0.043 [ms]
[OGL LOG][Proc: 0]p_local_coeffs: call_update: 0 [ms]
[OGL LOG][Proc: 0]p_non_local_coeffs: call_update: 0 [ms]
[OGL LOG][Proc: 0]p: update_local_matrix_data: 48.33 [ms]
[OGL LOG][Proc: 0]p: update_non_local_matrix_data: 0.248 [ms]
[OGL LOG][Proc: 0]p_matrix: call_update: 23.2 [ms]
[OGL LOG][Proc: 0]p_rhs: call_update: 8.574 [ms]
[OGL LOG][Proc: 0]p: init_precond: 0.065 [ms]
[OGL LOG][StoppingCriterion.H:372] Creating stopping criterion with minIter 1381 frequency 13
[OGL LOG][Proc: 0]p: generate_solver: 0.005 [ms]
[OGL LOG][Proc: 0]p: solve: 3739.62 [ms]
[OGL LOG][Proc: 0]p: copy_x_back: 9.345 [ms]
[OGL LOG][lduLduBase.H:339] 
Statistics:
	Time per iteration: 1624 [mu s]
	Time per residual norm calculation: 323.000000 [mu s]
	Time per iteration and DOF: 0.060148 [ns]
	Retrieve results bandwidth 2.889000 [GByte/s]
[OGL LOG][Proc: 0]p: solve_multi_gpu: 3782.07 [ms]
nonehipGKOCG:  Solving for p, Initial residual = 0.840556, Final residual = 8.34793e-05, No Iterations 2302
[INFO] SolveP: 3841.03 [ms]
time step continuity errors : sum local = 1.06037e-08, global = -1.23585e-21, cumulative = 1.37872e-20
[INFO] ContinuityError: 49.884 [ms]
[INFO] CorrectBoundary: 1.059 [ms]
[INFO] PISOStep: 4462.01 [ms]
[INFO] TimeStep: 12176.3 [ms]
ExecutionTime = 237.21 s  ClockTime = 205 s

Time = 0.002988

Courant Number mean: 0.0485163 max: 0.496212
[INFO] MatrixAssemblyU: 263.5 [ms]
DILUPBiCGStab:  Solving for Ux, Initial residual = 0.0151941, Final residual = 0.00115575, No Iterations 5
DILUPBiCGStab:  Solving for Uy, Initial residual = 0.0555341, Final residual = 0.00320649, No Iterations 5
DILUPBiCGStab:  Solving for Uz, Initial residual = 0.481795, Final residual = 0.0151998, No Iterations 5
[INFO] MomentumPredictor: 2958.71 [ms]
[INFO] MatrixAssemblyPI: 343.889 [ms]
[INFO] AdjustPhi: 18.972 [ms]
[INFO] ConstrainPressure: 0.005 [ms]
[INFO] MatrixAssemblyPII: 97.904 [ms]
[OGL LOG][Proc: 0]: global_index_init: 0.27 [ms]
[OGL LOG][Proc: 0]p_local_coeffs: call_update: 0 [ms]
[OGL LOG][Proc: 0]p_non_local_coeffs: call_update: 0 [ms]
[OGL LOG][Proc: 0]p: update_local_matrix_data: 48.191 [ms]
[OGL LOG][Proc: 0]p: update_non_local_matrix_data: 0.258 [ms]
[OGL LOG][Proc: 0]p_matrix: call_update: 24.891 [ms]
[OGL LOG][Proc: 0]p_rhs: call_update: 11.195 [ms]
[OGL LOG][Proc: 0]p: init_precond: 0.055 [ms]
[OGL LOG][StoppingCriterion.H:372] Creating stopping criterion with minIter 1381 frequency 13
[OGL LOG][Proc: 0]p: generate_solver: 0.005 [ms]
[OGL LOG][Proc: 0]p: solve: 3717.67 [ms]
[OGL LOG][Proc: 0]p: copy_x_back: 9.603 [ms]
[OGL LOG][lduLduBase.H:339] 
Statistics:
	Time per iteration: 1614 [mu s]
	Time per residual norm calculation: 327.000000 [mu s]
	Time per iteration and DOF: 0.059778 [ns]
	Retrieve results bandwidth 2.811000 [GByte/s]
[OGL LOG][Proc: 0]p: solve_multi_gpu: 3764.64 [ms]
nonehipGKOCG:  Solving for p, Initial residual = 0.894204, Final residual = 8.26879e-05, No Iterations 2302
[INFO] SolveP: 3823.29 [ms]
time step continuity errors : sum local = 1.09718e-08, global = 8.40251e-22, cumulative = 1.46274e-20
[INFO] ContinuityError: 50.269 [ms]
[INFO] CorrectBoundary: 0.936 [ms]
[INFO] PISOStep: 4447.76 [ms]
[INFO] MatrixAssemblyPI: 336.892 [ms]
[INFO] AdjustPhi: 17.965 [ms]
[INFO] ConstrainPressure: 0.005 [ms]
[INFO] MatrixAssemblyPII: 98.273 [ms]
[OGL LOG][Proc: 0]: global_index_init: 0.036 [ms]
[OGL LOG][Proc: 0]p_local_coeffs: call_update: 0 [ms]
[OGL LOG][Proc: 0]p_non_local_coeffs: call_update: 0 [ms]
[OGL LOG][Proc: 0]p: update_local_matrix_data: 48.276 [ms]
[OGL LOG][Proc: 0]p: update_non_local_matrix_data: 0.235 [ms]
[OGL LOG][Proc: 0]p_matrix: call_update: 23.586 [ms]
[OGL LOG][Proc: 0]p_rhs: call_update: 6.177 [ms]
[OGL LOG][Proc: 0]p: init_precond: 0.057 [ms]
[OGL LOG][StoppingCriterion.H:372] Creating stopping criterion with minIter 1381 frequency 15
[OGL LOG][Proc: 0]p: generate_solver: 0.005 [ms]
[OGL LOG][Proc: 0]p: solve: 3700.04 [ms]
[OGL LOG][Proc: 0]p: copy_x_back: 9.498 [ms]
[OGL LOG][lduLduBase.H:339] 
Statistics:
	Time per iteration: 1611 [mu s]
	Time per residual norm calculation: 319.000000 [mu s]
	Time per iteration and DOF: 0.059667 [ns]
	Retrieve results bandwidth 2.842000 [GByte/s]
[OGL LOG][Proc: 0]p: solve_multi_gpu: 3740.61 [ms]
nonehipGKOCG:  Solving for p, Initial residual = 0.820083, Final residual = 9.0248e-05, No Iterations 2296
[INFO] SolveP: 3799.28 [ms]
time step continuity errors : sum local = 1.20632e-08, global = 6.45581e-22, cumulative = 1.5273e-20
[INFO] ContinuityError: 49.415 [ms]
[INFO] CorrectBoundary: 0.931 [ms]
[INFO] PISOStep: 4416.09 [ms]
[INFO] TimeStep: 12130.5 [ms]
ExecutionTime = 251.34 s  ClockTime = 217 s

Time = 0.003154

Courant Number mean: 0.0495292 max: 0.562894
[INFO] MatrixAssemblyU: 265.133 [ms]
DILUPBiCGStab:  Solving for Ux, Initial residual = 0.0147899, Final residual = 0.00107259, No Iterations 5
DILUPBiCGStab:  Solving for Uy, Initial residual = 0.0571399, Final residual = 0.00327081, No Iterations 5
DILUPBiCGStab:  Solving for Uz, Initial residual = 0.493479, Final residual = 0.0152821, No Iterations 5
[INFO] MomentumPredictor: 2952.46 [ms]
[INFO] MatrixAssemblyPI: 343.383 [ms]
[INFO] AdjustPhi: 23.901 [ms]
[INFO] ConstrainPressure: 0.004 [ms]
[INFO] MatrixAssemblyPII: 98.27 [ms]
[OGL LOG][Proc: 0]: global_index_init: 0.306 [ms]
[OGL LOG][Proc: 0]p_local_coeffs: call_update: 0 [ms]
[OGL LOG][Proc: 0]p_non_local_coeffs: call_update: 0 [ms]
[OGL LOG][Proc: 0]p: update_local_matrix_data: 48.377 [ms]
[OGL LOG][Proc: 0]p: update_non_local_matrix_data: 0.251 [ms]
[OGL LOG][Proc: 0]p_matrix: call_update: 44.432 [ms]
[OGL LOG][Proc: 0]p_rhs: call_update: 5.212 [ms]
[OGL LOG][Proc: 0]p: init_precond: 0.055 [ms]
[OGL LOG][StoppingCriterion.H:372] Creating stopping criterion with minIter 1377 frequency 13
[OGL LOG][Proc: 0]p: generate_solver: 0.004 [ms]
[OGL LOG][Proc: 0]p: solve: 3719.18 [ms]
[OGL LOG][Proc: 0]p: copy_x_back: 9.669 [ms]
[OGL LOG][lduLduBase.H:339] 
Statistics:
	Time per iteration: 1615 [mu s]
	Time per residual norm calculation: 314.000000 [mu s]
	Time per iteration and DOF: 0.059815 [ns]
	Retrieve results bandwidth 2.792000 [GByte/s]
[OGL LOG][Proc: 0]p: solve_multi_gpu: 3779.72 [ms]
nonehipGKOCG:  Solving for p, Initial residual = 0.907466, Final residual = 8.88614e-05, No Iterations 2302
[INFO] SolveP: 3838.61 [ms]
time step continuity errors : sum local = 1.19525e-08, global = 7.98229e-22, cumulative = 1.60712e-20
[INFO] ContinuityError: 51.037 [ms]
[INFO] CorrectBoundary: 1.302 [ms]
[INFO] PISOStep: 4468.14 [ms]
[INFO] MatrixAssemblyPI: 338.206 [ms]
[INFO] AdjustPhi: 20.031 [ms]
[INFO] ConstrainPressure: 0.005 [ms]
[INFO] MatrixAssemblyPII: 98.57 [ms]
[OGL LOG][Proc: 0]: global_index_init: 0.036 [ms]
[OGL LOG][Proc: 0]p_local_coeffs: call_update: 0 [ms]
[OGL LOG][Proc: 0]p_non_local_coeffs: call_update: 0 [ms]
[OGL LOG][Proc: 0]p: update_local_matrix_data: 48.256 [ms]
[OGL LOG][Proc: 0]p: update_non_local_matrix_data: 0.237 [ms]
[OGL LOG][Proc: 0]p_matrix: call_update: 23.833 [ms]
[OGL LOG][Proc: 0]p_rhs: call_update: 6.268 [ms]
[OGL LOG][Proc: 0]p: init_precond: 0.057 [ms]
[OGL LOG][StoppingCriterion.H:372] Creating stopping criterion with minIter 1381 frequency 13
[OGL LOG][Proc: 0]p: generate_solver: 0.005 [ms]
[OGL LOG][Proc: 0]p: solve: 3709.56 [ms]
[OGL LOG][Proc: 0]p: copy_x_back: 9.395 [ms]
[OGL LOG][lduLduBase.H:339] 
Statistics:
	Time per iteration: 1611 [mu s]
	Time per residual norm calculation: 314.000000 [mu s]
	Time per iteration and DOF: 0.059667 [ns]
	Retrieve results bandwidth 2.873000 [GByte/s]
[OGL LOG][Proc: 0]p: solve_multi_gpu: 3750.4 [ms]
nonehipGKOCG:  Solving for p, Initial residual = 0.840464, Final residual = 8.42842e-05, No Iterations 2302
[INFO] SolveP: 3809.13 [ms]
time step continuity errors : sum local = 1.12991e-08, global = 9.13095e-22, cumulative = 1.69843e-20
[INFO] ContinuityError: 50.304 [ms]
[INFO] CorrectBoundary: 0.914 [ms]
[INFO] PISOStep: 4430.17 [ms]
[INFO] TimeStep: 12160.2 [ms]
ExecutionTime = 265.5 s  ClockTime = 229 s

Time = 0.00332

Courant Number mean: 0.050419 max: 0.499822
[INFO] MatrixAssemblyU: 263.939 [ms]
DILUPBiCGStab:  Solving for Ux, Initial residual = 0.0150192, Final residual = 0.00108486, No Iterations 5
DILUPBiCGStab:  Solving for Uy, Initial residual = 0.0548319, Final residual = 0.00297813, No Iterations 5
DILUPBiCGStab:  Solving for Uz, Initial residual = 0.491733, Final residual = 0.0151386, No Iterations 5
[INFO] MomentumPredictor: 2958.77 [ms]
[INFO] MatrixAssemblyPI: 345.483 [ms]
[INFO] AdjustPhi: 22.572 [ms]
[INFO] ConstrainPressure: 0.004 [ms]
[INFO] MatrixAssemblyPII: 98.009 [ms]
[OGL LOG][Proc: 0]: global_index_init: 0.381 [ms]
[OGL LOG][Proc: 0]p_local_coeffs: call_update: 0 [ms]
[OGL LOG][Proc: 0]p_non_local_coeffs: call_update: 0 [ms]
[OGL LOG][Proc: 0]p: update_local_matrix_data: 48.711 [ms]
[OGL LOG][Proc: 0]p: update_non_local_matrix_data: 0.244 [ms]
[OGL LOG][Proc: 0]p_matrix: call_update: 23.489 [ms]
[OGL LOG][Proc: 0]p_rhs: call_update: 5.74 [ms]
[OGL LOG][Proc: 0]p: init_precond: 0.057 [ms]
[OGL LOG][StoppingCriterion.H:372] Creating stopping criterion with minIter 1381 frequency 13
[OGL LOG][Proc: 0]p: generate_solver: 0.004 [ms]
[OGL LOG][Proc: 0]p: solve: 3735.74 [ms]
[OGL LOG][Proc: 0]p: copy_x_back: 9.645 [ms]
[OGL LOG][lduLduBase.H:339] 
Statistics:
	Time per iteration: 1622 [mu s]
	Time per residual norm calculation: 328.000000 [mu s]
	Time per iteration and DOF: 0.060074 [ns]
	Retrieve results bandwidth 2.799000 [GByte/s]
[OGL LOG][Proc: 0]p: solve_multi_gpu: 3775.98 [ms]
nonehipGKOCG:  Solving for p, Initial residual = 0.899778, Final residual = 8.9479e-05, No Iterations 2302
[INFO] SolveP: 3835.39 [ms]
time step continuity errors : sum local = 1.25078e-08, global = -7.73757e-22, cumulative = 1.62106e-20
[INFO] ContinuityError: 50.869 [ms]
[INFO] CorrectBoundary: 0.929 [ms]
[INFO] PISOStep: 4465.56 [ms]
[INFO] MatrixAssemblyPI: 337.018 [ms]
[INFO] AdjustPhi: 18.79 [ms]
[INFO] ConstrainPressure: 0.004 [ms]
[INFO] MatrixAssemblyPII: 98.366 [ms]
[OGL LOG][Proc: 0]: global_index_init: 0.037 [ms]
[OGL LOG][Proc: 0]p_local_coeffs: call_update: 0 [ms]
[OGL LOG][Proc: 0]p_non_local_coeffs: call_update: 0 [ms]
[OGL LOG][Proc: 0]p: update_local_matrix_data: 48.617 [ms]
[OGL LOG][Proc: 0]p: update_non_local_matrix_data: 0.24 [ms]
[OGL LOG][Proc: 0]p_matrix: call_update: 25.197 [ms]
[OGL LOG][Proc: 0]p_rhs: call_update: 5.632 [ms]
[OGL LOG][Proc: 0]p: init_precond: 0.059 [ms]
[OGL LOG][StoppingCriterion.H:372] Creating stopping criterion with minIter 1381 frequency 15
[OGL LOG][Proc: 0]p: generate_solver: 0.005 [ms]
[OGL LOG][Proc: 0]p: solve: 3704.82 [ms]
[OGL LOG][Proc: 0]p: copy_x_back: 9.686 [ms]
[OGL LOG][lduLduBase.H:339] 
Statistics:
	Time per iteration: 1613 [mu s]
	Time per residual norm calculation: 324.000000 [mu s]
	Time per iteration and DOF: 0.059741 [ns]
	Retrieve results bandwidth 2.787000 [GByte/s]
[OGL LOG][Proc: 0]p: solve_multi_gpu: 3746.62 [ms]
nonehipGKOCG:  Solving for p, Initial residual = 0.824722, Final residual = 9.44316e-05, No Iterations 2296
[INFO] SolveP: 3806.12 [ms]
time step continuity errors : sum local = 1.32853e-08, global = 5.39992e-22, cumulative = 1.67505e-20
[INFO] ContinuityError: 51.327 [ms]
[INFO] CorrectBoundary: 1 [ms]
[INFO] PISOStep: 4424.6 [ms]
[INFO] TimeStep: 12157.5 [ms]
ExecutionTime = 279.74 s  ClockTime = 241 s

End

Finalising parallel run
