/*---------------------------------------------------------------------------*\
| =========                 |                                                 |
| \\      /  F ield         | OpenFOAM: The Open Source CFD Toolbox           |
|  \\    /   O peration     | Version:  2306                                  |
|   \\  /    A nd           | Website:  www.openfoam.com                      |
|    \\/     M anipulation  |                                                 |
\*---------------------------------------------------------------------------*/
Build  : c423ebec-20231012 OPENFOAM=2306 version=v2306
Arch   : "LSB;label=32;scalar=64"
Exec   : decomposePar -force
Date   : Feb 04 2024
Time   : 20:38:41
Host   : hkn1130.localdomain
PID    : 3569580
--> FOAM Warning : 
    From Foam::fileName Foam::cwd_L()
    in file POSIX.C at line 552
    PWD is not the cwd() - reverting to physical description
I/O    : uncollated
--> FOAM Warning : 
    From Foam::fileName Foam::cwd_L()
    in file POSIX.C at line 552
    PWD is not the cwd() - reverting to physical description
Case   : /hkfs/work/workspace/scratch/eq4036-l3d_multi/workspace/d733c8ea626b0afb7d0bde7b696e31d9/case
nProcs : 1
trapFpe: Floating point exception trapping enabled (FOAM_SIGFPE).
fileModificationChecking : Monitoring run-time modified files using timeStampMaster (fileModificationSkew 5, maxFileModificationPolls 20)
allowSystemOperations : Allowing user-supplied system call operations

// * * * * * * * * * * * * * * * * * * * * * * * * * * * * * * * * * * * * * //
Create time

--> FOAM Warning : 
    From void* Foam::dlLibraryTable::openLibrary(const Foam::fileName&, bool)
    in file db/dynamicLibrary/dlLibraryTable/dlLibraryTable.C at line 188
    Could not load "libpetscFoam.so"
libpetscFoam.so: cannot open shared object file: No such file or directory


Decomposing mesh

Create mesh

Calculating distribution of cells
Decomposition method simple [380] (region region0)

Finished decomposition in 96.94 s

Calculating original mesh data

Distributing cells to processors

Distributing faces to processors

Distributing points to processors

Constructing processor meshes

Processor 0
    Number of cells = 326025
    Number of points = 346736
    Number of faces shared with processor 1 = 6508
    Number of faces shared with processor 10 = 1350
    Number of faces shared with processor 20 = 12575
    Number of processor patches = 3
    Number of processor faces = 20433
    Number of boundary faces = 20333

Processor 1
    Number of cells = 325064
    Number of points = 345715
    Number of faces shared with processor 0 = 6508
    Number of faces shared with processor 2 = 6500
    Number of faces shared with processor 11 = 1315
    Number of faces shared with processor 21 = 12523
    Number of processor patches = 4
    Number of processor faces = 26846
    Number of boundary faces = 13800

Processor 2
    Number of cells = 325000
    Number of points = 345627
    Number of faces shared with processor 1 = 6500
    Number of faces shared with processor 3 = 6500
    Number of faces shared with processor 12 = 1300
    Number of faces shared with processor 22 = 12500
    Number of processor patches = 4
    Number of processor faces = 26800
    Number of boundary faces = 13800

Processor 3
    Number of cells = 325000
    Number of points = 345627
    Number of faces shared with processor 2 = 6500
    Number of faces shared with processor 4 = 6500
    Number of faces shared with processor 13 = 1300
    Number of faces shared with processor 23 = 12500
    Number of processor patches = 4
    Number of processor faces = 26800
    Number of boundary faces = 13800

Processor 4
    Number of cells = 325000
    Number of points = 345627
    Number of faces shared with processor 3 = 6500
    Number of faces shared with processor 5 = 6500
    Number of faces shared with processor 14 = 1300
    Number of faces shared with processor 24 = 12500
    Number of processor patches = 4
    Number of processor faces = 26800
    Number of boundary faces = 13800

Processor 5
    Number of cells = 325000
    Number of points = 345627
    Number of faces shared with processor 4 = 6500
    Number of faces shared with processor 6 = 6500
    Number of faces shared with processor 15 = 1300
    Number of faces shared with processor 25 = 12500
    Number of processor patches = 4
    Number of processor faces = 26800
    Number of boundary faces = 13800

Processor 6
    Number of cells = 325000
    Number of points = 345627
    Number of faces shared with processor 5 = 6500
    Number of faces shared with processor 7 = 6500
    Number of faces shared with processor 16 = 1300
    Number of faces shared with processor 26 = 12500
    Number of processor patches = 4
    Number of processor faces = 26800
    Number of boundary faces = 13800

Processor 7
    Number of cells = 325000
    Number of points = 345627
    Number of faces shared with processor 6 = 6500
    Number of faces shared with processor 8 = 6500
    Number of faces shared with processor 17 = 1300
    Number of faces shared with processor 27 = 12500
    Number of processor patches = 4
    Number of processor faces = 26800
    Number of boundary faces = 13800

Processor 8
    Number of cells = 325000
    Number of points = 345627
    Number of faces shared with processor 7 = 6500
    Number of faces shared with processor 9 = 6500
    Number of faces shared with processor 18 = 1300
    Number of faces shared with processor 28 = 12500
    Number of processor patches = 4
    Number of processor faces = 26800
    Number of boundary faces = 13800

Processor 9
    Number of cells = 325000
    Number of points = 345627
    Number of faces shared with processor 8 = 6500
    Number of faces shared with processor 19 = 1300
    Number of faces shared with processor 29 = 12500
    Number of processor patches = 3
    Number of processor faces = 20300
    Number of boundary faces = 20300

Processor 10
    Number of cells = 337500
    Number of points = 358428
    Number of faces shared with processor 0 = 1350
    Number of faces shared with processor 11 = 6750
    Number of faces shared with processor 30 = 12500
    Number of processor patches = 3
    Number of processor faces = 20600
    Number of boundary faces = 20600

Processor 11
    Number of cells = 337211
    Number of points = 358139
    Number of faces shared with processor 1 = 1315
    Number of faces shared with processor 10 = 6750
    Number of faces shared with processor 12 = 6733
    Number of faces shared with processor 21 = 2
    Number of faces shared with processor 31 = 12550
    Number of processor patches = 5
    Number of processor faces = 27350
    Number of boundary faces = 13850

Processor 12
    Number of cells = 336025
    Number of points = 356936
    Number of faces shared with processor 2 = 1300
    Number of faces shared with processor 11 = 6733
    Number of faces shared with processor 13 = 6708
    Number of faces shared with processor 32 = 12575
    Number of processor patches = 4
    Number of processor faces = 27316
    Number of boundary faces = 13850

Processor 13
    Number of cells = 334775
    Number of points = 355661
    Number of faces shared with processor 3 = 1300
    Number of faces shared with processor 12 = 6708
    Number of faces shared with processor 14 = 6683
    Number of faces shared with processor 33 = 12575
    Number of processor patches = 4
    Number of processor faces = 27266
    Number of boundary faces = 13850

Processor 14
    Number of cells = 333525
    Number of points = 354386
    Number of faces shared with processor 4 = 1300
    Number of faces shared with processor 13 = 6683
    Number of faces shared with processor 15 = 6658
    Number of faces shared with processor 34 = 12575
    Number of processor patches = 4
    Number of processor faces = 27216
    Number of boundary faces = 13850

Processor 15
    Number of cells = 332275
    Number of points = 353111
    Number of faces shared with processor 5 = 1300
    Number of faces shared with processor 14 = 6658
    Number of faces shared with processor 16 = 6633
    Number of faces shared with processor 35 = 12575
    Number of processor patches = 4
    Number of processor faces = 27166
    Number of boundary faces = 13850

Processor 16
    Number of cells = 331025
    Number of points = 351836
    Number of faces shared with processor 6 = 1300
    Number of faces shared with processor 15 = 6633
    Number of faces shared with processor 17 = 6608
    Number of faces shared with processor 36 = 12575
    Number of processor patches = 4
    Number of processor faces = 27116
    Number of boundary faces = 13850

Processor 17
    Number of cells = 329773
    Number of points = 350559
    Number of faces shared with processor 7 = 1300
    Number of faces shared with processor 16 = 6608
    Number of faces shared with processor 18 = 6582
    Number of faces shared with processor 37 = 12575
    Number of faces shared with processor 38 = 1
    Number of processor patches = 5
    Number of processor faces = 27066
    Number of boundary faces = 13850

Processor 18
    Number of cells = 328500
    Number of points = 349260
    Number of faces shared with processor 8 = 1300
    Number of faces shared with processor 17 = 6582
    Number of faces shared with processor 19 = 6557
    Number of faces shared with processor 38 = 12574
    Number of faces shared with processor 39 = 1
    Number of processor patches = 5
    Number of processor faces = 27014
    Number of boundary faces = 13850

Processor 19
    Number of cells = 327250
    Number of points = 347985
    Number of faces shared with processor 9 = 1300
    Number of faces shared with processor 18 = 6557
    Number of faces shared with processor 39 = 12574
    Number of processor patches = 3
    Number of processor faces = 20431
    Number of boundary faces = 20383

Processor 20
    Number of cells = 332900
    Number of points = 353761
    Number of faces shared with processor 0 = 12575
    Number of faces shared with processor 21 = 6658
    Number of faces shared with processor 30 = 1300
    Number of faces shared with processor 40 = 12575
    Number of processor patches = 4
    Number of processor faces = 33108
    Number of boundary faces = 7958

Processor 21
    Number of cells = 332611
    Number of points = 353455
    Number of faces shared with processor 1 = 12523
    Number of faces shared with processor 11 = 2
    Number of faces shared with processor 20 = 6658
    Number of faces shared with processor 22 = 6641
    Number of faces shared with processor 31 = 1333
    Number of faces shared with processor 41 = 12575
    Number of processor patches = 6
    Number of processor faces = 39732
    Number of boundary faces = 1300

Processor 22
    Number of cells = 331425
    Number of points = 352244
    Number of faces shared with processor 2 = 12500
    Number of faces shared with processor 21 = 6641
    Number of faces shared with processor 23 = 6616
    Number of faces shared with processor 32 = 1350
    Number of faces shared with processor 42 = 12575
    Number of processor patches = 5
    Number of processor faces = 39682
    Number of boundary faces = 1300

Processor 23
    Number of cells = 330175
    Number of points = 350969
    Number of faces shared with processor 3 = 12500
    Number of faces shared with processor 22 = 6616
    Number of faces shared with processor 24 = 6591
    Number of faces shared with processor 33 = 1350
    Number of faces shared with processor 43 = 12575
    Number of processor patches = 5
    Number of processor faces = 39632
    Number of boundary faces = 1300

Processor 24
    Number of cells = 328925
    Number of points = 349694
    Number of faces shared with processor 4 = 12500
    Number of faces shared with processor 23 = 6591
    Number of faces shared with processor 25 = 6566
    Number of faces shared with processor 34 = 1350
    Number of faces shared with processor 44 = 12575
    Number of processor patches = 5
    Number of processor faces = 39582
    Number of boundary faces = 1300

Processor 25
    Number of cells = 327671
    Number of points = 348415
    Number of faces shared with processor 5 = 12500
    Number of faces shared with processor 24 = 6566
    Number of faces shared with processor 26 = 6540
    Number of faces shared with processor 35 = 1350
    Number of faces shared with processor 45 = 12575
    Number of faces shared with processor 46 = 1
    Number of processor patches = 6
    Number of processor faces = 39532
    Number of boundary faces = 1300

Processor 26
    Number of cells = 326400
    Number of points = 347118
    Number of faces shared with processor 6 = 12500
    Number of faces shared with processor 25 = 6540
    Number of faces shared with processor 27 = 6515
    Number of faces shared with processor 36 = 1350
    Number of faces shared with processor 46 = 12574
    Number of faces shared with processor 47 = 1
    Number of processor patches = 6
    Number of processor faces = 39480
    Number of boundary faces = 1300

Processor 27
    Number of cells = 325240
    Number of points = 345913
    Number of faces shared with processor 7 = 12500
    Number of faces shared with processor 26 = 6515
    Number of faces shared with processor 28 = 6500
    Number of faces shared with processor 37 = 1330
    Number of faces shared with processor 47 = 12545
    Number of processor patches = 5
    Number of processor faces = 39390
    Number of boundary faces = 1300

Processor 28
    Number of cells = 325000
    Number of points = 345627
    Number of faces shared with processor 8 = 12500
    Number of faces shared with processor 27 = 6500
    Number of faces shared with processor 29 = 6500
    Number of faces shared with processor 38 = 1300
    Number of faces shared with processor 48 = 12500
    Number of processor patches = 5
    Number of processor faces = 39300
    Number of boundary faces = 1300

Processor 29
    Number of cells = 325000
    Number of points = 345627
    Number of faces shared with processor 9 = 12500
    Number of faces shared with processor 28 = 6500
    Number of faces shared with processor 39 = 1300
    Number of faces shared with processor 49 = 12500
    Number of processor patches = 4
    Number of processor faces = 32800
    Number of boundary faces = 7800

Processor 30
    Number of cells = 325000
    Number of points = 345627
    Number of faces shared with processor 10 = 12500
    Number of faces shared with processor 20 = 1300
    Number of faces shared with processor 31 = 6500
    Number of faces shared with processor 50 = 12500
    Number of processor patches = 4
    Number of processor faces = 32800
    Number of boundary faces = 7800

Processor 31
    Number of cells = 325289
    Number of points = 345967
    Number of faces shared with processor 11 = 12550
    Number of faces shared with processor 21 = 1333
    Number of faces shared with processor 30 = 6500
    Number of faces shared with processor 32 = 6517
    Number of faces shared with processor 51 = 12500
    Number of processor patches = 5
    Number of processor faces = 39400
    Number of boundary faces = 1300

Processor 32
    Number of cells = 326475
    Number of points = 347195
    Number of faces shared with processor 12 = 12575
    Number of faces shared with processor 22 = 1350
    Number of faces shared with processor 31 = 6517
    Number of faces shared with processor 33 = 6542
    Number of faces shared with processor 52 = 12500
    Number of processor patches = 5
    Number of processor faces = 39484
    Number of boundary faces = 1300

Processor 33
    Number of cells = 327725
    Number of points = 348470
    Number of faces shared with processor 13 = 12575
    Number of faces shared with processor 23 = 1350
    Number of faces shared with processor 32 = 6542
    Number of faces shared with processor 34 = 6567
    Number of faces shared with processor 53 = 12500
    Number of processor patches = 5
    Number of processor faces = 39534
    Number of boundary faces = 1300

Processor 34
    Number of cells = 328975
    Number of points = 349745
    Number of faces shared with processor 14 = 12575
    Number of faces shared with processor 24 = 1350
    Number of faces shared with processor 33 = 6567
    Number of faces shared with processor 35 = 6592
    Number of faces shared with processor 54 = 12500
    Number of processor patches = 5
    Number of processor faces = 39584
    Number of boundary faces = 1300

Processor 35
    Number of cells = 330225
    Number of points = 351020
    Number of faces shared with processor 15 = 12575
    Number of faces shared with processor 25 = 1350
    Number of faces shared with processor 34 = 6592
    Number of faces shared with processor 36 = 6617
    Number of faces shared with processor 55 = 12500
    Number of processor patches = 5
    Number of processor faces = 39634
    Number of boundary faces = 1300

Processor 36
    Number of cells = 331475
    Number of points = 352295
    Number of faces shared with processor 16 = 12575
    Number of faces shared with processor 26 = 1350
    Number of faces shared with processor 35 = 6617
    Number of faces shared with processor 37 = 6642
    Number of faces shared with processor 56 = 12500
    Number of processor patches = 5
    Number of processor faces = 39684
    Number of boundary faces = 1300

Processor 37
    Number of cells = 332637
    Number of points = 353482
    Number of faces shared with processor 17 = 12575
    Number of faces shared with processor 27 = 1330
    Number of faces shared with processor 36 = 6642
    Number of faces shared with processor 38 = 6657
    Number of faces shared with processor 47 = 2
    Number of faces shared with processor 57 = 12527
    Number of faces shared with processor 58 = 1
    Number of processor patches = 7
    Number of processor faces = 39734
    Number of boundary faces = 1300

Processor 38
    Number of cells = 332900
    Number of points = 353760
    Number of faces shared with processor 17 = 1
    Number of faces shared with processor 18 = 12574
    Number of faces shared with processor 28 = 1300
    Number of faces shared with processor 37 = 6657
    Number of faces shared with processor 39 = 6657
    Number of faces shared with processor 58 = 12574
    Number of faces shared with processor 59 = 1
    Number of processor patches = 7
    Number of processor faces = 39764
    Number of boundary faces = 1300

Processor 39
    Number of cells = 332900
    Number of points = 353760
    Number of faces shared with processor 18 = 1
    Number of faces shared with processor 19 = 12574
    Number of faces shared with processor 29 = 1300
    Number of faces shared with processor 38 = 6657
    Number of faces shared with processor 59 = 12574
    Number of processor patches = 5
    Number of processor faces = 33106
    Number of boundary faces = 7958

Processor 40
    Number of cells = 328575
    Number of points = 349337
    Number of faces shared with processor 20 = 12575
    Number of faces shared with processor 41 = 6584
    Number of faces shared with processor 50 = 1300
    Number of faces shared with processor 60 = 12500
    Number of processor patches = 4
    Number of processor faces = 32959
    Number of boundary faces = 7909

Processor 41
    Number of cells = 329825
    Number of points = 350612
    Number of faces shared with processor 21 = 12575
    Number of faces shared with processor 40 = 6584
    Number of faces shared with processor 42 = 6609
    Number of faces shared with processor 51 = 1300
    Number of faces shared with processor 61 = 12500
    Number of processor patches = 5
    Number of processor faces = 39568
    Number of boundary faces = 1350

Processor 42
    Number of cells = 331075
    Number of points = 351887
    Number of faces shared with processor 22 = 12575
    Number of faces shared with processor 41 = 6609
    Number of faces shared with processor 43 = 6634
    Number of faces shared with processor 52 = 1300
    Number of faces shared with processor 62 = 12500
    Number of processor patches = 5
    Number of processor faces = 39618
    Number of boundary faces = 1350

Processor 43
    Number of cells = 332323
    Number of points = 353160
    Number of faces shared with processor 23 = 12575
    Number of faces shared with processor 42 = 6634
    Number of faces shared with processor 44 = 6657
    Number of faces shared with processor 53 = 1300
    Number of faces shared with processor 63 = 12503
    Number of faces shared with processor 64 = 1
    Number of processor patches = 6
    Number of processor faces = 39670
    Number of boundary faces = 1348

Processor 44
    Number of cells = 332875
    Number of points = 353735
    Number of faces shared with processor 24 = 12575
    Number of faces shared with processor 43 = 6657
    Number of faces shared with processor 45 = 6657
    Number of faces shared with processor 54 = 1300
    Number of faces shared with processor 64 = 12574
    Number of faces shared with processor 65 = 1
    Number of processor patches = 6
    Number of processor faces = 39764
    Number of boundary faces = 1300

Processor 45
    Number of cells = 332879
    Number of points = 353739
    Number of faces shared with processor 25 = 12575
    Number of faces shared with processor 44 = 6657
    Number of faces shared with processor 46 = 6657
    Number of faces shared with processor 55 = 1300
    Number of faces shared with processor 65 = 12574
    Number of faces shared with processor 66 = 1
    Number of processor patches = 6
    Number of processor faces = 39764
    Number of boundary faces = 1300

Processor 46
    Number of cells = 332900
    Number of points = 353760
    Number of faces shared with processor 25 = 1
    Number of faces shared with processor 26 = 12574
    Number of faces shared with processor 45 = 6657
    Number of faces shared with processor 47 = 6657
    Number of faces shared with processor 56 = 1300
    Number of faces shared with processor 66 = 12574
    Number of faces shared with processor 67 = 1
    Number of processor patches = 7
    Number of processor faces = 39764
    Number of boundary faces = 1300

Processor 47
    Number of cells = 332810
    Number of points = 353661
    Number of faces shared with processor 26 = 1
    Number of faces shared with processor 27 = 12545
    Number of faces shared with processor 37 = 2
    Number of faces shared with processor 46 = 6657
    Number of faces shared with processor 48 = 6648
    Number of faces shared with processor 57 = 1318
    Number of faces shared with processor 67 = 12574
    Number of faces shared with processor 68 = 1
    Number of processor patches = 8
    Number of processor faces = 39746
    Number of boundary faces = 1300

Processor 48
    Number of cells = 331800
    Number of points = 352626
    Number of faces shared with processor 28 = 12500
    Number of faces shared with processor 47 = 6648
    Number of faces shared with processor 49 = 6623
    Number of faces shared with processor 58 = 1350
    Number of faces shared with processor 68 = 12574
    Number of faces shared with processor 69 = 1
    Number of processor patches = 6
    Number of processor faces = 39696
    Number of boundary faces = 1300

Processor 49
    Number of cells = 330550
    Number of points = 351351
    Number of faces shared with processor 29 = 12500
    Number of faces shared with processor 48 = 6623
    Number of faces shared with processor 59 = 1350
    Number of faces shared with processor 69 = 12574
    Number of processor patches = 4
    Number of processor faces = 33047
    Number of boundary faces = 7899

Processor 50
    Number of cells = 329325
    Number of points = 350102
    Number of faces shared with processor 30 = 12500
    Number of faces shared with processor 40 = 1300
    Number of faces shared with processor 51 = 6574
    Number of faces shared with processor 70 = 12575
    Number of processor patches = 4
    Number of processor faces = 32949
    Number of boundary faces = 7949

Processor 51
    Number of cells = 328075
    Number of points = 348827
    Number of faces shared with processor 31 = 12500
    Number of faces shared with processor 41 = 1300
    Number of faces shared with processor 50 = 6574
    Number of faces shared with processor 52 = 6549
    Number of faces shared with processor 71 = 12575
    Number of processor patches = 5
    Number of processor faces = 39498
    Number of boundary faces = 1350

Processor 52
    Number of cells = 326825
    Number of points = 347552
    Number of faces shared with processor 32 = 12500
    Number of faces shared with processor 42 = 1300
    Number of faces shared with processor 51 = 6549
    Number of faces shared with processor 53 = 6524
    Number of faces shared with processor 72 = 12575
    Number of processor patches = 5
    Number of processor faces = 39448
    Number of boundary faces = 1350

Processor 53
    Number of cells = 325571
    Number of points = 346269
    Number of faces shared with processor 33 = 12500
    Number of faces shared with processor 43 = 1300
    Number of faces shared with processor 52 = 6524
    Number of faces shared with processor 54 = 6500
    Number of faces shared with processor 73 = 12570
    Number of processor patches = 5
    Number of processor faces = 39394
    Number of boundary faces = 1346

Processor 54
    Number of cells = 325000
    Number of points = 345627
    Number of faces shared with processor 34 = 12500
    Number of faces shared with processor 44 = 1300
    Number of faces shared with processor 53 = 6500
    Number of faces shared with processor 55 = 6500
    Number of faces shared with processor 74 = 12500
    Number of processor patches = 5
    Number of processor faces = 39300
    Number of boundary faces = 1300

Processor 55
    Number of cells = 325000
    Number of points = 345627
    Number of faces shared with processor 35 = 12500
    Number of faces shared with processor 45 = 1300
    Number of faces shared with processor 54 = 6500
    Number of faces shared with processor 56 = 6500
    Number of faces shared with processor 75 = 12500
    Number of processor patches = 5
    Number of processor faces = 39300
    Number of boundary faces = 1300

Processor 56
    Number of cells = 325000
    Number of points = 345627
    Number of faces shared with processor 36 = 12500
    Number of faces shared with processor 46 = 1300
    Number of faces shared with processor 55 = 6500
    Number of faces shared with processor 57 = 6500
    Number of faces shared with processor 76 = 12500
    Number of processor patches = 5
    Number of processor faces = 39300
    Number of boundary faces = 1300

Processor 57
    Number of cells = 325090
    Number of points = 345745
    Number of faces shared with processor 37 = 12527
    Number of faces shared with processor 47 = 1318
    Number of faces shared with processor 56 = 6500
    Number of faces shared with processor 58 = 6509
    Number of faces shared with processor 77 = 12500
    Number of processor patches = 5
    Number of processor faces = 39354
    Number of boundary faces = 1300

Processor 58
    Number of cells = 326100
    Number of points = 346812
    Number of faces shared with processor 37 = 1
    Number of faces shared with processor 38 = 12574
    Number of faces shared with processor 48 = 1350
    Number of faces shared with processor 57 = 6509
    Number of faces shared with processor 59 = 6534
    Number of faces shared with processor 78 = 12500
    Number of processor patches = 6
    Number of processor faces = 39468
    Number of boundary faces = 1300

Processor 59
    Number of cells = 327350
    Number of points = 348087
    Number of faces shared with processor 38 = 1
    Number of faces shared with processor 39 = 12574
    Number of faces shared with processor 49 = 1350
    Number of faces shared with processor 58 = 6534
    Number of faces shared with processor 79 = 12500
    Number of processor patches = 5
    Number of processor faces = 32959
    Number of boundary faces = 7859

Processor 60
    Number of cells = 325049
    Number of points = 345697
    Number of faces shared with processor 40 = 12500
    Number of faces shared with processor 61 = 6500
    Number of faces shared with processor 70 = 1313
    Number of faces shared with processor 80 = 12520
    Number of processor patches = 4
    Number of processor faces = 32833
    Number of boundary faces = 7807

Processor 61
    Number of cells = 325000
    Number of points = 345627
    Number of faces shared with processor 41 = 12500
    Number of faces shared with processor 60 = 6500
    Number of faces shared with processor 62 = 6500
    Number of faces shared with processor 71 = 1300
    Number of faces shared with processor 81 = 12500
    Number of processor patches = 5
    Number of processor faces = 39300
    Number of boundary faces = 1300

Processor 62
    Number of cells = 325000
    Number of points = 345627
    Number of faces shared with processor 42 = 12500
    Number of faces shared with processor 61 = 6500
    Number of faces shared with processor 63 = 6500
    Number of faces shared with processor 72 = 1300
    Number of faces shared with processor 82 = 12500
    Number of processor patches = 5
    Number of processor faces = 39300
    Number of boundary faces = 1300

Processor 63
    Number of cells = 325002
    Number of points = 345633
    Number of faces shared with processor 43 = 12503
    Number of faces shared with processor 62 = 6500
    Number of faces shared with processor 64 = 6501
    Number of faces shared with processor 73 = 1300
    Number of faces shared with processor 83 = 12500
    Number of processor patches = 5
    Number of processor faces = 39304
    Number of boundary faces = 1302

Processor 64
    Number of cells = 325700
    Number of points = 346404
    Number of faces shared with processor 43 = 1
    Number of faces shared with processor 44 = 12574
    Number of faces shared with processor 63 = 6501
    Number of faces shared with processor 65 = 6526
    Number of faces shared with processor 74 = 1300
    Number of faces shared with processor 84 = 12500
    Number of processor patches = 6
    Number of processor faces = 39402
    Number of boundary faces = 1350

Processor 65
    Number of cells = 326950
    Number of points = 347679
    Number of faces shared with processor 44 = 1
    Number of faces shared with processor 45 = 12574
    Number of faces shared with processor 64 = 6526
    Number of faces shared with processor 66 = 6551
    Number of faces shared with processor 75 = 1300
    Number of faces shared with processor 85 = 12500
    Number of processor patches = 6
    Number of processor faces = 39452
    Number of boundary faces = 1350

Processor 66
    Number of cells = 328200
    Number of points = 348954
    Number of faces shared with processor 45 = 1
    Number of faces shared with processor 46 = 12574
    Number of faces shared with processor 65 = 6551
    Number of faces shared with processor 67 = 6576
    Number of faces shared with processor 76 = 1300
    Number of faces shared with processor 86 = 12500
    Number of processor patches = 6
    Number of processor faces = 39502
    Number of boundary faces = 1350

Processor 67
    Number of cells = 329450
    Number of points = 350229
    Number of faces shared with processor 46 = 1
    Number of faces shared with processor 47 = 12574
    Number of faces shared with processor 66 = 6576
    Number of faces shared with processor 68 = 6601
    Number of faces shared with processor 77 = 1300
    Number of faces shared with processor 87 = 12500
    Number of processor patches = 6
    Number of processor faces = 39552
    Number of boundary faces = 1350

Processor 68
    Number of cells = 330700
    Number of points = 351504
    Number of faces shared with processor 47 = 1
    Number of faces shared with processor 48 = 12574
    Number of faces shared with processor 67 = 6601
    Number of faces shared with processor 69 = 6626
    Number of faces shared with processor 78 = 1300
    Number of faces shared with processor 88 = 12500
    Number of processor patches = 6
    Number of processor faces = 39602
    Number of boundary faces = 1350

Processor 69
    Number of cells = 331950
    Number of points = 352779
    Number of faces shared with processor 48 = 1
    Number of faces shared with processor 49 = 12574
    Number of faces shared with processor 68 = 6626
    Number of faces shared with processor 79 = 1300
    Number of faces shared with processor 89 = 12500
    Number of processor patches = 5
    Number of processor faces = 33001
    Number of boundary faces = 8001

Processor 70
    Number of cells = 332851
    Number of points = 353705
    Number of faces shared with processor 50 = 12575
    Number of faces shared with processor 60 = 1313
    Number of faces shared with processor 71 = 6658
    Number of faces shared with processor 80 = 2
    Number of faces shared with processor 90 = 12553
    Number of processor patches = 5
    Number of processor faces = 33101
    Number of boundary faces = 7951

Processor 71
    Number of cells = 332892
    Number of points = 353753
    Number of faces shared with processor 51 = 12575
    Number of faces shared with processor 61 = 1300
    Number of faces shared with processor 70 = 6658
    Number of faces shared with processor 72 = 6657
    Number of faces shared with processor 91 = 12575
    Number of faces shared with processor 92 = 1
    Number of processor patches = 6
    Number of processor faces = 39766
    Number of boundary faces = 1300

Processor 72
    Number of cells = 332875
    Number of points = 353735
    Number of faces shared with processor 52 = 12575
    Number of faces shared with processor 62 = 1300
    Number of faces shared with processor 71 = 6657
    Number of faces shared with processor 73 = 6657
    Number of faces shared with processor 92 = 12574
    Number of faces shared with processor 93 = 1
    Number of processor patches = 6
    Number of processor faces = 39764
    Number of boundary faces = 1300

Processor 73
    Number of cells = 332879
    Number of points = 353738
    Number of faces shared with processor 53 = 12570
    Number of faces shared with processor 63 = 1300
    Number of faces shared with processor 72 = 6657
    Number of faces shared with processor 74 = 6656
    Number of faces shared with processor 93 = 12574
    Number of faces shared with processor 94 = 1
    Number of processor patches = 6
    Number of processor faces = 39758
    Number of boundary faces = 1304

Processor 74
    Number of cells = 332200
    Number of points = 353034
    Number of faces shared with processor 54 = 12500
    Number of faces shared with processor 64 = 1300
    Number of faces shared with processor 73 = 6656
    Number of faces shared with processor 75 = 6631
    Number of faces shared with processor 94 = 12574
    Number of faces shared with processor 95 = 1
    Number of processor patches = 6
    Number of processor faces = 39662
    Number of boundary faces = 1350

Processor 75
    Number of cells = 330950
    Number of points = 351759
    Number of faces shared with processor 55 = 12500
    Number of faces shared with processor 65 = 1300
    Number of faces shared with processor 74 = 6631
    Number of faces shared with processor 76 = 6606
    Number of faces shared with processor 95 = 12574
    Number of faces shared with processor 96 = 1
    Number of processor patches = 6
    Number of processor faces = 39612
    Number of boundary faces = 1350

Processor 76
    Number of cells = 329700
    Number of points = 350484
    Number of faces shared with processor 56 = 12500
    Number of faces shared with processor 66 = 1300
    Number of faces shared with processor 75 = 6606
    Number of faces shared with processor 77 = 6581
    Number of faces shared with processor 96 = 12574
    Number of faces shared with processor 97 = 1
    Number of processor patches = 6
    Number of processor faces = 39562
    Number of boundary faces = 1350

Processor 77
    Number of cells = 328450
    Number of points = 349209
    Number of faces shared with processor 57 = 12500
    Number of faces shared with processor 67 = 1300
    Number of faces shared with processor 76 = 6581
    Number of faces shared with processor 78 = 6556
    Number of faces shared with processor 97 = 12574
    Number of faces shared with processor 98 = 1
    Number of processor patches = 6
    Number of processor faces = 39512
    Number of boundary faces = 1350

Processor 78
    Number of cells = 327200
    Number of points = 347934
    Number of faces shared with processor 58 = 12500
    Number of faces shared with processor 68 = 1300
    Number of faces shared with processor 77 = 6556
    Number of faces shared with processor 79 = 6531
    Number of faces shared with processor 98 = 12574
    Number of faces shared with processor 99 = 1
    Number of processor patches = 6
    Number of processor faces = 39462
    Number of boundary faces = 1350

Processor 79
    Number of cells = 325950
    Number of points = 346659
    Number of faces shared with processor 59 = 12500
    Number of faces shared with processor 69 = 1300
    Number of faces shared with processor 78 = 6531
    Number of faces shared with processor 99 = 12574
    Number of processor patches = 4
    Number of processor faces = 32905
    Number of boundary faces = 7857

Processor 80
    Number of cells = 332551
    Number of points = 353393
    Number of faces shared with processor 60 = 12520
    Number of faces shared with processor 70 = 2
    Number of faces shared with processor 81 = 6639
    Number of faces shared with processor 90 = 1335
    Number of faces shared with processor 100 = 12574
    Number of faces shared with processor 101 = 1
    Number of processor patches = 6
    Number of processor faces = 33071
    Number of boundary faces = 7957

Processor 81
    Number of cells = 331350
    Number of points = 352167
    Number of faces shared with processor 61 = 12500
    Number of faces shared with processor 80 = 6639
    Number of faces shared with processor 82 = 6614
    Number of faces shared with processor 91 = 1350
    Number of faces shared with processor 101 = 12574
    Number of faces shared with processor 102 = 1
    Number of processor patches = 6
    Number of processor faces = 39678
    Number of boundary faces = 1300

Processor 82
    Number of cells = 330100
    Number of points = 350892
    Number of faces shared with processor 62 = 12500
    Number of faces shared with processor 81 = 6614
    Number of faces shared with processor 83 = 6589
    Number of faces shared with processor 92 = 1350
    Number of faces shared with processor 102 = 12574
    Number of faces shared with processor 103 = 1
    Number of processor patches = 6
    Number of processor faces = 39628
    Number of boundary faces = 1300

Processor 83
    Number of cells = 328850
    Number of points = 349617
    Number of faces shared with processor 63 = 12500
    Number of faces shared with processor 82 = 6589
    Number of faces shared with processor 84 = 6564
    Number of faces shared with processor 93 = 1350
    Number of faces shared with processor 103 = 12574
    Number of faces shared with processor 104 = 1
    Number of processor patches = 6
    Number of processor faces = 39578
    Number of boundary faces = 1300

Processor 84
    Number of cells = 327600
    Number of points = 348342
    Number of faces shared with processor 64 = 12500
    Number of faces shared with processor 83 = 6564
    Number of faces shared with processor 85 = 6539
    Number of faces shared with processor 94 = 1350
    Number of faces shared with processor 104 = 12574
    Number of faces shared with processor 105 = 1
    Number of processor patches = 6
    Number of processor faces = 39528
    Number of boundary faces = 1300

Processor 85
    Number of cells = 326350
    Number of points = 347067
    Number of faces shared with processor 65 = 12500
    Number of faces shared with processor 84 = 6539
    Number of faces shared with processor 86 = 6514
    Number of faces shared with processor 95 = 1350
    Number of faces shared with processor 105 = 12574
    Number of faces shared with processor 106 = 1
    Number of processor patches = 6
    Number of processor faces = 39478
    Number of boundary faces = 1300

Processor 86
    Number of cells = 325210
    Number of points = 345880
    Number of faces shared with processor 66 = 12500
    Number of faces shared with processor 85 = 6514
    Number of faces shared with processor 87 = 6500
    Number of faces shared with processor 96 = 1328
    Number of faces shared with processor 106 = 12542
    Number of processor patches = 5
    Number of processor faces = 39384
    Number of boundary faces = 1300

Processor 87
    Number of cells = 325000
    Number of points = 345627
    Number of faces shared with processor 67 = 12500
    Number of faces shared with processor 86 = 6500
    Number of faces shared with processor 88 = 6500
    Number of faces shared with processor 97 = 1300
    Number of faces shared with processor 107 = 12500
    Number of processor patches = 5
    Number of processor faces = 39300
    Number of boundary faces = 1300

Processor 88
    Number of cells = 325000
    Number of points = 345627
    Number of faces shared with processor 68 = 12500
    Number of faces shared with processor 87 = 6500
    Number of faces shared with processor 89 = 6500
    Number of faces shared with processor 98 = 1300
    Number of faces shared with processor 108 = 12500
    Number of processor patches = 5
    Number of processor faces = 39300
    Number of boundary faces = 1300

Processor 89
    Number of cells = 325000
    Number of points = 345627
    Number of faces shared with processor 69 = 12500
    Number of faces shared with processor 88 = 6500
    Number of faces shared with processor 99 = 1300
    Number of faces shared with processor 109 = 12500
    Number of processor patches = 4
    Number of processor faces = 32800
    Number of boundary faces = 7800

Processor 90
    Number of cells = 325324
    Number of points = 346005
    Number of faces shared with processor 70 = 12553
    Number of faces shared with processor 80 = 1335
    Number of faces shared with processor 91 = 6518
    Number of faces shared with processor 110 = 12500
    Number of processor patches = 4
    Number of processor faces = 32906
    Number of boundary faces = 7800

Processor 91
    Number of cells = 326533
    Number of points = 347254
    Number of faces shared with processor 71 = 12575
    Number of faces shared with processor 81 = 1350
    Number of faces shared with processor 90 = 6518
    Number of faces shared with processor 92 = 6543
    Number of faces shared with processor 111 = 12500
    Number of processor patches = 5
    Number of processor faces = 39486
    Number of boundary faces = 1300

Processor 92
    Number of cells = 327800
    Number of points = 348546
    Number of faces shared with processor 71 = 1
    Number of faces shared with processor 72 = 12574
    Number of faces shared with processor 82 = 1350
    Number of faces shared with processor 91 = 6543
    Number of faces shared with processor 93 = 6568
    Number of faces shared with processor 112 = 12500
    Number of processor patches = 6
    Number of processor faces = 39536
    Number of boundary faces = 1300

Processor 93
    Number of cells = 329050
    Number of points = 349821
    Number of faces shared with processor 72 = 1
    Number of faces shared with processor 73 = 12574
    Number of faces shared with processor 83 = 1350
    Number of faces shared with processor 92 = 6568
    Number of faces shared with processor 94 = 6593
    Number of faces shared with processor 113 = 12500
    Number of processor patches = 6
    Number of processor faces = 39586
    Number of boundary faces = 1300

Processor 94
    Number of cells = 330300
    Number of points = 351096
    Number of faces shared with processor 73 = 1
    Number of faces shared with processor 74 = 12574
    Number of faces shared with processor 84 = 1350
    Number of faces shared with processor 93 = 6593
    Number of faces shared with processor 95 = 6618
    Number of faces shared with processor 114 = 12500
    Number of processor patches = 6
    Number of processor faces = 39636
    Number of boundary faces = 1300

Processor 95
    Number of cells = 331550
    Number of points = 352371
    Number of faces shared with processor 74 = 1
    Number of faces shared with processor 75 = 12574
    Number of faces shared with processor 85 = 1350
    Number of faces shared with processor 94 = 6618
    Number of faces shared with processor 96 = 6643
    Number of faces shared with processor 115 = 12500
    Number of processor patches = 6
    Number of processor faces = 39686
    Number of boundary faces = 1300

Processor 96
    Number of cells = 332690
    Number of points = 353536
    Number of faces shared with processor 75 = 1
    Number of faces shared with processor 76 = 12574
    Number of faces shared with processor 86 = 1328
    Number of faces shared with processor 95 = 6643
    Number of faces shared with processor 97 = 6657
    Number of faces shared with processor 106 = 2
    Number of faces shared with processor 116 = 12530
    Number of faces shared with processor 117 = 1
    Number of processor patches = 8
    Number of processor faces = 39736
    Number of boundary faces = 1300

Processor 97
    Number of cells = 332900
    Number of points = 353760
    Number of faces shared with processor 76 = 1
    Number of faces shared with processor 77 = 12574
    Number of faces shared with processor 87 = 1300
    Number of faces shared with processor 96 = 6657
    Number of faces shared with processor 98 = 6657
    Number of faces shared with processor 117 = 12574
    Number of faces shared with processor 118 = 1
    Number of processor patches = 7
    Number of processor faces = 39764
    Number of boundary faces = 1300

Processor 98
    Number of cells = 332900
    Number of points = 353760
    Number of faces shared with processor 77 = 1
    Number of faces shared with processor 78 = 12574
    Number of faces shared with processor 88 = 1300
    Number of faces shared with processor 97 = 6657
    Number of faces shared with processor 99 = 6657
    Number of faces shared with processor 118 = 12574
    Number of faces shared with processor 119 = 1
    Number of processor patches = 7
    Number of processor faces = 39764
    Number of boundary faces = 1300

Processor 99
    Number of cells = 332890
    Number of points = 353750
    Number of faces shared with processor 78 = 1
    Number of faces shared with processor 79 = 12574
    Number of faces shared with processor 89 = 1300
    Number of faces shared with processor 98 = 6657
    Number of faces shared with processor 119 = 12575
    Number of processor patches = 5
    Number of processor faces = 33107
    Number of boundary faces = 7957

Processor 100
    Number of cells = 329900
    Number of points = 350688
    Number of faces shared with processor 80 = 12574
    Number of faces shared with processor 101 = 6610
    Number of faces shared with processor 110 = 1300
    Number of faces shared with processor 120 = 12500
    Number of processor patches = 4
    Number of processor faces = 32984
    Number of boundary faces = 7936

Processor 101
    Number of cells = 331150
    Number of points = 351963
    Number of faces shared with processor 80 = 1
    Number of faces shared with processor 81 = 12574
    Number of faces shared with processor 100 = 6610
    Number of faces shared with processor 102 = 6635
    Number of faces shared with processor 111 = 1300
    Number of faces shared with processor 121 = 12500
    Number of processor patches = 6
    Number of processor faces = 39620
    Number of boundary faces = 1350

Processor 102
    Number of cells = 332394
    Number of points = 353232
    Number of faces shared with processor 81 = 1
    Number of faces shared with processor 82 = 12574
    Number of faces shared with processor 101 = 6635
    Number of faces shared with processor 103 = 6657
    Number of faces shared with processor 112 = 1300
    Number of faces shared with processor 122 = 12506
    Number of faces shared with processor 123 = 1
    Number of processor patches = 7
    Number of processor faces = 39674
    Number of boundary faces = 1346

Processor 103
    Number of cells = 332900
    Number of points = 353760
    Number of faces shared with processor 82 = 1
    Number of faces shared with processor 83 = 12574
    Number of faces shared with processor 102 = 6657
    Number of faces shared with processor 104 = 6657
    Number of faces shared with processor 113 = 1300
    Number of faces shared with processor 123 = 12574
    Number of faces shared with processor 124 = 1
    Number of processor patches = 7
    Number of processor faces = 39764
    Number of boundary faces = 1300

Processor 104
    Number of cells = 332900
    Number of points = 353760
    Number of faces shared with processor 83 = 1
    Number of faces shared with processor 84 = 12574
    Number of faces shared with processor 103 = 6657
    Number of faces shared with processor 105 = 6657
    Number of faces shared with processor 114 = 1300
    Number of faces shared with processor 124 = 12574
    Number of faces shared with processor 125 = 1
    Number of processor patches = 7
    Number of processor faces = 39764
    Number of boundary faces = 1300

Processor 105
    Number of cells = 332900
    Number of points = 353760
    Number of faces shared with processor 84 = 1
    Number of faces shared with processor 85 = 12574
    Number of faces shared with processor 104 = 6657
    Number of faces shared with processor 106 = 6657
    Number of faces shared with processor 115 = 1300
    Number of faces shared with processor 125 = 12574
    Number of faces shared with processor 126 = 1
    Number of processor patches = 7
    Number of processor faces = 39764
    Number of boundary faces = 1300

Processor 106
    Number of cells = 332790
    Number of points = 353640
    Number of faces shared with processor 85 = 1
    Number of faces shared with processor 86 = 12542
    Number of faces shared with processor 96 = 2
    Number of faces shared with processor 105 = 6657
    Number of faces shared with processor 107 = 6647
    Number of faces shared with processor 116 = 1320
    Number of faces shared with processor 126 = 12574
    Number of faces shared with processor 127 = 1
    Number of processor patches = 8
    Number of processor faces = 39744
    Number of boundary faces = 1300

Processor 107
    Number of cells = 331738
    Number of points = 352563
    Number of faces shared with processor 87 = 12500
    Number of faces shared with processor 106 = 6647
    Number of faces shared with processor 108 = 6622
    Number of faces shared with processor 117 = 1350
    Number of faces shared with processor 127 = 12575
    Number of processor patches = 5
    Number of processor faces = 39694
    Number of boundary faces = 1300

Processor 108
    Number of cells = 330475
    Number of points = 351275
    Number of faces shared with processor 128 = 12575
    Number of faces shared with processor 88 = 12500
    Number of faces shared with processor 107 = 6622
    Number of faces shared with processor 109 = 6597
    Number of faces shared with processor 118 = 1350
    Number of processor patches = 5
    Number of processor faces = 39644
    Number of boundary faces = 1300

Processor 109
    Number of cells = 329225
    Number of points = 350000
    Number of faces shared with processor 129 = 12575
    Number of faces shared with processor 89 = 12500
    Number of faces shared with processor 108 = 6597
    Number of faces shared with processor 119 = 1350
    Number of processor patches = 4
    Number of processor faces = 33022
    Number of boundary faces = 7872

Processor 110
    Number of cells = 328000
    Number of points = 348750
    Number of faces shared with processor 130 = 12574
    Number of faces shared with processor 131 = 1
    Number of faces shared with processor 90 = 12500
    Number of faces shared with processor 100 = 1300
    Number of faces shared with processor 111 = 6547
    Number of processor patches = 5
    Number of processor faces = 32922
    Number of boundary faces = 7922

Processor 111
    Number of cells = 326750
    Number of points = 347475
    Number of faces shared with processor 131 = 12574
    Number of faces shared with processor 132 = 1
    Number of faces shared with processor 91 = 12500
    Number of faces shared with processor 101 = 1300
    Number of faces shared with processor 110 = 6547
    Number of faces shared with processor 112 = 6522
    Number of processor patches = 6
    Number of processor faces = 39444
    Number of boundary faces = 1350

Processor 112
    Number of cells = 325506
    Number of points = 346200
    Number of faces shared with processor 132 = 12566
    Number of faces shared with processor 92 = 12500
    Number of faces shared with processor 102 = 1300
    Number of faces shared with processor 111 = 6522
    Number of faces shared with processor 113 = 6500
    Number of processor patches = 5
    Number of processor faces = 39388
    Number of boundary faces = 1344

Processor 113
    Number of cells = 325000
    Number of points = 345627
    Number of faces shared with processor 133 = 12500
    Number of faces shared with processor 93 = 12500
    Number of faces shared with processor 103 = 1300
    Number of faces shared with processor 112 = 6500
    Number of faces shared with processor 114 = 6500
    Number of processor patches = 5
    Number of processor faces = 39300
    Number of boundary faces = 1300

Processor 114
    Number of cells = 325000
    Number of points = 345627
    Number of faces shared with processor 134 = 12500
    Number of faces shared with processor 94 = 12500
    Number of faces shared with processor 104 = 1300
    Number of faces shared with processor 113 = 6500
    Number of faces shared with processor 115 = 6500
    Number of processor patches = 5
    Number of processor faces = 39300
    Number of boundary faces = 1300

Processor 115
    Number of cells = 325000
    Number of points = 345627
    Number of faces shared with processor 135 = 12500
    Number of faces shared with processor 95 = 12500
    Number of faces shared with processor 105 = 1300
    Number of faces shared with processor 114 = 6500
    Number of faces shared with processor 116 = 6500
    Number of processor patches = 5
    Number of processor faces = 39300
    Number of boundary faces = 1300

Processor 116
    Number of cells = 325110
    Number of points = 345768
    Number of faces shared with processor 136 = 12500
    Number of faces shared with processor 96 = 12530
    Number of faces shared with processor 106 = 1320
    Number of faces shared with processor 115 = 6500
    Number of faces shared with processor 117 = 6510
    Number of processor patches = 5
    Number of processor faces = 39360
    Number of boundary faces = 1300

Processor 117
    Number of cells = 326150
    Number of points = 346863
    Number of faces shared with processor 137 = 12500
    Number of faces shared with processor 96 = 1
    Number of faces shared with processor 97 = 12574
    Number of faces shared with processor 107 = 1350
    Number of faces shared with processor 116 = 6510
    Number of faces shared with processor 118 = 6535
    Number of processor patches = 6
    Number of processor faces = 39470
    Number of boundary faces = 1300

Processor 118
    Number of cells = 327400
    Number of points = 348138
    Number of faces shared with processor 138 = 12500
    Number of faces shared with processor 97 = 1
    Number of faces shared with processor 98 = 12574
    Number of faces shared with processor 108 = 1350
    Number of faces shared with processor 117 = 6535
    Number of faces shared with processor 119 = 6560
    Number of processor patches = 6
    Number of processor faces = 39520
    Number of boundary faces = 1300

Processor 119
    Number of cells = 328660
    Number of points = 349424
    Number of faces shared with processor 139 = 12500
    Number of faces shared with processor 98 = 1
    Number of faces shared with processor 99 = 12575
    Number of faces shared with processor 109 = 1350
    Number of faces shared with processor 118 = 6560
    Number of processor patches = 5
    Number of processor faces = 32986
    Number of boundary faces = 7886

Processor 120
    Number of cells = 325000
    Number of points = 345627
    Number of faces shared with processor 130 = 1300
    Number of faces shared with processor 140 = 12500
    Number of faces shared with processor 100 = 12500
    Number of faces shared with processor 121 = 6500
    Number of processor patches = 4
    Number of processor faces = 32800
    Number of boundary faces = 7800

Processor 121
    Number of cells = 325000
    Number of points = 345627
    Number of faces shared with processor 131 = 1300
    Number of faces shared with processor 141 = 12500
    Number of faces shared with processor 101 = 12500
    Number of faces shared with processor 120 = 6500
    Number of faces shared with processor 122 = 6500
    Number of processor patches = 5
    Number of processor faces = 39300
    Number of boundary faces = 1300

Processor 122
    Number of cells = 325006
    Number of points = 345640
    Number of faces shared with processor 132 = 1300
    Number of faces shared with processor 142 = 12500
    Number of faces shared with processor 102 = 12506
    Number of faces shared with processor 121 = 6500
    Number of faces shared with processor 123 = 6502
    Number of processor patches = 5
    Number of processor faces = 39308
    Number of boundary faces = 1304

Processor 123
    Number of cells = 325750
    Number of points = 346455
    Number of faces shared with processor 133 = 1300
    Number of faces shared with processor 143 = 12500
    Number of faces shared with processor 102 = 1
    Number of faces shared with processor 103 = 12574
    Number of faces shared with processor 122 = 6502
    Number of faces shared with processor 124 = 6527
    Number of processor patches = 6
    Number of processor faces = 39404
    Number of boundary faces = 1350

Processor 124
    Number of cells = 327000
    Number of points = 347730
    Number of faces shared with processor 134 = 1300
    Number of faces shared with processor 144 = 12500
    Number of faces shared with processor 103 = 1
    Number of faces shared with processor 104 = 12574
    Number of faces shared with processor 123 = 6527
    Number of faces shared with processor 125 = 6552
    Number of processor patches = 6
    Number of processor faces = 39454
    Number of boundary faces = 1350

Processor 125
    Number of cells = 328250
    Number of points = 349005
    Number of faces shared with processor 135 = 1300
    Number of faces shared with processor 145 = 12500
    Number of faces shared with processor 104 = 1
    Number of faces shared with processor 105 = 12574
    Number of faces shared with processor 124 = 6552
    Number of faces shared with processor 126 = 6577
    Number of processor patches = 6
    Number of processor faces = 39504
    Number of boundary faces = 1350

Processor 126
    Number of cells = 329500
    Number of points = 350280
    Number of faces shared with processor 136 = 1300
    Number of faces shared with processor 146 = 12500
    Number of faces shared with processor 105 = 1
    Number of faces shared with processor 106 = 12574
    Number of faces shared with processor 125 = 6577
    Number of faces shared with processor 127 = 6602
    Number of processor patches = 6
    Number of processor faces = 39554
    Number of boundary faces = 1350

Processor 127
    Number of cells = 330762
    Number of points = 351568
    Number of faces shared with processor 128 = 6628
    Number of faces shared with processor 137 = 1300
    Number of faces shared with processor 147 = 12500
    Number of faces shared with processor 106 = 1
    Number of faces shared with processor 107 = 12575
    Number of faces shared with processor 126 = 6602
    Number of processor patches = 6
    Number of processor faces = 39606
    Number of boundary faces = 1350

Processor 128
    Number of cells = 332025
    Number of points = 352856
    Number of faces shared with processor 129 = 6653
    Number of faces shared with processor 138 = 1300
    Number of faces shared with processor 148 = 12500
    Number of faces shared with processor 108 = 12575
    Number of faces shared with processor 127 = 6628
    Number of processor patches = 5
    Number of processor faces = 39656
    Number of boundary faces = 1350

Processor 129
    Number of cells = 332875
    Number of points = 353731
    Number of faces shared with processor 128 = 6653
    Number of faces shared with processor 139 = 1300
    Number of faces shared with processor 149 = 12559
    Number of faces shared with processor 109 = 12575
    Number of processor patches = 4
    Number of processor faces = 33087
    Number of boundary faces = 7969

Processor 130
    Number of cells = 332900
    Number of points = 353760
    Number of faces shared with processor 131 = 6657
    Number of faces shared with processor 150 = 12574
    Number of faces shared with processor 151 = 1
    Number of faces shared with processor 110 = 12574
    Number of faces shared with processor 120 = 1300
    Number of processor patches = 5
    Number of processor faces = 33106
    Number of boundary faces = 7958

Processor 131
    Number of cells = 332900
    Number of points = 353760
    Number of faces shared with processor 130 = 6657
    Number of faces shared with processor 132 = 6657
    Number of faces shared with processor 151 = 12574
    Number of faces shared with processor 152 = 1
    Number of faces shared with processor 110 = 1
    Number of faces shared with processor 111 = 12574
    Number of faces shared with processor 121 = 1300
    Number of processor patches = 7
    Number of processor faces = 39764
    Number of boundary faces = 1300

Processor 132
    Number of cells = 332894
    Number of points = 353752
    Number of faces shared with processor 131 = 6657
    Number of faces shared with processor 133 = 6655
    Number of faces shared with processor 152 = 12574
    Number of faces shared with processor 153 = 1
    Number of faces shared with processor 111 = 1
    Number of faces shared with processor 112 = 12566
    Number of faces shared with processor 122 = 1300
    Number of processor patches = 7
    Number of processor faces = 39754
    Number of boundary faces = 1306

Processor 133
    Number of cells = 332150
    Number of points = 352983
    Number of faces shared with processor 132 = 6655
    Number of faces shared with processor 134 = 6630
    Number of faces shared with processor 153 = 12574
    Number of faces shared with processor 154 = 1
    Number of faces shared with processor 113 = 12500
    Number of faces shared with processor 123 = 1300
    Number of processor patches = 6
    Number of processor faces = 39660
    Number of boundary faces = 1350

Processor 134
    Number of cells = 330900
    Number of points = 351708
    Number of faces shared with processor 133 = 6630
    Number of faces shared with processor 135 = 6605
    Number of faces shared with processor 154 = 12574
    Number of faces shared with processor 155 = 1
    Number of faces shared with processor 114 = 12500
    Number of faces shared with processor 124 = 1300
    Number of processor patches = 6
    Number of processor faces = 39610
    Number of boundary faces = 1350

Processor 135
    Number of cells = 329636
    Number of points = 350419
    Number of faces shared with processor 134 = 6605
    Number of faces shared with processor 136 = 6580
    Number of faces shared with processor 155 = 12575
    Number of faces shared with processor 115 = 12500
    Number of faces shared with processor 125 = 1300
    Number of processor patches = 5
    Number of processor faces = 39560
    Number of boundary faces = 1350

Processor 136
    Number of cells = 328375
    Number of points = 349133
    Number of faces shared with processor 135 = 6580
    Number of faces shared with processor 137 = 6555
    Number of faces shared with processor 156 = 12575
    Number of faces shared with processor 116 = 12500
    Number of faces shared with processor 126 = 1300
    Number of processor patches = 5
    Number of processor faces = 39510
    Number of boundary faces = 1350

Processor 137
    Number of cells = 327125
    Number of points = 347858
    Number of faces shared with processor 136 = 6555
    Number of faces shared with processor 138 = 6530
    Number of faces shared with processor 157 = 12575
    Number of faces shared with processor 117 = 12500
    Number of faces shared with processor 127 = 1300
    Number of processor patches = 5
    Number of processor faces = 39460
    Number of boundary faces = 1350

Processor 138
    Number of cells = 325875
    Number of points = 346583
    Number of faces shared with processor 128 = 1300
    Number of faces shared with processor 137 = 6530
    Number of faces shared with processor 139 = 6505
    Number of faces shared with processor 158 = 12575
    Number of faces shared with processor 118 = 12500
    Number of processor patches = 5
    Number of processor faces = 39410
    Number of boundary faces = 1350

Processor 139
    Number of cells = 325025
    Number of points = 345667
    Number of faces shared with processor 129 = 1300
    Number of faces shared with processor 138 = 6505
    Number of faces shared with processor 159 = 12514
    Number of faces shared with processor 119 = 12500
    Number of processor patches = 4
    Number of processor faces = 32819
    Number of boundary faces = 7809

Processor 140
    Number of cells = 331300
    Number of points = 352116
    Number of faces shared with processor 141 = 6613
    Number of faces shared with processor 150 = 1350
    Number of faces shared with processor 160 = 12574
    Number of faces shared with processor 161 = 1
    Number of faces shared with processor 120 = 12500
    Number of processor patches = 5
    Number of processor faces = 33038
    Number of boundary faces = 7938

Processor 141
    Number of cells = 330050
    Number of points = 350841
    Number of faces shared with processor 140 = 6613
    Number of faces shared with processor 142 = 6588
    Number of faces shared with processor 151 = 1350
    Number of faces shared with processor 161 = 12574
    Number of faces shared with processor 162 = 1
    Number of faces shared with processor 121 = 12500
    Number of processor patches = 6
    Number of processor faces = 39626
    Number of boundary faces = 1300

Processor 142
    Number of cells = 328800
    Number of points = 349566
    Number of faces shared with processor 141 = 6588
    Number of faces shared with processor 143 = 6563
    Number of faces shared with processor 152 = 1350
    Number of faces shared with processor 162 = 12574
    Number of faces shared with processor 163 = 1
    Number of faces shared with processor 122 = 12500
    Number of processor patches = 6
    Number of processor faces = 39576
    Number of boundary faces = 1300

Processor 143
    Number of cells = 327533
    Number of points = 348274
    Number of faces shared with processor 142 = 6563
    Number of faces shared with processor 144 = 6538
    Number of faces shared with processor 153 = 1350
    Number of faces shared with processor 163 = 12575
    Number of faces shared with processor 123 = 12500
    Number of processor patches = 5
    Number of processor faces = 39526
    Number of boundary faces = 1300

Processor 144
    Number of cells = 326275
    Number of points = 346991
    Number of faces shared with processor 143 = 6538
    Number of faces shared with processor 145 = 6513
    Number of faces shared with processor 154 = 1350
    Number of faces shared with processor 164 = 12575
    Number of faces shared with processor 124 = 12500
    Number of processor patches = 5
    Number of processor faces = 39476
    Number of boundary faces = 1300

Processor 145
    Number of cells = 325169
    Number of points = 345835
    Number of faces shared with processor 144 = 6513
    Number of faces shared with processor 146 = 6500
    Number of faces shared with processor 155 = 1325
    Number of faces shared with processor 165 = 12538
    Number of faces shared with processor 125 = 12500
    Number of processor patches = 5
    Number of processor faces = 39376
    Number of boundary faces = 1300

Processor 146
    Number of cells = 325000
    Number of points = 345627
    Number of faces shared with processor 145 = 6500
    Number of faces shared with processor 147 = 6500
    Number of faces shared with processor 156 = 1300
    Number of faces shared with processor 166 = 12500
    Number of faces shared with processor 126 = 12500
    Number of processor patches = 5
    Number of processor faces = 39300
    Number of boundary faces = 1300

Processor 147
    Number of cells = 325000
    Number of points = 345627
    Number of faces shared with processor 146 = 6500
    Number of faces shared with processor 148 = 6500
    Number of faces shared with processor 157 = 1300
    Number of faces shared with processor 167 = 12500
    Number of faces shared with processor 127 = 12500
    Number of processor patches = 5
    Number of processor faces = 39300
    Number of boundary faces = 1300

Processor 148
    Number of cells = 325000
    Number of points = 345627
    Number of faces shared with processor 128 = 12500
    Number of faces shared with processor 147 = 6500
    Number of faces shared with processor 149 = 6500
    Number of faces shared with processor 158 = 1300
    Number of faces shared with processor 168 = 12500
    Number of processor patches = 5
    Number of processor faces = 39300
    Number of boundary faces = 1300

Processor 149
    Number of cells = 325400
    Number of points = 346087
    Number of faces shared with processor 129 = 12559
    Number of faces shared with processor 148 = 6500
    Number of faces shared with processor 159 = 1300
    Number of faces shared with processor 169 = 12500
    Number of processor patches = 4
    Number of processor faces = 32859
    Number of boundary faces = 7859

Processor 150
    Number of cells = 326600
    Number of points = 347322
    Number of faces shared with processor 130 = 12574
    Number of faces shared with processor 140 = 1350
    Number of faces shared with processor 151 = 6544
    Number of faces shared with processor 170 = 12500
    Number of processor patches = 4
    Number of processor faces = 32968
    Number of boundary faces = 7820

Processor 151
    Number of cells = 327850
    Number of points = 348597
    Number of faces shared with processor 130 = 1
    Number of faces shared with processor 131 = 12574
    Number of faces shared with processor 141 = 1350
    Number of faces shared with processor 150 = 6544
    Number of faces shared with processor 152 = 6569
    Number of faces shared with processor 171 = 12500
    Number of processor patches = 6
    Number of processor faces = 39538
    Number of boundary faces = 1300

Processor 152
    Number of cells = 329100
    Number of points = 349872
    Number of faces shared with processor 131 = 1
    Number of faces shared with processor 132 = 12574
    Number of faces shared with processor 142 = 1350
    Number of faces shared with processor 151 = 6569
    Number of faces shared with processor 153 = 6594
    Number of faces shared with processor 172 = 12500
    Number of processor patches = 6
    Number of processor faces = 39588
    Number of boundary faces = 1300

Processor 153
    Number of cells = 330350
    Number of points = 351147
    Number of faces shared with processor 132 = 1
    Number of faces shared with processor 133 = 12574
    Number of faces shared with processor 143 = 1350
    Number of faces shared with processor 152 = 6594
    Number of faces shared with processor 154 = 6619
    Number of faces shared with processor 173 = 12500
    Number of processor patches = 6
    Number of processor faces = 39638
    Number of boundary faces = 1300

Processor 154
    Number of cells = 331600
    Number of points = 352422
    Number of faces shared with processor 133 = 1
    Number of faces shared with processor 134 = 12574
    Number of faces shared with processor 144 = 1350
    Number of faces shared with processor 153 = 6619
    Number of faces shared with processor 155 = 6644
    Number of faces shared with processor 174 = 12500
    Number of processor patches = 6
    Number of processor faces = 39688
    Number of boundary faces = 1300

Processor 155
    Number of cells = 332720
    Number of points = 353568
    Number of faces shared with processor 134 = 1
    Number of faces shared with processor 135 = 12575
    Number of faces shared with processor 145 = 1325
    Number of faces shared with processor 154 = 6644
    Number of faces shared with processor 156 = 6658
    Number of faces shared with processor 165 = 2
    Number of faces shared with processor 175 = 12535
    Number of processor patches = 7
    Number of processor faces = 39740
    Number of boundary faces = 1300

Processor 156
    Number of cells = 332900
    Number of points = 353761
    Number of faces shared with processor 136 = 12575
    Number of faces shared with processor 146 = 1300
    Number of faces shared with processor 155 = 6658
    Number of faces shared with processor 157 = 6658
    Number of faces shared with processor 176 = 12575
    Number of processor patches = 5
    Number of processor faces = 39766
    Number of boundary faces = 1300

Processor 157
    Number of cells = 332900
    Number of points = 353761
    Number of faces shared with processor 137 = 12575
    Number of faces shared with processor 147 = 1300
    Number of faces shared with processor 156 = 6658
    Number of faces shared with processor 158 = 6658
    Number of faces shared with processor 177 = 12575
    Number of processor patches = 5
    Number of processor faces = 39766
    Number of boundary faces = 1300

Processor 158
    Number of cells = 332900
    Number of points = 353761
    Number of faces shared with processor 138 = 12575
    Number of faces shared with processor 148 = 1300
    Number of faces shared with processor 157 = 6658
    Number of faces shared with processor 159 = 6658
    Number of faces shared with processor 178 = 12575
    Number of processor patches = 5
    Number of processor faces = 39766
    Number of boundary faces = 1300

Processor 159
    Number of cells = 332500
    Number of points = 353341
    Number of faces shared with processor 139 = 12514
    Number of faces shared with processor 149 = 1300
    Number of faces shared with processor 158 = 6658
    Number of faces shared with processor 179 = 12575
    Number of processor patches = 4
    Number of processor faces = 33047
    Number of boundary faces = 7979

Processor 160
    Number of cells = 331200
    Number of points = 352014
    Number of faces shared with processor 140 = 12574
    Number of faces shared with processor 161 = 6636
    Number of faces shared with processor 170 = 1300
    Number of faces shared with processor 180 = 12500
    Number of processor patches = 4
    Number of processor faces = 33010
    Number of boundary faces = 7962

Processor 161
    Number of cells = 332434
    Number of points = 353273
    Number of faces shared with processor 140 = 1
    Number of faces shared with processor 141 = 12574
    Number of faces shared with processor 160 = 6636
    Number of faces shared with processor 162 = 6657
    Number of faces shared with processor 171 = 1300
    Number of faces shared with processor 181 = 12511
    Number of processor patches = 6
    Number of processor faces = 39679
    Number of boundary faces = 1343

Processor 162
    Number of cells = 332875
    Number of points = 353735
    Number of faces shared with processor 141 = 1
    Number of faces shared with processor 142 = 12574
    Number of faces shared with processor 161 = 6657
    Number of faces shared with processor 163 = 6657
    Number of faces shared with processor 172 = 1300
    Number of faces shared with processor 182 = 12575
    Number of processor patches = 6
    Number of processor faces = 39764
    Number of boundary faces = 1300

Processor 163
    Number of cells = 332892
    Number of points = 353753
    Number of faces shared with processor 142 = 1
    Number of faces shared with processor 143 = 12575
    Number of faces shared with processor 162 = 6657
    Number of faces shared with processor 164 = 6658
    Number of faces shared with processor 173 = 1300
    Number of faces shared with processor 183 = 12575
    Number of processor patches = 6
    Number of processor faces = 39766
    Number of boundary faces = 1300

Processor 164
    Number of cells = 332900
    Number of points = 353761
    Number of faces shared with processor 144 = 12575
    Number of faces shared with processor 163 = 6658
    Number of faces shared with processor 165 = 6658
    Number of faces shared with processor 174 = 1300
    Number of faces shared with processor 184 = 12575
    Number of processor patches = 5
    Number of processor faces = 39766
    Number of boundary faces = 1300

Processor 165
    Number of cells = 332756
    Number of points = 353605
    Number of faces shared with processor 145 = 12538
    Number of faces shared with processor 155 = 2
    Number of faces shared with processor 164 = 6658
    Number of faces shared with processor 166 = 6646
    Number of faces shared with processor 175 = 1323
    Number of faces shared with processor 185 = 12575
    Number of processor patches = 6
    Number of processor faces = 39742
    Number of boundary faces = 1300

Processor 166
    Number of cells = 331675
    Number of points = 352499
    Number of faces shared with processor 146 = 12500
    Number of faces shared with processor 165 = 6646
    Number of faces shared with processor 167 = 6621
    Number of faces shared with processor 176 = 1350
    Number of faces shared with processor 186 = 12575
    Number of processor patches = 5
    Number of processor faces = 39692
    Number of boundary faces = 1300

Processor 167
    Number of cells = 330425
    Number of points = 351224
    Number of faces shared with processor 147 = 12500
    Number of faces shared with processor 166 = 6621
    Number of faces shared with processor 168 = 6596
    Number of faces shared with processor 177 = 1350
    Number of faces shared with processor 187 = 12575
    Number of processor patches = 5
    Number of processor faces = 39642
    Number of boundary faces = 1300

Processor 168
    Number of cells = 329175
    Number of points = 349949
    Number of faces shared with processor 148 = 12500
    Number of faces shared with processor 167 = 6596
    Number of faces shared with processor 169 = 6571
    Number of faces shared with processor 178 = 1350
    Number of faces shared with processor 188 = 12575
    Number of processor patches = 5
    Number of processor faces = 39592
    Number of boundary faces = 1300

Processor 169
    Number of cells = 327925
    Number of points = 348674
    Number of faces shared with processor 149 = 12500
    Number of faces shared with processor 168 = 6571
[...]
    in file db/dynamicLibrary/dlLibraryTable/dlLibraryTable.C at line 188
    Could not load "libpetscFoam.so"
libpetscFoam.so: cannot open shared object file: No such file or directory
Processor 317: field transfer
--> FOAM Warning : 
    From void* Foam::dlLibraryTable::openLibrary(const Foam::fileName&, bool)
    in file db/dynamicLibrary/dlLibraryTable/dlLibraryTable.C at line 188
    Could not load "libpetscFoam.so"
libpetscFoam.so: cannot open shared object file: No such file or directory
Processor 318: field transfer
--> FOAM Warning : 
    From void* Foam::dlLibraryTable::openLibrary(const Foam::fileName&, bool)
    in file db/dynamicLibrary/dlLibraryTable/dlLibraryTable.C at line 188
    Could not load "libpetscFoam.so"
libpetscFoam.so: cannot open shared object file: No such file or directory
Processor 319: field transfer
--> FOAM Warning : 
    From void* Foam::dlLibraryTable::openLibrary(const Foam::fileName&, bool)
    in file db/dynamicLibrary/dlLibraryTable/dlLibraryTable.C at line 188
    Could not load "libpetscFoam.so"
libpetscFoam.so: cannot open shared object file: No such file or directory
Processor 320: field transfer
--> FOAM Warning : 
    From void* Foam::dlLibraryTable::openLibrary(const Foam::fileName&, bool)
    in file db/dynamicLibrary/dlLibraryTable/dlLibraryTable.C at line 188
    Could not load "libpetscFoam.so"
libpetscFoam.so: cannot open shared object file: No such file or directory
Processor 321: field transfer
--> FOAM Warning : 
    From void* Foam::dlLibraryTable::openLibrary(const Foam::fileName&, bool)
    in file db/dynamicLibrary/dlLibraryTable/dlLibraryTable.C at line 188
    Could not load "libpetscFoam.so"
libpetscFoam.so: cannot open shared object file: No such file or directory
Processor 322: field transfer
--> FOAM Warning : 
    From void* Foam::dlLibraryTable::openLibrary(const Foam::fileName&, bool)
    in file db/dynamicLibrary/dlLibraryTable/dlLibraryTable.C at line 188
    Could not load "libpetscFoam.so"
libpetscFoam.so: cannot open shared object file: No such file or directory
Processor 323: field transfer
--> FOAM Warning : 
    From void* Foam::dlLibraryTable::openLibrary(const Foam::fileName&, bool)
    in file db/dynamicLibrary/dlLibraryTable/dlLibraryTable.C at line 188
    Could not load "libpetscFoam.so"
libpetscFoam.so: cannot open shared object file: No such file or directory
Processor 324: field transfer
--> FOAM Warning : 
    From void* Foam::dlLibraryTable::openLibrary(const Foam::fileName&, bool)
    in file db/dynamicLibrary/dlLibraryTable/dlLibraryTable.C at line 188
    Could not load "libpetscFoam.so"
libpetscFoam.so: cannot open shared object file: No such file or directory
Processor 325: field transfer
--> FOAM Warning : 
    From void* Foam::dlLibraryTable::openLibrary(const Foam::fileName&, bool)
    in file db/dynamicLibrary/dlLibraryTable/dlLibraryTable.C at line 188
    Could not load "libpetscFoam.so"
libpetscFoam.so: cannot open shared object file: No such file or directory
Processor 326: field transfer
--> FOAM Warning : 
    From void* Foam::dlLibraryTable::openLibrary(const Foam::fileName&, bool)
    in file db/dynamicLibrary/dlLibraryTable/dlLibraryTable.C at line 188
    Could not load "libpetscFoam.so"
libpetscFoam.so: cannot open shared object file: No such file or directory
Processor 327: field transfer
--> FOAM Warning : 
    From void* Foam::dlLibraryTable::openLibrary(const Foam::fileName&, bool)
    in file db/dynamicLibrary/dlLibraryTable/dlLibraryTable.C at line 188
    Could not load "libpetscFoam.so"
libpetscFoam.so: cannot open shared object file: No such file or directory
Processor 328: field transfer
--> FOAM Warning : 
    From void* Foam::dlLibraryTable::openLibrary(const Foam::fileName&, bool)
    in file db/dynamicLibrary/dlLibraryTable/dlLibraryTable.C at line 188
    Could not load "libpetscFoam.so"
libpetscFoam.so: cannot open shared object file: No such file or directory
Processor 329: field transfer
--> FOAM Warning : 
    From void* Foam::dlLibraryTable::openLibrary(const Foam::fileName&, bool)
    in file db/dynamicLibrary/dlLibraryTable/dlLibraryTable.C at line 188
    Could not load "libpetscFoam.so"
libpetscFoam.so: cannot open shared object file: No such file or directory
Processor 330: field transfer
--> FOAM Warning : 
    From void* Foam::dlLibraryTable::openLibrary(const Foam::fileName&, bool)
    in file db/dynamicLibrary/dlLibraryTable/dlLibraryTable.C at line 188
    Could not load "libpetscFoam.so"
libpetscFoam.so: cannot open shared object file: No such file or directory
Processor 331: field transfer
--> FOAM Warning : 
    From void* Foam::dlLibraryTable::openLibrary(const Foam::fileName&, bool)
    in file db/dynamicLibrary/dlLibraryTable/dlLibraryTable.C at line 188
    Could not load "libpetscFoam.so"
libpetscFoam.so: cannot open shared object file: No such file or directory
Processor 332: field transfer
--> FOAM Warning : 
    From void* Foam::dlLibraryTable::openLibrary(const Foam::fileName&, bool)
    in file db/dynamicLibrary/dlLibraryTable/dlLibraryTable.C at line 188
    Could not load "libpetscFoam.so"
libpetscFoam.so: cannot open shared object file: No such file or directory
Processor 333: field transfer
--> FOAM Warning : 
    From void* Foam::dlLibraryTable::openLibrary(const Foam::fileName&, bool)
    in file db/dynamicLibrary/dlLibraryTable/dlLibraryTable.C at line 188
    Could not load "libpetscFoam.so"
libpetscFoam.so: cannot open shared object file: No such file or directory
Processor 334: field transfer
--> FOAM Warning : 
    From void* Foam::dlLibraryTable::openLibrary(const Foam::fileName&, bool)
    in file db/dynamicLibrary/dlLibraryTable/dlLibraryTable.C at line 188
    Could not load "libpetscFoam.so"
libpetscFoam.so: cannot open shared object file: No such file or directory
Processor 335: field transfer
--> FOAM Warning : 
    From void* Foam::dlLibraryTable::openLibrary(const Foam::fileName&, bool)
    in file db/dynamicLibrary/dlLibraryTable/dlLibraryTable.C at line 188
    Could not load "libpetscFoam.so"
libpetscFoam.so: cannot open shared object file: No such file or directory
Processor 336: field transfer
--> FOAM Warning : 
    From void* Foam::dlLibraryTable::openLibrary(const Foam::fileName&, bool)
    in file db/dynamicLibrary/dlLibraryTable/dlLibraryTable.C at line 188
    Could not load "libpetscFoam.so"
libpetscFoam.so: cannot open shared object file: No such file or directory
Processor 337: field transfer
--> FOAM Warning : 
    From void* Foam::dlLibraryTable::openLibrary(const Foam::fileName&, bool)
    in file db/dynamicLibrary/dlLibraryTable/dlLibraryTable.C at line 188
    Could not load "libpetscFoam.so"
libpetscFoam.so: cannot open shared object file: No such file or directory
Processor 338: field transfer
--> FOAM Warning : 
    From void* Foam::dlLibraryTable::openLibrary(const Foam::fileName&, bool)
    in file db/dynamicLibrary/dlLibraryTable/dlLibraryTable.C at line 188
    Could not load "libpetscFoam.so"
libpetscFoam.so: cannot open shared object file: No such file or directory
Processor 339: field transfer
--> FOAM Warning : 
    From void* Foam::dlLibraryTable::openLibrary(const Foam::fileName&, bool)
    in file db/dynamicLibrary/dlLibraryTable/dlLibraryTable.C at line 188
    Could not load "libpetscFoam.so"
libpetscFoam.so: cannot open shared object file: No such file or directory
Processor 340: field transfer
--> FOAM Warning : 
    From void* Foam::dlLibraryTable::openLibrary(const Foam::fileName&, bool)
    in file db/dynamicLibrary/dlLibraryTable/dlLibraryTable.C at line 188
    Could not load "libpetscFoam.so"
libpetscFoam.so: cannot open shared object file: No such file or directory
Processor 341: field transfer
--> FOAM Warning : 
    From void* Foam::dlLibraryTable::openLibrary(const Foam::fileName&, bool)
    in file db/dynamicLibrary/dlLibraryTable/dlLibraryTable.C at line 188
    Could not load "libpetscFoam.so"
libpetscFoam.so: cannot open shared object file: No such file or directory
Processor 342: field transfer
--> FOAM Warning : 
    From void* Foam::dlLibraryTable::openLibrary(const Foam::fileName&, bool)
    in file db/dynamicLibrary/dlLibraryTable/dlLibraryTable.C at line 188
    Could not load "libpetscFoam.so"
libpetscFoam.so: cannot open shared object file: No such file or directory
Processor 343: field transfer
--> FOAM Warning : 
    From void* Foam::dlLibraryTable::openLibrary(const Foam::fileName&, bool)
    in file db/dynamicLibrary/dlLibraryTable/dlLibraryTable.C at line 188
    Could not load "libpetscFoam.so"
libpetscFoam.so: cannot open shared object file: No such file or directory
Processor 344: field transfer
--> FOAM Warning : 
    From void* Foam::dlLibraryTable::openLibrary(const Foam::fileName&, bool)
    in file db/dynamicLibrary/dlLibraryTable/dlLibraryTable.C at line 188
    Could not load "libpetscFoam.so"
libpetscFoam.so: cannot open shared object file: No such file or directory
Processor 345: field transfer
--> FOAM Warning : 
    From void* Foam::dlLibraryTable::openLibrary(const Foam::fileName&, bool)
    in file db/dynamicLibrary/dlLibraryTable/dlLibraryTable.C at line 188
    Could not load "libpetscFoam.so"
libpetscFoam.so: cannot open shared object file: No such file or directory
Processor 346: field transfer
--> FOAM Warning : 
    From void* Foam::dlLibraryTable::openLibrary(const Foam::fileName&, bool)
    in file db/dynamicLibrary/dlLibraryTable/dlLibraryTable.C at line 188
    Could not load "libpetscFoam.so"
libpetscFoam.so: cannot open shared object file: No such file or directory
Processor 347: field transfer
--> FOAM Warning : 
    From void* Foam::dlLibraryTable::openLibrary(const Foam::fileName&, bool)
    in file db/dynamicLibrary/dlLibraryTable/dlLibraryTable.C at line 188
    Could not load "libpetscFoam.so"
libpetscFoam.so: cannot open shared object file: No such file or directory
Processor 348: field transfer
--> FOAM Warning : 
    From void* Foam::dlLibraryTable::openLibrary(const Foam::fileName&, bool)
    in file db/dynamicLibrary/dlLibraryTable/dlLibraryTable.C at line 188
    Could not load "libpetscFoam.so"
libpetscFoam.so: cannot open shared object file: No such file or directory
Processor 349: field transfer
--> FOAM Warning : 
    From void* Foam::dlLibraryTable::openLibrary(const Foam::fileName&, bool)
    in file db/dynamicLibrary/dlLibraryTable/dlLibraryTable.C at line 188
    Could not load "libpetscFoam.so"
libpetscFoam.so: cannot open shared object file: No such file or directory
Processor 350: field transfer
--> FOAM Warning : 
    From void* Foam::dlLibraryTable::openLibrary(const Foam::fileName&, bool)
    in file db/dynamicLibrary/dlLibraryTable/dlLibraryTable.C at line 188
    Could not load "libpetscFoam.so"
libpetscFoam.so: cannot open shared object file: No such file or directory
Processor 351: field transfer
--> FOAM Warning : 
    From void* Foam::dlLibraryTable::openLibrary(const Foam::fileName&, bool)
    in file db/dynamicLibrary/dlLibraryTable/dlLibraryTable.C at line 188
    Could not load "libpetscFoam.so"
libpetscFoam.so: cannot open shared object file: No such file or directory
Processor 352: field transfer
--> FOAM Warning : 
    From void* Foam::dlLibraryTable::openLibrary(const Foam::fileName&, bool)
    in file db/dynamicLibrary/dlLibraryTable/dlLibraryTable.C at line 188
    Could not load "libpetscFoam.so"
libpetscFoam.so: cannot open shared object file: No such file or directory
Processor 353: field transfer
--> FOAM Warning : 
    From void* Foam::dlLibraryTable::openLibrary(const Foam::fileName&, bool)
    in file db/dynamicLibrary/dlLibraryTable/dlLibraryTable.C at line 188
    Could not load "libpetscFoam.so"
libpetscFoam.so: cannot open shared object file: No such file or directory
Processor 354: field transfer
--> FOAM Warning : 
    From void* Foam::dlLibraryTable::openLibrary(const Foam::fileName&, bool)
    in file db/dynamicLibrary/dlLibraryTable/dlLibraryTable.C at line 188
    Could not load "libpetscFoam.so"
libpetscFoam.so: cannot open shared object file: No such file or directory
Processor 355: field transfer
--> FOAM Warning : 
    From void* Foam::dlLibraryTable::openLibrary(const Foam::fileName&, bool)
    in file db/dynamicLibrary/dlLibraryTable/dlLibraryTable.C at line 188
    Could not load "libpetscFoam.so"
libpetscFoam.so: cannot open shared object file: No such file or directory
Processor 356: field transfer
--> FOAM Warning : 
    From void* Foam::dlLibraryTable::openLibrary(const Foam::fileName&, bool)
    in file db/dynamicLibrary/dlLibraryTable/dlLibraryTable.C at line 188
    Could not load "libpetscFoam.so"
libpetscFoam.so: cannot open shared object file: No such file or directory
Processor 357: field transfer
--> FOAM Warning : 
    From void* Foam::dlLibraryTable::openLibrary(const Foam::fileName&, bool)
    in file db/dynamicLibrary/dlLibraryTable/dlLibraryTable.C at line 188
    Could not load "libpetscFoam.so"
libpetscFoam.so: cannot open shared object file: No such file or directory
Processor 358: field transfer
--> FOAM Warning : 
    From void* Foam::dlLibraryTable::openLibrary(const Foam::fileName&, bool)
    in file db/dynamicLibrary/dlLibraryTable/dlLibraryTable.C at line 188
    Could not load "libpetscFoam.so"
libpetscFoam.so: cannot open shared object file: No such file or directory
Processor 359: field transfer
--> FOAM Warning : 
    From void* Foam::dlLibraryTable::openLibrary(const Foam::fileName&, bool)
    in file db/dynamicLibrary/dlLibraryTable/dlLibraryTable.C at line 188
    Could not load "libpetscFoam.so"
libpetscFoam.so: cannot open shared object file: No such file or directory
Processor 360: field transfer
--> FOAM Warning : 
    From void* Foam::dlLibraryTable::openLibrary(const Foam::fileName&, bool)
    in file db/dynamicLibrary/dlLibraryTable/dlLibraryTable.C at line 188
    Could not load "libpetscFoam.so"
libpetscFoam.so: cannot open shared object file: No such file or directory
Processor 361: field transfer
--> FOAM Warning : 
    From void* Foam::dlLibraryTable::openLibrary(const Foam::fileName&, bool)
    in file db/dynamicLibrary/dlLibraryTable/dlLibraryTable.C at line 188
    Could not load "libpetscFoam.so"
libpetscFoam.so: cannot open shared object file: No such file or directory
Processor 362: field transfer
--> FOAM Warning : 
    From void* Foam::dlLibraryTable::openLibrary(const Foam::fileName&, bool)
    in file db/dynamicLibrary/dlLibraryTable/dlLibraryTable.C at line 188
    Could not load "libpetscFoam.so"
libpetscFoam.so: cannot open shared object file: No such file or directory
Processor 363: field transfer
--> FOAM Warning : 
    From void* Foam::dlLibraryTable::openLibrary(const Foam::fileName&, bool)
    in file db/dynamicLibrary/dlLibraryTable/dlLibraryTable.C at line 188
    Could not load "libpetscFoam.so"
libpetscFoam.so: cannot open shared object file: No such file or directory
Processor 364: field transfer
--> FOAM Warning : 
    From void* Foam::dlLibraryTable::openLibrary(const Foam::fileName&, bool)
    in file db/dynamicLibrary/dlLibraryTable/dlLibraryTable.C at line 188
    Could not load "libpetscFoam.so"
libpetscFoam.so: cannot open shared object file: No such file or directory
Processor 365: field transfer
--> FOAM Warning : 
    From void* Foam::dlLibraryTable::openLibrary(const Foam::fileName&, bool)
    in file db/dynamicLibrary/dlLibraryTable/dlLibraryTable.C at line 188
    Could not load "libpetscFoam.so"
libpetscFoam.so: cannot open shared object file: No such file or directory
Processor 366: field transfer
--> FOAM Warning : 
    From void* Foam::dlLibraryTable::openLibrary(const Foam::fileName&, bool)
    in file db/dynamicLibrary/dlLibraryTable/dlLibraryTable.C at line 188
    Could not load "libpetscFoam.so"
libpetscFoam.so: cannot open shared object file: No such file or directory
Processor 367: field transfer
--> FOAM Warning : 
    From void* Foam::dlLibraryTable::openLibrary(const Foam::fileName&, bool)
    in file db/dynamicLibrary/dlLibraryTable/dlLibraryTable.C at line 188
    Could not load "libpetscFoam.so"
libpetscFoam.so: cannot open shared object file: No such file or directory
Processor 368: field transfer
--> FOAM Warning : 
    From void* Foam::dlLibraryTable::openLibrary(const Foam::fileName&, bool)
    in file db/dynamicLibrary/dlLibraryTable/dlLibraryTable.C at line 188
    Could not load "libpetscFoam.so"
libpetscFoam.so: cannot open shared object file: No such file or directory
Processor 369: field transfer
--> FOAM Warning : 
    From void* Foam::dlLibraryTable::openLibrary(const Foam::fileName&, bool)
    in file db/dynamicLibrary/dlLibraryTable/dlLibraryTable.C at line 188
    Could not load "libpetscFoam.so"
libpetscFoam.so: cannot open shared object file: No such file or directory
Processor 370: field transfer
--> FOAM Warning : 
    From void* Foam::dlLibraryTable::openLibrary(const Foam::fileName&, bool)
    in file db/dynamicLibrary/dlLibraryTable/dlLibraryTable.C at line 188
    Could not load "libpetscFoam.so"
libpetscFoam.so: cannot open shared object file: No such file or directory
Processor 371: field transfer
--> FOAM Warning : 
    From void* Foam::dlLibraryTable::openLibrary(const Foam::fileName&, bool)
    in file db/dynamicLibrary/dlLibraryTable/dlLibraryTable.C at line 188
    Could not load "libpetscFoam.so"
libpetscFoam.so: cannot open shared object file: No such file or directory
Processor 372: field transfer
--> FOAM Warning : 
    From void* Foam::dlLibraryTable::openLibrary(const Foam::fileName&, bool)
    in file db/dynamicLibrary/dlLibraryTable/dlLibraryTable.C at line 188
    Could not load "libpetscFoam.so"
libpetscFoam.so: cannot open shared object file: No such file or directory
Processor 373: field transfer
--> FOAM Warning : 
    From void* Foam::dlLibraryTable::openLibrary(const Foam::fileName&, bool)
    in file db/dynamicLibrary/dlLibraryTable/dlLibraryTable.C at line 188
    Could not load "libpetscFoam.so"
libpetscFoam.so: cannot open shared object file: No such file or directory
Processor 374: field transfer
--> FOAM Warning : 
    From void* Foam::dlLibraryTable::openLibrary(const Foam::fileName&, bool)
    in file db/dynamicLibrary/dlLibraryTable/dlLibraryTable.C at line 188
    Could not load "libpetscFoam.so"
libpetscFoam.so: cannot open shared object file: No such file or directory
Processor 375: field transfer
--> FOAM Warning : 
    From void* Foam::dlLibraryTable::openLibrary(const Foam::fileName&, bool)
    in file db/dynamicLibrary/dlLibraryTable/dlLibraryTable.C at line 188
    Could not load "libpetscFoam.so"
libpetscFoam.so: cannot open shared object file: No such file or directory
Processor 376: field transfer
--> FOAM Warning : 
    From void* Foam::dlLibraryTable::openLibrary(const Foam::fileName&, bool)
    in file db/dynamicLibrary/dlLibraryTable/dlLibraryTable.C at line 188
    Could not load "libpetscFoam.so"
libpetscFoam.so: cannot open shared object file: No such file or directory
Processor 377: field transfer
--> FOAM Warning : 
    From void* Foam::dlLibraryTable::openLibrary(const Foam::fileName&, bool)
    in file db/dynamicLibrary/dlLibraryTable/dlLibraryTable.C at line 188
    Could not load "libpetscFoam.so"
libpetscFoam.so: cannot open shared object file: No such file or directory
Processor 378: field transfer
--> FOAM Warning : 
    From void* Foam::dlLibraryTable::openLibrary(const Foam::fileName&, bool)
    in file db/dynamicLibrary/dlLibraryTable/dlLibraryTable.C at line 188
    Could not load "libpetscFoam.so"
libpetscFoam.so: cannot open shared object file: No such file or directory
Processor 379: field transfer
--> FOAM Warning : 
    From void* Foam::dlLibraryTable::openLibrary(const Foam::fileName&, bool)
    in file db/dynamicLibrary/dlLibraryTable/dlLibraryTable.C at line 188
    Could not load "libpetscFoam.so"
libpetscFoam.so: cannot open shared object file: No such file or directory

End

