/*---------------------------------------------------------------------------*\
| =========                 |                                                 |
| \\      /  F ield         | OpenFOAM: The Open Source CFD Toolbox           |
|  \\    /   O peration     | Version:  2306                                  |
|   \\  /    A nd           | Website:  www.openfoam.com                      |
|    \\/     M anipulation  |                                                 |
\*---------------------------------------------------------------------------*/
Build  : a6e826bd55-20230630 OPENFOAM=2306 version=v2306
Arch   : "LSB;label=32;scalar=64"
Exec   : icoFoam -parallel -case /tmp/lidDrivenCavity/workspace/2f36032553d34ad20248058405f4feaa/case
Date   : Jan 10 2024
Time   : 08:17:37
Host   : nla-gpu2.ianm.kit.edu
PID    : 413247
I/O    : uncollated
Case   : /tmp/lidDrivenCavity/workspace/2f36032553d34ad20248058405f4feaa/case
nProcs : 8
Hosts  :
(
    (nla-gpu2.ianm.kit.edu 8)
)
Pstream initialized with:
    floatTransfer      : false
    nProcsSimpleSum    : 0
    nonBlockingExchange: 0 (tuning: 0)
    exchange algorithm : -1
    commsType          : nonBlocking
    polling iterations : 0
trapFpe: Floating point exception trapping enabled (FOAM_SIGFPE).
fileModificationChecking : Monitoring run-time modified files using timeStampMaster (fileModificationSkew 5, maxFileModificationPolls 20)
allowSystemOperations : Allowing user-supplied system call operations

// * * * * * * * * * * * * * * * * * * * * * * * * * * * * * * * * * * * * * //
Create time

--> FOAM Warning : 
    From void* Foam::dlLibraryTable::openLibrary(const Foam::fileName&, bool)
    in file db/dynamicLibrary/dlLibraryTable/dlLibraryTable.C at line 188
    Could not load "libpetscFoam.so"
libpetscFoam.so: cannot open shared object file: No such file or directory
Create mesh for time = 0


PISO: Operating solver in PISO mode

Reading transportProperties

Reading field p

Reading field U

Reading/calculating face flux field phi


Starting time loop

Time = 0.000125

Courant Number mean: 8.02505e-18 max: 4.85723e-14
[INFO] MatrixAssemblyU: 815.145 [ms]
DILUPBiCGStab:  Solving for Ux, Initial residual = 1, Final residual = 0.0211815, No Iterations 5
DILUPBiCGStab:  Solving for Uy:  solution singularity
DILUPBiCGStab:  Solving for Uz:  solution singularity
[INFO] MomentumPredictor: 3697.12 [ms]
[INFO] MatrixAssemblyPI: 823.196 [ms]
[INFO] AdjustPhi: 43.928 [ms]
[INFO] ConstrainPressure: 0.013 [ms]
[INFO] MatrixAssemblyPII: 231.89 [ms]
DICPCG:  Solving for p, Initial residual = 1, Final residual = 9.6748e-05, No Iterations 1297
[INFO] SolveP: 238733 [ms]
time step continuity errors : sum local = 2.46e-09, global = -2.61226e-21, cumulative = -2.61226e-21
[INFO] ContinuityError: 119.429 [ms]
[INFO] CorrectBoundary: 1.563 [ms]
[INFO] PISOStep: 240212 [ms]
[INFO] MatrixAssemblyPI: 788.659 [ms]
[INFO] AdjustPhi: 45.953 [ms]
[INFO] ConstrainPressure: 0.003 [ms]
[INFO] MatrixAssemblyPII: 232.183 [ms]
DICPCG:  Solving for p, Initial residual = 0.822356, Final residual = 9.952e-05, No Iterations 1305
[INFO] SolveP: 239376 [ms]
time step continuity errors : sum local = 3.04765e-09, global = 2.20751e-22, cumulative = -2.39151e-21
[INFO] ContinuityError: 111.773 [ms]
[INFO] CorrectBoundary: 1.643 [ms]
[INFO] PISOStep: 240813 [ms]
[INFO] TimeStep: 485654 [ms]
ExecutionTime = 487.68 s  ClockTime = 490 s

Time = 0.00025

Courant Number mean: 0.0108822 max: 0.437683
[INFO] MatrixAssemblyU: 616.121 [ms]
DILUPBiCGStab:  Solving for Ux, Initial residual = 0.108151, Final residual = 0.0127621, No Iterations 5
DILUPBiCGStab:  Solving for Uy, Initial residual = 0.484288, Final residual = 0.0502284, No Iterations 5
DILUPBiCGStab:  Solving for Uz, Initial residual = 0.996415, Final residual = 0.11452, No Iterations 5
[INFO] MomentumPredictor: 7028.68 [ms]
[INFO] MatrixAssemblyPI: 808.378 [ms]
[INFO] AdjustPhi: 46.41 [ms]
[INFO] ConstrainPressure: 0.003 [ms]
[INFO] MatrixAssemblyPII: 230.634 [ms]
DICPCG:  Solving for p, Initial residual = 0.905673, Final residual = 9.91723e-05, No Iterations 668
[INFO] SolveP: 122730 [ms]
time step continuity errors : sum local = 7.78072e-09, global = 2.21219e-22, cumulative = -2.17029e-21
[INFO] ContinuityError: 112.243 [ms]
[INFO] CorrectBoundary: 2.146 [ms]
[INFO] PISOStep: 124187 [ms]
[INFO] MatrixAssemblyPI: 794.172 [ms]
[INFO] AdjustPhi: 46.093 [ms]
[INFO] ConstrainPressure: 0.004 [ms]
[INFO] MatrixAssemblyPII: 237.167 [ms]
DICPCG:  Solving for p, Initial residual = 0.857008, Final residual = 9.53811e-05, No Iterations 652
[INFO] SolveP: 119955 [ms]
time step continuity errors : sum local = 7.03251e-09, global = 3.33302e-22, cumulative = -1.83699e-21
[INFO] ContinuityError: 111.864 [ms]
[INFO] CorrectBoundary: 1.926 [ms]
[INFO] PISOStep: 121406 [ms]
[INFO] TimeStep: 253342 [ms]
ExecutionTime = 739.82 s  ClockTime = 743 s

Time = 0.000375

Courant Number mean: 0.016989 max: 0.51133
[INFO] MatrixAssemblyU: 616.841 [ms]
DILUPBiCGStab:  Solving for Ux, Initial residual = 0.0536618, Final residual = 0.00523281, No Iterations 5
DILUPBiCGStab:  Solving for Uy, Initial residual = 0.262303, Final residual = 0.0257592, No Iterations 5
DILUPBiCGStab:  Solving for Uz, Initial residual = 0.87741, Final residual = 0.0886652, No Iterations 5
[INFO] MomentumPredictor: 7013.14 [ms]
[INFO] MatrixAssemblyPI: 804.247 [ms]
[INFO] AdjustPhi: 44.493 [ms]
[INFO] ConstrainPressure: 0.004 [ms]
[INFO] MatrixAssemblyPII: 230.24 [ms]
DICPCG:  Solving for p, Initial residual = 0.94056, Final residual = 9.65537e-05, No Iterations 1195
[INFO] SolveP: 220112 [ms]
time step continuity errors : sum local = 8.52127e-09, global = 4.34092e-22, cumulative = -1.4029e-21
[INFO] ContinuityError: 113.414 [ms]
[INFO] CorrectBoundary: 1.934 [ms]
[INFO] PISOStep: 221564 [ms]
[INFO] MatrixAssemblyPI: 786.354 [ms]
[INFO] AdjustPhi: 47.435 [ms]
[INFO] ConstrainPressure: 0.004 [ms]
[INFO] MatrixAssemblyPII: 236.683 [ms]
DICPCG:  Solving for p, Initial residual = 0.908693, Final residual = 9.86396e-05, No Iterations 1194
[INFO] SolveP: 220296 [ms]
time step continuity errors : sum local = 8.6396e-09, global = -7.73091e-23, cumulative = -1.4802e-21
[INFO] ContinuityError: 125.819 [ms]
[INFO] CorrectBoundary: 1.653 [ms]
[INFO] PISOStep: 221752 [ms]
[INFO] TimeStep: 451050 [ms]
ExecutionTime = 1188.66 s  ClockTime = 1194 s

Time = 0.0005

Courant Number mean: 0.0206061 max: 0.477587
[INFO] MatrixAssemblyU: 615.533 [ms]
DILUPBiCGStab:  Solving for Ux, Initial residual = 0.0416598, Final residual = 0.0048736, No Iterations 5
DILUPBiCGStab:  Solving for Uy, Initial residual = 0.214156, Final residual = 0.0231862, No Iterations 5
DILUPBiCGStab:  Solving for Uz, Initial residual = 0.78045, Final residual = 0.0631436, No Iterations 5
[INFO] MomentumPredictor: 7022.45 [ms]
[INFO] MatrixAssemblyPI: 801.392 [ms]
[INFO] AdjustPhi: 50.7 [ms]
[INFO] ConstrainPressure: 0.004 [ms]
[INFO] MatrixAssemblyPII: 231.724 [ms]
DICPCG:  Solving for p, Initial residual = 0.936985, Final residual = 9.88277e-05, No Iterations 1191
[INFO] SolveP: 220062 [ms]
time step continuity errors : sum local = 1.06144e-08, global = 4.53915e-23, cumulative = -1.43481e-21
[INFO] ContinuityError: 118.646 [ms]
[INFO] CorrectBoundary: 1.302 [ms]
[INFO] PISOStep: 221525 [ms]
[INFO] MatrixAssemblyPI: 790.686 [ms]
[INFO] AdjustPhi: 44.344 [ms]
[INFO] ConstrainPressure: 0.004 [ms]
[INFO] MatrixAssemblyPII: 237.447 [ms]
DICPCG:  Solving for p, Initial residual = 0.879612, Final residual = 9.9759e-05, No Iterations 567
[INFO] SolveP: 104554 [ms]
time step continuity errors : sum local = 1.27336e-08, global = 4.19484e-22, cumulative = -1.01533e-21
[INFO] ContinuityError: 118.112 [ms]
[INFO] CorrectBoundary: 1.46 [ms]
[INFO] PISOStep: 106003 [ms]
[INFO] TimeStep: 335271 [ms]
ExecutionTime = 1522.34 s  ClockTime = 1529 s

Time = 0.000625

Courant Number mean: 0.023694 max: 0.555598
[INFO] MatrixAssemblyU: 622.729 [ms]
DILUPBiCGStab:  Solving for Ux, Initial residual = 0.0374566, Final residual = 0.00435478, No Iterations 5
DILUPBiCGStab:  Solving for Uy, Initial residual = 0.186158, Final residual = 0.0193366, No Iterations 5
DILUPBiCGStab:  Solving for Uz, Initial residual = 0.765037, Final residual = 0.0621766, No Iterations 5
[INFO] MomentumPredictor: 7014.37 [ms]
[INFO] MatrixAssemblyPI: 803.912 [ms]
[INFO] AdjustPhi: 51.631 [ms]
[INFO] ConstrainPressure: 0.003 [ms]
[INFO] MatrixAssemblyPII: 231.261 [ms]
DICPCG:  Solving for p, Initial residual = 0.953553, Final residual = 9.8944e-05, No Iterations 1196
[INFO] SolveP: 220460 [ms]
time step continuity errors : sum local = 1.22484e-08, global = 1.33924e-21, cumulative = 3.23915e-22
[INFO] ContinuityError: 118.892 [ms]
[INFO] CorrectBoundary: 1.797 [ms]
[INFO] PISOStep: 221925 [ms]
[INFO] MatrixAssemblyPI: 787.792 [ms]
[INFO] AdjustPhi: 53.906 [ms]
[INFO] ConstrainPressure: 0.004 [ms]
[INFO] MatrixAssemblyPII: 231.126 [ms]
DICPCG:  Solving for p, Initial residual = 0.91487, Final residual = 9.85498e-05, No Iterations 1195
[INFO] SolveP: 220889 [ms]
time step continuity errors : sum local = 1.21309e-08, global = 4.12112e-23, cumulative = 3.65126e-22
[INFO] ContinuityError: 111.967 [ms]
[INFO] CorrectBoundary: 1.429 [ms]
[INFO] PISOStep: 222340 [ms]
[INFO] TimeStep: 452006 [ms]
ExecutionTime = 1972.22 s  ClockTime = 1981 s

Time = 0.00075

Courant Number mean: 0.0260463 max: 0.483398
[INFO] MatrixAssemblyU: 614.562 [ms]
DILUPBiCGStab:  Solving for Ux, Initial residual = 0.0355399, Final residual = 0.00413095, No Iterations 5
DILUPBiCGStab:  Solving for Uy, Initial residual = 0.172124, Final residual = 0.0160969, No Iterations 5
DILUPBiCGStab:  Solving for Uz, Initial residual = 0.699953, Final residual = 0.0463961, No Iterations 5
[INFO] MomentumPredictor: 7032.88 [ms]
[INFO] MatrixAssemblyPI: 803.739 [ms]
[INFO] AdjustPhi: 47.115 [ms]
[INFO] ConstrainPressure: 0.004 [ms]
[INFO] MatrixAssemblyPII: 230.43 [ms]
DICPCG:  Solving for p, Initial residual = 0.950503, Final residual = 9.8195e-05, No Iterations 1192
[INFO] SolveP: 220284 [ms]
time step continuity errors : sum local = 1.4035e-08, global = -1.74651e-22, cumulative = 1.90474e-22
[INFO] ContinuityError: 111.449 [ms]
[INFO] CorrectBoundary: 1.31 [ms]
[INFO] PISOStep: 221739 [ms]
[INFO] MatrixAssemblyPI: 787.928 [ms]
[INFO] AdjustPhi: 47.2 [ms]
[INFO] ConstrainPressure: 0.004 [ms]
[INFO] MatrixAssemblyPII: 232.156 [ms]
DICPCG:  Solving for p, Initial residual = 0.890652, Final residual = 9.82308e-05, No Iterations 1191
[INFO] SolveP: 220338 [ms]
time step continuity errors : sum local = 1.42671e-08, global = 9.27224e-22, cumulative = 1.1177e-21
[INFO] ContinuityError: 112.139 [ms]
[INFO] CorrectBoundary: 1.496 [ms]
[INFO] PISOStep: 221783 [ms]
[INFO] TimeStep: 451275 [ms]
ExecutionTime = 2421.33 s  ClockTime = 2433 s

Time = 0.000875

Courant Number mean: 0.0282662 max: 0.61148
[INFO] MatrixAssemblyU: 616.132 [ms]
DILUPBiCGStab:  Solving for Ux, Initial residual = 0.0351875, Final residual = 0.00389411, No Iterations 5
DILUPBiCGStab:  Solving for Uy, Initial residual = 0.177061, Final residual = 0.015391, No Iterations 5
DILUPBiCGStab:  Solving for Uz, Initial residual = 0.695, Final residual = 0.0409852, No Iterations 5
[INFO] MomentumPredictor: 7027.69 [ms]
[INFO] MatrixAssemblyPI: 801.265 [ms]
[INFO] AdjustPhi: 48.915 [ms]
[INFO] ConstrainPressure: 0.004 [ms]
[INFO] MatrixAssemblyPII: 230.609 [ms]
DICPCG:  Solving for p, Initial residual = 0.961501, Final residual = 9.94958e-05, No Iterations 1185
[INFO] SolveP: 218232 [ms]
time step continuity errors : sum local = 1.61132e-08, global = 4.80437e-22, cumulative = 1.59814e-21
[INFO] ContinuityError: 118.162 [ms]
[INFO] CorrectBoundary: 2.284 [ms]
[INFO] PISOStep: 219693 [ms]
[INFO] MatrixAssemblyPI: 794.155 [ms]
[INFO] AdjustPhi: 45.841 [ms]
[INFO] ConstrainPressure: 0.003 [ms]
[INFO] MatrixAssemblyPII: 230.595 [ms]
DICPCG:  Solving for p, Initial residual = 0.917326, Final residual = 9.92821e-05, No Iterations 1182
[INFO] SolveP: 217503 [ms]
time step continuity errors : sum local = 1.60255e-08, global = -2.57835e-22, cumulative = 1.3403e-21
[INFO] ContinuityError: 119.261 [ms]
[INFO] CorrectBoundary: 3.034 [ms]
[INFO] PISOStep: 218962 [ms]
[INFO] TimeStep: 446403 [ms]
ExecutionTime = 2865.61 s  ClockTime = 2879 s

Time = 0.001

Courant Number mean: 0.0300314 max: 0.491004
[INFO] MatrixAssemblyU: 620.203 [ms]
DILUPBiCGStab:  Solving for Ux, Initial residual = 0.036352, Final residual = 0.00375391, No Iterations 5
DILUPBiCGStab:  Solving for Uy, Initial residual = 0.170722, Final residual = 0.0132649, No Iterations 5
DILUPBiCGStab:  Solving for Uz, Initial residual = 0.681744, Final residual = 0.0388913, No Iterations 5
[INFO] MomentumPredictor: 7012.46 [ms]
[INFO] MatrixAssemblyPI: 807.428 [ms]
[INFO] AdjustPhi: 48.445 [ms]
[INFO] ConstrainPressure: 0.003 [ms]
[INFO] MatrixAssemblyPII: 231.525 [ms]
DICPCG:  Solving for p, Initial residual = 0.959419, Final residual = 9.9593e-05, No Iterations 1179
[INFO] SolveP: 217272 [ms]
time step continuity errors : sum local = 1.85709e-08, global = -6.1171e-22, cumulative = 7.28591e-22
[INFO] ContinuityError: 111.029 [ms]
[INFO] CorrectBoundary: 2.501 [ms]
[INFO] PISOStep: 218731 [ms]
[INFO] MatrixAssemblyPI: 787.461 [ms]
[INFO] AdjustPhi: 45.532 [ms]
[INFO] ConstrainPressure: 0.003 [ms]
[INFO] MatrixAssemblyPII: 231.734 [ms]
DICPCG:  Solving for p, Initial residual = 0.897645, Final residual = 9.91167e-05, No Iterations 1175
[INFO] SolveP: 217644 [ms]
time step continuity errors : sum local = 1.87617e-08, global = 1.19588e-21, cumulative = 1.92447e-21
[INFO] ContinuityError: 118.973 [ms]
[INFO] CorrectBoundary: 3.3 [ms]
[INFO] PISOStep: 219096 [ms]
[INFO] TimeStep: 445563 [ms]
ExecutionTime = 3309.04 s  ClockTime = 3325 s

Time = 0.001125

Courant Number mean: 0.0318595 max: 0.695105
[INFO] MatrixAssemblyU: 611.965 [ms]
DILUPBiCGStab:  Solving for Ux, Initial residual = 0.037646, Final residual = 0.00355158, No Iterations 5
DILUPBiCGStab:  Solving for Uy, Initial residual = 0.187874, Final residual = 0.0137372, No Iterations 5
DILUPBiCGStab:  Solving for Uz, Initial residual = 0.696808, Final residual = 0.0368734, No Iterations 5
[INFO] MomentumPredictor: 7020.92 [ms]
[INFO] MatrixAssemblyPI: 803.361 [ms]
[INFO] AdjustPhi: 47.345 [ms]
[INFO] ConstrainPressure: 0.004 [ms]
[INFO] MatrixAssemblyPII: 231.62 [ms]
DICPCG:  Solving for p, Initial residual = 0.967471, Final residual = 9.98319e-05, No Iterations 1155
[INFO] SolveP: 213004 [ms]
time step continuity errors : sum local = 2.13886e-08, global = 9.99984e-23, cumulative = 2.02447e-21
[INFO] ContinuityError: 110.804 [ms]
[INFO] CorrectBoundary: 2.874 [ms]
[INFO] PISOStep: 214459 [ms]
[INFO] MatrixAssemblyPI: 787.131 [ms]
[INFO] AdjustPhi: 46.783 [ms]
[INFO] ConstrainPressure: 0.003 [ms]
[INFO] MatrixAssemblyPII: 231.074 [ms]
DICPCG:  Solving for p, Initial residual = 0.918479, Final residual = 9.82756e-05, No Iterations 1153
[INFO] SolveP: 213424 [ms]
time step continuity errors : sum local = 2.10351e-08, global = 2.18815e-22, cumulative = 2.24328e-21
[INFO] ContinuityError: 123.611 [ms]
[INFO] CorrectBoundary: 3.677 [ms]
[INFO] PISOStep: 214882 [ms]
[INFO] TimeStep: 437078 [ms]
ExecutionTime = 3744.06 s  ClockTime = 3762 s

Time = 0.00125

Courant Number mean: 0.0332875 max: 0.50706
[INFO] MatrixAssemblyU: 613.128 [ms]
DILUPBiCGStab:  Solving for Ux, Initial residual = 0.0411431, Final residual = 0.00361869, No Iterations 5
DILUPBiCGStab:  Solving for Uy, Initial residual = 0.186845, Final residual = 0.0121269, No Iterations 5
DILUPBiCGStab:  Solving for Uz, Initial residual = 0.694563, Final residual = 0.0360952, No Iterations 5
[INFO] MomentumPredictor: 7035.27 [ms]
[INFO] MatrixAssemblyPI: 802.939 [ms]
[INFO] AdjustPhi: 46.377 [ms]
[INFO] ConstrainPressure: 0.004 [ms]
[INFO] MatrixAssemblyPII: 231.809 [ms]
DICPCG:  Solving for p, Initial residual = 0.966843, Final residual = 9.7515e-05, No Iterations 1149
[INFO] SolveP: 213148 [ms]
time step continuity errors : sum local = 2.43791e-08, global = -2.92292e-23, cumulative = 2.21406e-21
[INFO] ContinuityError: 119.193 [ms]
[INFO] CorrectBoundary: 1.442 [ms]
[INFO] PISOStep: 214609 [ms]
[INFO] MatrixAssemblyPI: 784.771 [ms]
[INFO] AdjustPhi: 52.576 [ms]
[INFO] ConstrainPressure: 0.004 [ms]
[INFO] MatrixAssemblyPII: 231.728 [ms]
DICPCG:  Solving for p, Initial residual = 0.903482, Final residual = 9.82287e-05, No Iterations 1147
[INFO] SolveP: 211381 [ms]
time step continuity errors : sum local = 2.48962e-08, global = -1.06112e-23, cumulative = 2.20344e-21
[INFO] ContinuityError: 113.364 [ms]
[INFO] CorrectBoundary: 1.655 [ms]
[INFO] PISOStep: 212830 [ms]
[INFO] TimeStep: 435191 [ms]
ExecutionTime = 4177.15 s  ClockTime = 4197 s

Time = 0.001375

Courant Number mean: 0.0349099 max: 0.826006
[INFO] MatrixAssemblyU: 611.617 [ms]
DILUPBiCGStab:  Solving for Ux, Initial residual = 0.0439854, Final residual = 0.0034653, No Iterations 5
DILUPBiCGStab:  Solving for Uy, Initial residual = 0.211083, Final residual = 0.0131747, No Iterations 5
DILUPBiCGStab:  Solving for Uz, Initial residual = 0.713434, Final residual = 0.0357038, No Iterations 5
[INFO] MomentumPredictor: 7039.02 [ms]
[INFO] MatrixAssemblyPI: 804.144 [ms]
[INFO] AdjustPhi: 46.291 [ms]
[INFO] ConstrainPressure: 0.003 [ms]
[INFO] MatrixAssemblyPII: 229.882 [ms]
DICPCG:  Solving for p, Initial residual = 0.972437, Final residual = 9.6854e-05, No Iterations 1100
[INFO] SolveP: 203385 [ms]
time step continuity errors : sum local = 2.81673e-08, global = 5.28879e-23, cumulative = 2.25633e-21
[INFO] ContinuityError: 126.228 [ms]
[INFO] CorrectBoundary: 2.54 [ms]
[INFO] PISOStep: 204853 [ms]
[INFO] MatrixAssemblyPI: 788.734 [ms]
[INFO] AdjustPhi: 45.692 [ms]
[INFO] ConstrainPressure: 0.003 [ms]
[INFO] MatrixAssemblyPII: 238.065 [ms]
DICPCG:  Solving for p, Initial residual = 0.919482, Final residual = 9.71398e-05, No Iterations 1100
[INFO] SolveP: 203622 [ms]
time step continuity errors : sum local = 2.82813e-08, global = 2.465e-22, cumulative = 2.50283e-21
[INFO] ContinuityError: 119.095 [ms]
[INFO] CorrectBoundary: 3.196 [ms]
[INFO] PISOStep: 205073 [ms]
[INFO] TimeStep: 417680 [ms]
ExecutionTime = 4592.88 s  ClockTime = 4615 s

Time = 0.0015

Courant Number mean: 0.0361199 max: 0.598592
[INFO] MatrixAssemblyU: 614.193 [ms]
DILUPBiCGStab:  Solving for Ux, Initial residual = 0.0496284, Final residual = 0.0036655, No Iterations 5
DILUPBiCGStab:  Solving for Uy, Initial residual = 0.215893, Final residual = 0.0121436, No Iterations 5
DILUPBiCGStab:  Solving for Uz, Initial residual = 0.71302, Final residual = 0.0346684, No Iterations 5
[INFO] MomentumPredictor: 7030.73 [ms]
[INFO] MatrixAssemblyPI: 806.783 [ms]
[INFO] AdjustPhi: 48.557 [ms]
[INFO] ConstrainPressure: 0.003 [ms]
[INFO] MatrixAssemblyPII: 230.487 [ms]
DICPCG:  Solving for p, Initial residual = 0.972693, Final residual = 9.93543e-05, No Iterations 1154
[INFO] SolveP: 212753 [ms]
time step continuity errors : sum local = 3.39446e-08, global = 5.25156e-22, cumulative = 3.02799e-21
[INFO] ContinuityError: 113.186 [ms]
[INFO] CorrectBoundary: 2.675 [ms]
[INFO] PISOStep: 214213 [ms]
[INFO] MatrixAssemblyPI: 791.924 [ms]
[INFO] AdjustPhi: 48.371 [ms]
[INFO] ConstrainPressure: 0.003 [ms]
[INFO] MatrixAssemblyPII: 231.294 [ms]
DICPCG:  Solving for p, Initial residual = 0.908559, Final residual = 9.78945e-05, No Iterations 1152
[INFO] SolveP: 213185 [ms]
time step continuity errors : sum local = 3.38663e-08, global = 2.22693e-22, cumulative = 3.25068e-21
[INFO] ContinuityError: 119.455 [ms]
[INFO] CorrectBoundary: 1.929 [ms]
[INFO] PISOStep: 214636 [ms]
[INFO] TimeStep: 436605 [ms]
ExecutionTime = 5027.45 s  ClockTime = 5051 s

Time = 0.001625

Courant Number mean: 0.0376392 max: 1.14474
[INFO] MatrixAssemblyU: 609.604 [ms]
DILUPBiCGStab:  Solving for Ux, Initial residual = 0.0544597, Final residual = 0.00362864, No Iterations 5
DILUPBiCGStab:  Solving for Uy, Initial residual = 0.244746, Final residual = 0.0133381, No Iterations 5
DILUPBiCGStab:  Solving for Uz, Initial residual = 0.729622, Final residual = 0.0345915, No Iterations 5
[INFO] MomentumPredictor: 7032.44 [ms]
[INFO] MatrixAssemblyPI: 804.883 [ms]
[INFO] AdjustPhi: 45.154 [ms]
[INFO] ConstrainPressure: 0.004 [ms]
[INFO] MatrixAssemblyPII: 230.034 [ms]
DICPCG:  Solving for p, Initial residual = 0.976361, Final residual = 9.57846e-05, No Iterations 1156
[INFO] SolveP: 213342 [ms]
time step continuity errors : sum local = 3.84492e-08, global = 3.00111e-22, cumulative = 3.55079e-21
[INFO] ContinuityError: 120.413 [ms]
[INFO] CorrectBoundary: 2.407 [ms]
[INFO] PISOStep: 214802 [ms]
[INFO] MatrixAssemblyPI: 793.382 [ms]
[INFO] AdjustPhi: 51.031 [ms]
[INFO] ConstrainPressure: 0.004 [ms]
[INFO] MatrixAssemblyPII: 229.938 [ms]
DICPCG:  Solving for p, Initial residual = 0.920213, Final residual = 9.78634e-05, No Iterations 1154
[INFO] SolveP: 213037 [ms]
time step continuity errors : sum local = 3.93987e-08, global = 8.43052e-22, cumulative = 4.39384e-21
[INFO] ContinuityError: 124.875 [ms]
[INFO] CorrectBoundary: 2.056 [ms]
[INFO] PISOStep: 214496 [ms]
[INFO] TimeStep: 437051 [ms]
ExecutionTime = 5462.52 s  ClockTime = 5488 s

Time = 0.00175

Courant Number mean: 0.0387099 max: 1.02175
[INFO] MatrixAssemblyU: 610.013 [ms]
DILUPBiCGStab:  Solving for Ux, Initial residual = 0.0627761, Final residual = 0.00393337, No Iterations 5
DILUPBiCGStab:  Solving for Uy, Initial residual = 0.255712, Final residual = 0.0128209, No Iterations 5
DILUPBiCGStab:  Solving for Uz, Initial residual = 0.729351, Final residual = 0.034208, No Iterations 5
[INFO] MomentumPredictor: 7020.95 [ms]
[INFO] MatrixAssemblyPI: 800.123 [ms]
[INFO] AdjustPhi: 48.338 [ms]
[INFO] ConstrainPressure: 0.004 [ms]
[INFO] MatrixAssemblyPII: 229.901 [ms]
DICPCG:  Solving for p, Initial residual = 0.977006, Final residual = 9.97134e-05, No Iterations 1105
[INFO] SolveP: 202919 [ms]
time step continuity errors : sum local = 4.7309e-08, global = -3.07197e-21, cumulative = 1.32188e-21
[INFO] ContinuityError: 112.995 [ms]
[INFO] CorrectBoundary: 2.456 [ms]
[INFO] PISOStep: 204371 [ms]
[INFO] MatrixAssemblyPI: 787.94 [ms]
[INFO] AdjustPhi: 50.477 [ms]
[INFO] ConstrainPressure: 0.004 [ms]
[INFO] MatrixAssemblyPII: 230.89 [ms]
DICPCG:  Solving for p, Initial residual = 0.91263, Final residual = 9.96172e-05, No Iterations 1104
[INFO] SolveP: 204195 [ms]
time step continuity errors : sum local = 4.78081e-08, global = 2.10109e-21, cumulative = 3.42297e-21
[INFO] ContinuityError: 119.766 [ms]
[INFO] CorrectBoundary: 1.32 [ms]
[INFO] PISOStep: 205648 [ms]
[INFO] TimeStep: 417761 [ms]
ExecutionTime = 5878.39 s  ClockTime = 5906 s

Time = 0.001875

Courant Number mean: 0.0402031 max: 1.68542
[INFO] MatrixAssemblyU: 611.36 [ms]
DILUPBiCGStab:  Solving for Ux, Initial residual = 0.0700106, Final residual = 0.00402559, No Iterations 5
DILUPBiCGStab:  Solving for Uy, Initial residual = 0.288847, Final residual = 0.0142477, No Iterations 5
DILUPBiCGStab:  Solving for Uz, Initial residual = 0.742609, Final residual = 0.0350492, No Iterations 5
[INFO] MomentumPredictor: 7045.77 [ms]
[INFO] MatrixAssemblyPI: 802.265 [ms]
[INFO] AdjustPhi: 46.215 [ms]
[INFO] ConstrainPressure: 0.003 [ms]
[INFO] MatrixAssemblyPII: 230.486 [ms]
DICPCG:  Solving for p, Initial residual = 0.97916, Final residual = 9.95939e-05, No Iterations 1152
[INFO] SolveP: 212423 [ms]
time step continuity errors : sum local = 5.58659e-08, global = 3.23376e-21, cumulative = 6.65673e-21
[INFO] ContinuityError: 119.856 [ms]
[INFO] CorrectBoundary: 2.949 [ms]
[INFO] PISOStep: 213884 [ms]
[INFO] MatrixAssemblyPI: 796.5 [ms]
[INFO] AdjustPhi: 51.388 [ms]
[INFO] ConstrainPressure: 0.004 [ms]
[INFO] MatrixAssemblyPII: 231.358 [ms]
DICPCG:  Solving for p, Initial residual = 0.920659, Final residual = 9.89151e-05, No Iterations 1152
[INFO] SolveP: 212767 [ms]
time step continuity errors : sum local = 5.57347e-08, global = 6.06117e-22, cumulative = 7.26284e-21
[INFO] ContinuityError: 113.543 [ms]
[INFO] CorrectBoundary: 1.784 [ms]
[INFO] PISOStep: 214225 [ms]
[INFO] TimeStep: 435872 [ms]
ExecutionTime = 6312.26 s  ClockTime = 6342 s

Time = 0.002

Courant Number mean: 0.0412089 max: 1.72736
[INFO] MatrixAssemblyU: 611.045 [ms]
DILUPBiCGStab:  Solving for Ux, Initial residual = 0.0819231, Final residual = 0.00444473, No Iterations 5
DILUPBiCGStab:  Solving for Uy, Initial residual = 0.306126, Final residual = 0.0141009, No Iterations 5
DILUPBiCGStab:  Solving for Uz, Initial residual = 0.741885, Final residual = 0.0336245, No Iterations 5
[INFO] MomentumPredictor: 7093.27 [ms]
[INFO] MatrixAssemblyPI: 806.979 [ms]
[INFO] AdjustPhi: 49.281 [ms]
[INFO] ConstrainPressure: 0.003 [ms]
[INFO] MatrixAssemblyPII: 229.843 [ms]
DICPCG:  Solving for p, Initial residual = 0.980281, Final residual = 9.96615e-05, No Iterations 1152
[INFO] SolveP: 212109 [ms]
time step continuity errors : sum local = 6.63857e-08, global = 7.49177e-21, cumulative = 1.47546e-20
[INFO] ContinuityError: 112.402 [ms]
[INFO] CorrectBoundary: 1.846 [ms]
[INFO] PISOStep: 213569 [ms]
[INFO] MatrixAssemblyPI: 792.316 [ms]
[INFO] AdjustPhi: 49.47 [ms]
[INFO] ConstrainPressure: 0.004 [ms]
[INFO] MatrixAssemblyPII: 230.587 [ms]
DICPCG:  Solving for p, Initial residual = 0.915619, Final residual = 9.68137e-05, No Iterations 1152
[INFO] SolveP: 212610 [ms]
time step continuity errors : sum local = 6.51802e-08, global = 9.60822e-22, cumulative = 1.57154e-20
[INFO] ContinuityError: 112.191 [ms]
[INFO] CorrectBoundary: 2.349 [ms]
[INFO] PISOStep: 214059 [ms]
[INFO] TimeStep: 435443 [ms]
ExecutionTime = 6745.73 s  ClockTime = 6777 s

Time = 0.002125

Courant Number mean: 0.0427471 max: 2.56785
[INFO] MatrixAssemblyU: 611.293 [ms]
DILUPBiCGStab:  Solving for Ux, Initial residual = 0.0923255, Final residual = 0.00471326, No Iterations 5
DILUPBiCGStab:  Solving for Uy, Initial residual = 0.342112, Final residual = 0.0155306, No Iterations 5
DILUPBiCGStab:  Solving for Uz, Initial residual = 0.752523, Final residual = 0.0340418, No Iterations 5
[INFO] MomentumPredictor: 7020.89 [ms]
[INFO] MatrixAssemblyPI: 800.131 [ms]
[INFO] AdjustPhi: 50.347 [ms]
[INFO] ConstrainPressure: 0.004 [ms]
[INFO] MatrixAssemblyPII: 230.661 [ms]
DICPCG:  Solving for p, Initial residual = 0.981324, Final residual = 9.71045e-05, No Iterations 1098
[INFO] SolveP: 202219 [ms]
time step continuity errors : sum local = 7.71507e-08, global = 9.52576e-22, cumulative = 1.6668e-20
[INFO] ContinuityError: 126.738 [ms]
[INFO] CorrectBoundary: 2.388 [ms]
[INFO] PISOStep: 203692 [ms]
[INFO] MatrixAssemblyPI: 790.421 [ms]
[INFO] AdjustPhi: 52.164 [ms]
[INFO] ConstrainPressure: 0.004 [ms]
[INFO] MatrixAssemblyPII: 231.236 [ms]
DICPCG:  Solving for p, Initial residual = 0.920661, Final residual = 9.82996e-05, No Iterations 1096
[INFO] SolveP: 202337 [ms]
time step continuity errors : sum local = 7.85655e-08, global = -2.38952e-22, cumulative = 1.64291e-20
[INFO] ContinuityError: 128.202 [ms]
[INFO] CorrectBoundary: 2.739 [ms]
[INFO] PISOStep: 203801 [ms]
[INFO] TimeStep: 415235 [ms]
ExecutionTime = 7159.05 s  ClockTime = 7193 s

Time = 0.00225

Courant Number mean: 0.0437719 max: 2.88713
[INFO] MatrixAssemblyU: 611.701 [ms]
DILUPBiCGStab:  Solving for Ux, Initial residual = 0.109443, Final residual = 0.00532357, No Iterations 5
DILUPBiCGStab:  Solving for Uy, Initial residual = 0.365662, Final residual = 0.0157924, No Iterations 5
DILUPBiCGStab:  Solving for Uz, Initial residual = 0.750859, Final residual = 0.032724, No Iterations 5
[INFO] MomentumPredictor: 7020.45 [ms]
[INFO] MatrixAssemblyPI: 803.389 [ms]
[INFO] AdjustPhi: 49.955 [ms]
[INFO] ConstrainPressure: 0.004 [ms]
[INFO] MatrixAssemblyPII: 230.237 [ms]
DICPCG:  Solving for p, Initial residual = 0.982562, Final residual = 9.66138e-05, No Iterations 1152
[INFO] SolveP: 211963 [ms]
time step continuity errors : sum local = 9.18211e-08, global = 7.19906e-22, cumulative = 1.7149e-20
[INFO] ContinuityError: 118.319 [ms]
[INFO] CorrectBoundary: 2.278 [ms]
[INFO] PISOStep: 213426 [ms]
[INFO] MatrixAssemblyPI: 793.423 [ms]
[INFO] AdjustPhi: 54.162 [ms]
[INFO] ConstrainPressure: 0.003 [ms]
[INFO] MatrixAssemblyPII: 230.933 [ms]
DICPCG:  Solving for p, Initial residual = 0.917692, Final residual = 9.72562e-05, No Iterations 1151
[INFO] SolveP: 212996 [ms]
time step continuity errors : sum local = 9.33787e-08, global = 8.25836e-22, cumulative = 1.79748e-20
[INFO] ContinuityError: 119.297 [ms]
[INFO] CorrectBoundary: 3.509 [ms]
[INFO] PISOStep: 214456 [ms]
[INFO] TimeStep: 435626 [ms]
ExecutionTime = 7592.65 s  ClockTime = 7628 s

Time = 0.002375

Courant Number mean: 0.0454444 max: 4.00971
[INFO] MatrixAssemblyU: 609.986 [ms]
DILUPBiCGStab:  Solving for Ux, Initial residual = 0.123901, Final residual = 0.0057796, No Iterations 5
DILUPBiCGStab:  Solving for Uy, Initial residual = 0.402896, Final residual = 0.0172854, No Iterations 5
DILUPBiCGStab:  Solving for Uz, Initial residual = 0.757294, Final residual = 0.0335555, No Iterations 5
[INFO] MomentumPredictor: 7054.48 [ms]
[INFO] MatrixAssemblyPI: 803.92 [ms]
[INFO] AdjustPhi: 50.207 [ms]
[INFO] ConstrainPressure: 0.003 [ms]
[INFO] MatrixAssemblyPII: 230.142 [ms]
DICPCG:  Solving for p, Initial residual = 0.982997, Final residual = 9.86569e-05, No Iterations 1100
[INFO] SolveP: 203030 [ms]
time step continuity errors : sum local = 1.1272e-07, global = 2.19051e-20, cumulative = 3.98799e-20
[INFO] ContinuityError: 126.696 [ms]
[INFO] CorrectBoundary: 2.797 [ms]
[INFO] PISOStep: 204500 [ms]
[INFO] MatrixAssemblyPI: 793.505 [ms]
[INFO] AdjustPhi: 50.854 [ms]
[INFO] ConstrainPressure: 0.003 [ms]
[INFO] MatrixAssemblyPII: 230.572 [ms]
DICPCG:  Solving for p, Initial residual = 0.920864, Final residual = 9.5847e-05, No Iterations 1100
[INFO] SolveP: 202731 [ms]
time step continuity errors : sum local = 1.10288e-07, global = 9.56479e-22, cumulative = 4.08363e-20
[INFO] ContinuityError: 125.372 [ms]
[INFO] CorrectBoundary: 3.63 [ms]
[INFO] PISOStep: 204194 [ms]
[INFO] TimeStep: 416469 [ms]
ExecutionTime = 8007.19 s  ClockTime = 8045 s

Time = 0.0025

Courant Number mean: 0.0466066 max: 4.7771
[INFO] MatrixAssemblyU: 609.872 [ms]
DILUPBiCGStab:  Solving for Ux, Initial residual = 0.14805, Final residual = 0.00666474, No Iterations 5
DILUPBiCGStab:  Solving for Uy, Initial residual = 0.431002, Final residual = 0.0178687, No Iterations 5
DILUPBiCGStab:  Solving for Uz, Initial residual = 0.756288, Final residual = 0.0327154, No Iterations 5
[INFO] MomentumPredictor: 7042.64 [ms]
[INFO] MatrixAssemblyPI: 802.683 [ms]
[INFO] AdjustPhi: 47.966 [ms]
[INFO] ConstrainPressure: 0.004 [ms]
[INFO] MatrixAssemblyPII: 229.725 [ms]
DICPCG:  Solving for p, Initial residual = 0.9839, Final residual = 9.87992e-05, No Iterations 1157
[INFO] SolveP: 212844 [ms]
time step continuity errors : sum local = 1.36042e-07, global = -4.77769e-21, cumulative = 3.60587e-20
[INFO] ContinuityError: 112.882 [ms]
[INFO] CorrectBoundary: 2.134 [ms]
[INFO] PISOStep: 214299 [ms]
[INFO] MatrixAssemblyPI: 789.699 [ms]
[INFO] AdjustPhi: 51.645 [ms]
[INFO] ConstrainPressure: 0.003 [ms]
[INFO] MatrixAssemblyPII: 232.562 [ms]
DICPCG:  Solving for p, Initial residual = 0.919022, Final residual = 9.65633e-05, No Iterations 1156
[INFO] SolveP: 213542 [ms]
time step continuity errors : sum local = 1.343e-07, global = 4.82453e-22, cumulative = 3.65411e-20
[INFO] ContinuityError: 124.831 [ms]
[INFO] CorrectBoundary: 1.92 [ms]
[INFO] PISOStep: 215004 [ms]
[INFO] TimeStep: 437067 [ms]
ExecutionTime = 8442.28 s  ClockTime = 8482 s

End

Finalising parallel run
