/*---------------------------------------------------------------------------*\
| =========                 |                                                 |
| \\      /  F ield         | OpenFOAM: The Open Source CFD Toolbox           |
|  \\    /   O peration     | Version:  v2106                                 |
|   \\  /    A nd           | Website:  www.openfoam.com                      |
|    \\/     M anipulation  |                                                 |
\*---------------------------------------------------------------------------*/
Build  : f815a12bba-20210902 OPENFOAM=2106
Arch   : "LSB;label=32;scalar=64"
Exec   : icoFoam -parallel -case /home/greole/data/code/exasim_project/micro_benchmarks/LidDrivenCavity3D/workspace/d044839e9d2e8a6202ef59585e1c39d8/case
Date   : Jun 27 2023
Time   : 01:02:05
Host   : nla-gpu2.ianm.kit.edu
PID    : 207337
I/O    : uncollated
Case   : /home/greole/data/code/exasim_project/micro_benchmarks/LidDrivenCavity3D/workspace/d044839e9d2e8a6202ef59585e1c39d8/case
nProcs : 8
Hosts  :
(
    (nla-gpu2.ianm.kit.edu 8)
)
Pstream initialized with:
    floatTransfer      : 0
    nProcsSimpleSum    : 0
    commsType          : nonBlocking
    polling iterations : 0
trapFpe: Floating point exception trapping enabled (FOAM_SIGFPE).
fileModificationChecking : Monitoring run-time modified files using timeStampMaster (fileModificationSkew 5, maxFileModificationPolls 20)
allowSystemOperations : Allowing user-supplied system call operations

// * * * * * * * * * * * * * * * * * * * * * * * * * * * * * * * * * * * * * //
Create time

--> FOAM Warning : 
    From void* Foam::dlLibraryTable::openLibrary(const Foam::fileName&, bool)
    in file db/dynamicLibrary/dlLibraryTable/dlLibraryTable.C at line 188
    Could not load "libpetscFoam.so"
libpetscFoam.so: cannot open shared object file: No such file or directory
--> FOAM Warning : 
    From virtual void Foam::Time::readDict()
    in file db/Time/TimeIO.C at line 411
    Reading "/home/greole/data/code/exasim_project/micro_benchmarks/LidDrivenCavity3D/workspace/d044839e9d2e8a6202ef59585e1c39d8/case/system/controlDict" at line 17 to 47
    Disabled binary format compression (inefficient/ineffective)
Create mesh for time = 0


PISO: Operating solver in PISO mode

Reading transportProperties

Reading field p

Reading field U

Reading/calculating face flux field phi


Starting time loop

Time = 0.00025

Courant Number mean: 8.24341e-18 max: 2.08167e-14
[INFO] MatrixAssemblyU: 282.158 [ms]
DILUPBiCGStab:  Solving for Ux, Initial residual = 1, Final residual = 0.00959752, No Iterations 5
DILUPBiCGStab:  Solving for Uy:  solution singularity
DILUPBiCGStab:  Solving for Uz:  solution singularity
[INFO] MomentumPredictor: 1006.7 [ms]
[INFO] MatrixAssemblyPI: 301.053 [ms]
[INFO] AdjustPhi: 12.613 [ms]
[INFO] ConstrainPressure: 0.006 [ms]
[INFO] MatrixAssemblyPII: 83.612 [ms]
[OGL LOG][lduLduBase.H:122] Initialising OGL
	OGL commit:  b92e557
	Branch: cyclic 
	Build type: Release
	Ginkgo version: 1.5.0 ( develop)
	Ginkgo commit: 4292ffdee
	MPI is GPU aware: 1
	Forces host buffer based communication: 1
	CPU ranks per GPU: 1
	Matrix format: Coo
	End OGL_INFO
[OGL LOG][Proc: 0]: global_index_init: 4.408 [ms]
[OGL LOG][Proc: 0]p_local_cols: call_init: 0.026 [ms]
[OGL LOG][Proc: 0]p_local_rows: call_init: 0.003 [ms]
[OGL LOG][Proc: 0]p_local_ldu_map: call_init: 0.009 [ms]
[OGL LOG][Proc: 0]p_local_coeffs: call_init: 0.014 [ms]
[OGL LOG][Proc: 0]p_non_local_cols: call_init: 0.003 [ms]
[OGL LOG][Proc: 0]p_non_local_rows: call_init: 0.002 [ms]
[OGL LOG][Proc: 0]p_non_local_ldu_map: call_init: 0.002 [ms]
[OGL LOG][Proc: 0]p_non_local_coeffs: call_init: 0.002 [ms]
[OGL LOG][Proc: 0]p: init_local_sparsity_pattern: 147.038 [ms]
[OGL LOG][Proc: 0]p: init_non_local_sparsity_pattern: 16.427 [ms]
[OGL LOG][Proc: 0]p: update_local_matrix_data: 44.628 [ms]
[OGL LOG][Proc: 0]p: update_non_local_matrix_data: 0.285 [ms]
[OGL LOG][Proc: 0]device_partition: call_init: 6.525 [ms]
[OGL LOG][Proc: 0]p_matrix: call_init: 187.65 [ms]
[OGL LOG][Proc: 0]p_rhs: call_init: 32.393 [ms]
[OGL LOG][Proc: 0]p_solution: call_init: 2.913 [ms]
[OGL LOG][Proc: 0]p: init_precond: 0.095 [ms]
[OGL LOG][StoppingCriterion.H:372] Creating stopping criterion with minIter 0 frequency 1
[OGL LOG][Proc: 0]p: generate_solver: 0.024 [ms]
[OGL LOG][Proc: 0]p: solve: 2763.07 [ms]
[OGL LOG][Proc: 0]p: copy_x_back: 5.775 [ms]
[OGL LOG][lduLduBase.H:339] 
Statistics:
	Time per iteration: 1715 [mu s]
	Time per residual norm calculation: 1374.000000 [mu s]
	Time per iteration and DOF: 0.214375 [ns]
	Retrieve results bandwidth 1.385000 [GByte/s]
[OGL LOG][Proc: 0]p: solve_multi_gpu: 2999.31 [ms]
nonehipGKOCG:  Solving for p, Initial residual = 1, Final residual = 9.86509e-05, No Iterations 1611
[INFO] SolveP: 3688.08 [ms]
time step continuity errors : sum local = 7.58051e-09, global = -1.62619e-21, cumulative = -1.62619e-21
[INFO] ContinuityError: 33.462 [ms]
[INFO] CorrectBoundary: 1.94 [ms]
[INFO] PISOStep: 4221.47 [ms]
[INFO] MatrixAssemblyPI: 280.771 [ms]
[INFO] AdjustPhi: 15.515 [ms]
[INFO] ConstrainPressure: 0.004 [ms]
[INFO] MatrixAssemblyPII: 80.358 [ms]
[OGL LOG][Proc: 0]: global_index_init: 0.132 [ms]
[OGL LOG][Proc: 0]p_local_coeffs: call_update: 0.002 [ms]
[OGL LOG][Proc: 0]p_non_local_coeffs: call_update: 0 [ms]
[OGL LOG][Proc: 0]p: update_local_matrix_data: 45.842 [ms]
[OGL LOG][Proc: 0]p: update_non_local_matrix_data: 0.227 [ms]
[OGL LOG][Proc: 0]p_matrix: call_update: 9.716 [ms]
[OGL LOG][Proc: 0]p_rhs: call_update: 5.903 [ms]
[OGL LOG][Proc: 0]p: init_precond: 0.051 [ms]
[OGL LOG][StoppingCriterion.H:372] Creating stopping criterion with minIter 966 frequency 25
[OGL LOG][Proc: 0]p: generate_solver: 0.002 [ms]
[OGL LOG][Proc: 0]p: solve: 2197.35 [ms]
[OGL LOG][Proc: 0]p: copy_x_back: 5.164 [ms]
[OGL LOG][lduLduBase.H:339] 
Statistics:
	Time per iteration: 1372 [mu s]
	Time per residual norm calculation: 289.000000 [mu s]
	Time per iteration and DOF: 0.171500 [ns]
	Retrieve results bandwidth 1.549000 [GByte/s]
[OGL LOG][Proc: 0]p: solve_multi_gpu: 2218.96 [ms]
nonehipGKOCG:  Solving for p, Initial residual = 0.786527, Final residual = 8.73195e-05, No Iterations 1601
[INFO] SolveP: 2276.72 [ms]
time step continuity errors : sum local = 8.38524e-09, global = 6.92424e-22, cumulative = -9.33764e-22
[INFO] ContinuityError: 29.686 [ms]
[INFO] CorrectBoundary: 1.104 [ms]
[INFO] PISOStep: 2787.96 [ms]
[INFO] TimeStep: 8333.04 [ms]
ExecutionTime = 9.17 s  ClockTime = 9 s

Time = 0.0005

Courant Number mean: 0.0159725 max: 0.41252
[INFO] MatrixAssemblyU: 262.685 [ms]
DILUPBiCGStab:  Solving for Ux, Initial residual = 0.129596, Final residual = 0.00510256, No Iterations 5
DILUPBiCGStab:  Solving for Uy, Initial residual = 0.426763, Final residual = 0.0132344, No Iterations 5
DILUPBiCGStab:  Solving for Uz, Initial residual = 0.993464, Final residual = 0.0333258, No Iterations 5
[INFO] MomentumPredictor: 1928.22 [ms]
[INFO] MatrixAssemblyPI: 289.575 [ms]
[INFO] AdjustPhi: 12.266 [ms]
[INFO] ConstrainPressure: 0.002 [ms]
[INFO] MatrixAssemblyPII: 82.293 [ms]
[OGL LOG][Proc: 0]: global_index_init: 0.811 [ms]
[OGL LOG][Proc: 0]p_local_coeffs: call_update: 0 [ms]
[OGL LOG][Proc: 0]p_non_local_coeffs: call_update: 0 [ms]
[OGL LOG][Proc: 0]p: update_local_matrix_data: 45.487 [ms]
[OGL LOG][Proc: 0]p: update_non_local_matrix_data: 0.361 [ms]
[OGL LOG][Proc: 0]p_matrix: call_update: 9.723 [ms]
[OGL LOG][Proc: 0]p_rhs: call_update: 4.471 [ms]
[OGL LOG][Proc: 0]p: init_precond: 0.034 [ms]
[OGL LOG][StoppingCriterion.H:372] Creating stopping criterion with minIter 960 frequency 12
[OGL LOG][Proc: 0]p: generate_solver: 0.002 [ms]
[OGL LOG][Proc: 0]p: solve: 2141.65 [ms]
[OGL LOG][Proc: 0]p: copy_x_back: 5.631 [ms]
[OGL LOG][lduLduBase.H:339] 
Statistics:
	Time per iteration: 1361 [mu s]
	Time per residual norm calculation: 326.000000 [mu s]
	Time per iteration and DOF: 0.170125 [ns]
	Retrieve results bandwidth 1.420000 [GByte/s]
[OGL LOG][Proc: 0]p: solve_multi_gpu: 2162.23 [ms]
nonehipGKOCG:  Solving for p, Initial residual = 0.824095, Final residual = 9.42504e-05, No Iterations 1573
[INFO] SolveP: 2219.24 [ms]
time step continuity errors : sum local = 1.38075e-08, global = -8.03234e-22, cumulative = -1.737e-21
[INFO] ContinuityError: 28.554 [ms]
[INFO] CorrectBoundary: 6.288 [ms]
[INFO] PISOStep: 2734.14 [ms]
[INFO] MatrixAssemblyPI: 277.671 [ms]
[INFO] AdjustPhi: 14.848 [ms]
[INFO] ConstrainPressure: 0.005 [ms]
[INFO] MatrixAssemblyPII: 81.247 [ms]
[OGL LOG][Proc: 0]: global_index_init: 0.033 [ms]
[OGL LOG][Proc: 0]p_local_coeffs: call_update: 0 [ms]
[OGL LOG][Proc: 0]p_non_local_coeffs: call_update: 0 [ms]
[OGL LOG][Proc: 0]p: update_local_matrix_data: 45.895 [ms]
[OGL LOG][Proc: 0]p: update_non_local_matrix_data: 0.229 [ms]
[OGL LOG][Proc: 0]p_matrix: call_update: 9.288 [ms]
[OGL LOG][Proc: 0]p_rhs: call_update: 3.652 [ms]
[OGL LOG][Proc: 0]p: init_precond: 0.036 [ms]
[OGL LOG][StoppingCriterion.H:372] Creating stopping criterion with minIter 943 frequency 12
[OGL LOG][Proc: 0]p: generate_solver: 0.002 [ms]
[OGL LOG][Proc: 0]p: solve: 2179.01 [ms]
[OGL LOG][Proc: 0]p: copy_x_back: 5.656 [ms]
[OGL LOG][lduLduBase.H:339] 
Statistics:
	Time per iteration: 1385 [mu s]
	Time per residual norm calculation: 294.000000 [mu s]
	Time per iteration and DOF: 0.173125 [ns]
	Retrieve results bandwidth 1.414000 [GByte/s]
[OGL LOG][Proc: 0]p: solve_multi_gpu: 2198.39 [ms]
nonehipGKOCG:  Solving for p, Initial residual = 0.767378, Final residual = 8.58032e-05, No Iterations 1573
[INFO] SolveP: 2255.66 [ms]
time step continuity errors : sum local = 1.27962e-08, global = -2.8329e-22, cumulative = -2.02029e-21
[INFO] ContinuityError: 29.351 [ms]
[INFO] CorrectBoundary: 1.332 [ms]
[INFO] PISOStep: 2759.03 [ms]
[INFO] TimeStep: 7717.28 [ms]
ExecutionTime = 16.82 s  ClockTime = 17 s

Time = 0.00075

Courant Number mean: 0.0243584 max: 0.471981
[INFO] MatrixAssemblyU: 261.372 [ms]
DILUPBiCGStab:  Solving for Ux, Initial residual = 0.0547592, Final residual = 0.00175942, No Iterations 5
DILUPBiCGStab:  Solving for Uy, Initial residual = 0.18208, Final residual = 0.00707541, No Iterations 5
DILUPBiCGStab:  Solving for Uz, Initial residual = 0.815565, Final residual = 0.0252697, No Iterations 5
[INFO] MomentumPredictor: 1930.47 [ms]
[INFO] MatrixAssemblyPI: 288.362 [ms]
[INFO] AdjustPhi: 12.917 [ms]
[INFO] ConstrainPressure: 0.003 [ms]
[INFO] MatrixAssemblyPII: 83.805 [ms]
[OGL LOG][Proc: 0]: global_index_init: 0.055 [ms]
[OGL LOG][Proc: 0]p_local_coeffs: call_update: 0 [ms]
[OGL LOG][Proc: 0]p_non_local_coeffs: call_update: 0 [ms]
[OGL LOG][Proc: 0]p: update_local_matrix_data: 46.141 [ms]
[OGL LOG][Proc: 0]p: update_non_local_matrix_data: 0.165 [ms]
[OGL LOG][Proc: 0]p_matrix: call_update: 10.564 [ms]
[OGL LOG][Proc: 0]p_rhs: call_update: 3.298 [ms]
[OGL LOG][Proc: 0]p: init_precond: 0.035 [ms]
[OGL LOG][StoppingCriterion.H:372] Creating stopping criterion with minIter 943 frequency 12
[OGL LOG][Proc: 0]p: generate_solver: 0.002 [ms]
[OGL LOG][Proc: 0]p: solve: 2153.7 [ms]
[OGL LOG][Proc: 0]p: copy_x_back: 5.637 [ms]
[OGL LOG][lduLduBase.H:339] 
Statistics:
	Time per iteration: 1369 [mu s]
	Time per residual norm calculation: 287.000000 [mu s]
	Time per iteration and DOF: 0.171125 [ns]
	Retrieve results bandwidth 1.419000 [GByte/s]
[OGL LOG][Proc: 0]p: solve_multi_gpu: 2173.86 [ms]
nonehipGKOCG:  Solving for p, Initial residual = 0.848672, Final residual = 9.96224e-05, No Iterations 1573
[INFO] SolveP: 2230.94 [ms]
time step continuity errors : sum local = 1.33462e-08, global = 7.95008e-22, cumulative = -1.22528e-21
[INFO] ContinuityError: 30.72 [ms]
[INFO] CorrectBoundary: 1.587 [ms]
[INFO] PISOStep: 2745.95 [ms]
[INFO] MatrixAssemblyPI: 276.188 [ms]
[INFO] AdjustPhi: 16.651 [ms]
[INFO] ConstrainPressure: 0.004 [ms]
[INFO] MatrixAssemblyPII: 79.032 [ms]
[OGL LOG][Proc: 0]: global_index_init: 0.132 [ms]
[OGL LOG][Proc: 0]p_local_coeffs: call_update: 0 [ms]
[OGL LOG][Proc: 0]p_non_local_coeffs: call_update: 0 [ms]
[OGL LOG][Proc: 0]p: update_local_matrix_data: 44.812 [ms]
[OGL LOG][Proc: 0]p: update_non_local_matrix_data: 0.394 [ms]
[OGL LOG][Proc: 0]p_matrix: call_update: 9.983 [ms]
[OGL LOG][Proc: 0]p_rhs: call_update: 4.76 [ms]
[OGL LOG][Proc: 0]p: init_precond: 0.031 [ms]
[OGL LOG][StoppingCriterion.H:372] Creating stopping criterion with minIter 943 frequency 12
[OGL LOG][Proc: 0]p: generate_solver: 0.002 [ms]
[OGL LOG][Proc: 0]p: solve: 2167.37 [ms]
[OGL LOG][Proc: 0]p: copy_x_back: 4.682 [ms]
[OGL LOG][lduLduBase.H:339] 
Statistics:
	Time per iteration: 1377 [mu s]
	Time per residual norm calculation: 340.000000 [mu s]
	Time per iteration and DOF: 0.172125 [ns]
	Retrieve results bandwidth 1.708000 [GByte/s]
[OGL LOG][Proc: 0]p: solve_multi_gpu: 2187.55 [ms]
nonehipGKOCG:  Solving for p, Initial residual = 0.815329, Final residual = 9.38259e-05, No Iterations 1573
[INFO] SolveP: 2243.13 [ms]
time step continuity errors : sum local = 1.22988e-08, global = -9.04535e-22, cumulative = -2.12982e-21
[INFO] ContinuityError: 28.073 [ms]
[INFO] CorrectBoundary: 0.361 [ms]
[INFO] PISOStep: 2745.07 [ms]
[INFO] TimeStep: 7715.69 [ms]
ExecutionTime = 24.46 s  ClockTime = 25 s

Time = 0.001

Courant Number mean: 0.029233 max: 0.467776
[INFO] MatrixAssemblyU: 266.104 [ms]
DILUPBiCGStab:  Solving for Ux, Initial residual = 0.0346512, Final residual = 0.00116377, No Iterations 5
DILUPBiCGStab:  Solving for Uy, Initial residual = 0.129013, Final residual = 0.00438846, No Iterations 5
DILUPBiCGStab:  Solving for Uz, Initial residual = 0.601189, Final residual = 0.0148428, No Iterations 5
[INFO] MomentumPredictor: 1925.42 [ms]
[INFO] MatrixAssemblyPI: 281.983 [ms]
[INFO] AdjustPhi: 19.417 [ms]
[INFO] ConstrainPressure: 0.003 [ms]
[INFO] MatrixAssemblyPII: 82.027 [ms]
[OGL LOG][Proc: 0]: global_index_init: 0.048 [ms]
[OGL LOG][Proc: 0]p_local_coeffs: call_update: 0 [ms]
[OGL LOG][Proc: 0]p_non_local_coeffs: call_update: 0 [ms]
[OGL LOG][Proc: 0]p: update_local_matrix_data: 45.916 [ms]
[OGL LOG][Proc: 0]p: update_non_local_matrix_data: 0.169 [ms]
[OGL LOG][Proc: 0]p_matrix: call_update: 10.47 [ms]
[OGL LOG][Proc: 0]p_rhs: call_update: 3.448 [ms]
[OGL LOG][Proc: 0]p: init_precond: 0.033 [ms]
[OGL LOG][StoppingCriterion.H:372] Creating stopping criterion with minIter 943 frequency 12
[OGL LOG][Proc: 0]p: generate_solver: 0.002 [ms]
[OGL LOG][Proc: 0]p: solve: 1316.18 [ms]
[OGL LOG][Proc: 0]p: copy_x_back: 5.059 [ms]
[OGL LOG][lduLduBase.H:339] 
Statistics:
	Time per iteration: 1386 [mu s]
	Time per residual norm calculation: 310.000000 [mu s]
	Time per iteration and DOF: 0.173250 [ns]
	Retrieve results bandwidth 1.581000 [GByte/s]
[OGL LOG][Proc: 0]p: solve_multi_gpu: 1335.85 [ms]
nonehipGKOCG:  Solving for p, Initial residual = 0.769342, Final residual = 4.95527e-05, No Iterations 949
[INFO] SolveP: 1393.06 [ms]
time step continuity errors : sum local = 6.49331e-09, global = 2.1318e-22, cumulative = -1.91664e-21
[INFO] ContinuityError: 28.576 [ms]
[INFO] CorrectBoundary: 4.101 [ms]
[INFO] PISOStep: 1905.72 [ms]
[INFO] MatrixAssemblyPI: 273.484 [ms]
[INFO] AdjustPhi: 16.659 [ms]
[INFO] ConstrainPressure: 0.005 [ms]
[INFO] MatrixAssemblyPII: 83.557 [ms]
[OGL LOG][Proc: 0]: global_index_init: 0.057 [ms]
[OGL LOG][Proc: 0]p_local_coeffs: call_update: 0 [ms]
[OGL LOG][Proc: 0]p_non_local_coeffs: call_update: 0 [ms]
[OGL LOG][Proc: 0]p: update_local_matrix_data: 45.883 [ms]
[OGL LOG][Proc: 0]p: update_non_local_matrix_data: 0.21 [ms]
[OGL LOG][Proc: 0]p_matrix: call_update: 8.712 [ms]
[OGL LOG][Proc: 0]p_rhs: call_update: 5.022 [ms]
[OGL LOG][Proc: 0]p: init_precond: 0.03 [ms]
[OGL LOG][StoppingCriterion.H:372] Creating stopping criterion with minIter 569 frequency 9
[OGL LOG][Proc: 0]p: generate_solver: 0.002 [ms]
[OGL LOG][Proc: 0]p: solve: 1077.68 [ms]
[OGL LOG][Proc: 0]p: copy_x_back: 5.398 [ms]
[OGL LOG][lduLduBase.H:339] 
Statistics:
	Time per iteration: 1406 [mu s]
	Time per residual norm calculation: 320.000000 [mu s]
	Time per iteration and DOF: 0.175750 [ns]
	Retrieve results bandwidth 1.482000 [GByte/s]
[OGL LOG][Proc: 0]p: solve_multi_gpu: 1097.49 [ms]
nonehipGKOCG:  Solving for p, Initial residual = 0.706664, Final residual = 8.18706e-05, No Iterations 766
[INFO] SolveP: 1153.91 [ms]
time step continuity errors : sum local = 1.02247e-08, global = -5.6817e-23, cumulative = -1.97345e-21
[INFO] ContinuityError: 28.322 [ms]
[INFO] CorrectBoundary: 3.041 [ms]
[INFO] PISOStep: 1656.23 [ms]
[INFO] TimeStep: 5784.61 [ms]
ExecutionTime = 30.19 s  ClockTime = 31 s

Time = 0.00125

Courant Number mean: 0.0333806 max: 0.472902
[INFO] MatrixAssemblyU: 255.725 [ms]
DILUPBiCGStab:  Solving for Ux, Initial residual = 0.0270932, Final residual = 0.000842219, No Iterations 5
DILUPBiCGStab:  Solving for Uy, Initial residual = 0.0811971, Final residual = 0.00325905, No Iterations 5
DILUPBiCGStab:  Solving for Uz, Initial residual = 0.448092, Final residual = 0.0108884, No Iterations 5
[INFO] MomentumPredictor: 1936.73 [ms]
[INFO] MatrixAssemblyPI: 284.886 [ms]
[INFO] AdjustPhi: 14.718 [ms]
[INFO] ConstrainPressure: 0.003 [ms]
[INFO] MatrixAssemblyPII: 80.515 [ms]
[OGL LOG][Proc: 0]: global_index_init: 0.067 [ms]
[OGL LOG][Proc: 0]p_local_coeffs: call_update: 0 [ms]
[OGL LOG][Proc: 0]p_non_local_coeffs: call_update: 0 [ms]
[OGL LOG][Proc: 0]p: update_local_matrix_data: 46.273 [ms]
[OGL LOG][Proc: 0]p: update_non_local_matrix_data: 0.117 [ms]
[OGL LOG][Proc: 0]p_matrix: call_update: 11.91 [ms]
[OGL LOG][Proc: 0]p_rhs: call_update: 4.713 [ms]
[OGL LOG][Proc: 0]p: init_precond: 0.034 [ms]
[OGL LOG][StoppingCriterion.H:372] Creating stopping criterion with minIter 459 frequency 8
[OGL LOG][Proc: 0]p: generate_solver: 0.002 [ms]
[OGL LOG][Proc: 0]p: solve: 1042.34 [ms]
[OGL LOG][Proc: 0]p: copy_x_back: 4.789 [ms]
[OGL LOG][lduLduBase.H:339] 
Statistics:
	Time per iteration: 1399 [mu s]
	Time per residual norm calculation: 292.000000 [mu s]
	Time per iteration and DOF: 0.174875 [ns]
	Retrieve results bandwidth 1.670000 [GByte/s]
[OGL LOG][Proc: 0]p: solve_multi_gpu: 1064.45 [ms]
nonehipGKOCG:  Solving for p, Initial residual = 0.774778, Final residual = 9.16744e-05, No Iterations 745
[INFO] SolveP: 1121.45 [ms]
time step continuity errors : sum local = 9.42029e-09, global = -2.84095e-21, cumulative = -4.8144e-21
[INFO] ContinuityError: 27.464 [ms]
[INFO] CorrectBoundary: 0.831 [ms]
[INFO] PISOStep: 1635.4 [ms]
[INFO] MatrixAssemblyPI: 277.22 [ms]
[INFO] AdjustPhi: 12.577 [ms]
[INFO] ConstrainPressure: 0.004 [ms]
[INFO] MatrixAssemblyPII: 81.104 [ms]
[OGL LOG][Proc: 0]: global_index_init: 0.064 [ms]
[OGL LOG][Proc: 0]p_local_coeffs: call_update: 0 [ms]
[OGL LOG][Proc: 0]p_non_local_coeffs: call_update: 0 [ms]
[OGL LOG][Proc: 0]p: update_local_matrix_data: 46.045 [ms]
[OGL LOG][Proc: 0]p: update_non_local_matrix_data: 0.178 [ms]
[OGL LOG][Proc: 0]p_matrix: call_update: 9.667 [ms]
[OGL LOG][Proc: 0]p_rhs: call_update: 4.909 [ms]
[OGL LOG][Proc: 0]p: init_precond: 0.035 [ms]
[OGL LOG][StoppingCriterion.H:372] Creating stopping criterion with minIter 447 frequency 8
[OGL LOG][Proc: 0]p: generate_solver: 0.002 [ms]
[OGL LOG][Proc: 0]p: solve: 1055.88 [ms]
[OGL LOG][Proc: 0]p: copy_x_back: 5.079 [ms]
[OGL LOG][lduLduBase.H:339] 
Statistics:
	Time per iteration: 1417 [mu s]
	Time per residual norm calculation: 301.000000 [mu s]
	Time per iteration and DOF: 0.177125 [ns]
	Retrieve results bandwidth 1.575000 [GByte/s]
[OGL LOG][Proc: 0]p: solve_multi_gpu: 1076.21 [ms]
nonehipGKOCG:  Solving for p, Initial residual = 0.723585, Final residual = 8.60011e-05, No Iterations 745
[INFO] SolveP: 1133.09 [ms]
time step continuity errors : sum local = 8.58951e-09, global = -5.53381e-22, cumulative = -5.36779e-21
[INFO] ContinuityError: 30.71 [ms]
[INFO] CorrectBoundary: 5.018 [ms]
[INFO] PISOStep: 1633.76 [ms]
[INFO] TimeStep: 5491.81 [ms]
ExecutionTime = 35.64 s  ClockTime = 36 s

Time = 0.0015

Courant Number mean: 0.036686 max: 0.475572
[INFO] MatrixAssemblyU: 255.497 [ms]
DILUPBiCGStab:  Solving for Ux, Initial residual = 0.0203806, Final residual = 0.000603386, No Iterations 5
DILUPBiCGStab:  Solving for Uy, Initial residual = 0.0656709, Final residual = 0.00224174, No Iterations 5
DILUPBiCGStab:  Solving for Uz, Initial residual = 0.325659, Final residual = 0.00777373, No Iterations 5
[INFO] MomentumPredictor: 1936.78 [ms]
[INFO] MatrixAssemblyPI: 284.572 [ms]
[INFO] AdjustPhi: 15.372 [ms]
[INFO] ConstrainPressure: 0.003 [ms]
[INFO] MatrixAssemblyPII: 81.262 [ms]
[OGL LOG][Proc: 0]: global_index_init: 0.07 [ms]
[OGL LOG][Proc: 0]p_local_coeffs: call_update: 0 [ms]
[OGL LOG][Proc: 0]p_non_local_coeffs: call_update: 0 [ms]
[OGL LOG][Proc: 0]p: update_local_matrix_data: 43.54 [ms]
[OGL LOG][Proc: 0]p: update_non_local_matrix_data: 0.411 [ms]
[OGL LOG][Proc: 0]p_matrix: call_update: 11.653 [ms]
[OGL LOG][Proc: 0]p_rhs: call_update: 3.667 [ms]
[OGL LOG][Proc: 0]p: init_precond: 0.038 [ms]
[OGL LOG][StoppingCriterion.H:372] Creating stopping criterion with minIter 447 frequency 8
[OGL LOG][Proc: 0]p: generate_solver: 0.002 [ms]
[OGL LOG][Proc: 0]p: solve: 1057.3 [ms]
[OGL LOG][Proc: 0]p: copy_x_back: 4.876 [ms]
[OGL LOG][lduLduBase.H:339] 
Statistics:
	Time per iteration: 1419 [mu s]
	Time per residual norm calculation: 293.000000 [mu s]
	Time per iteration and DOF: 0.177375 [ns]
	Retrieve results bandwidth 1.640000 [GByte/s]
[OGL LOG][Proc: 0]p: solve_multi_gpu: 1078.23 [ms]
nonehipGKOCG:  Solving for p, Initial residual = 0.681299, Final residual = 9.87034e-05, No Iterations 745
[INFO] SolveP: 1133.25 [ms]
time step continuity errors : sum local = 1.02007e-08, global = -2.64538e-21, cumulative = -8.01316e-21
[INFO] ContinuityError: 28.257 [ms]
[INFO] CorrectBoundary: 1.248 [ms]
[INFO] PISOStep: 1643.47 [ms]
[INFO] MatrixAssemblyPI: 276.832 [ms]
[INFO] AdjustPhi: 13.927 [ms]
[INFO] ConstrainPressure: 0.003 [ms]
[INFO] MatrixAssemblyPII: 80.809 [ms]
[OGL LOG][Proc: 0]: global_index_init: 0.099 [ms]
[OGL LOG][Proc: 0]p_local_coeffs: call_update: 0 [ms]
[OGL LOG][Proc: 0]p_non_local_coeffs: call_update: 0 [ms]
[OGL LOG][Proc: 0]p: update_local_matrix_data: 45.779 [ms]
[OGL LOG][Proc: 0]p: update_non_local_matrix_data: 0.256 [ms]
[OGL LOG][Proc: 0]p_matrix: call_update: 9.74 [ms]
[OGL LOG][Proc: 0]p_rhs: call_update: 5.508 [ms]
[OGL LOG][Proc: 0]p: init_precond: 0.037 [ms]
[OGL LOG][StoppingCriterion.H:372] Creating stopping criterion with minIter 447 frequency 8
[OGL LOG][Proc: 0]p: generate_solver: 0.002 [ms]
[OGL LOG][Proc: 0]p: solve: 1050.75 [ms]
[OGL LOG][Proc: 0]p: copy_x_back: 4.872 [ms]
[OGL LOG][lduLduBase.H:339] 
Statistics:
	Time per iteration: 1410 [mu s]
	Time per residual norm calculation: 303.000000 [mu s]
	Time per iteration and DOF: 0.176250 [ns]
	Retrieve results bandwidth 1.642000 [GByte/s]
[OGL LOG][Proc: 0]p: solve_multi_gpu: 1071.58 [ms]
nonehipGKOCG:  Solving for p, Initial residual = 0.620516, Final residual = 8.21088e-05, No Iterations 745
[INFO] SolveP: 1129.85 [ms]
time step continuity errors : sum local = 7.96449e-09, global = -1.72529e-21, cumulative = -9.73845e-21
[INFO] ContinuityError: 28.075 [ms]
[INFO] CorrectBoundary: 0.664 [ms]
[INFO] PISOStep: 1627.14 [ms]
[INFO] TimeStep: 5493.47 [ms]
ExecutionTime = 41.09 s  ClockTime = 42 s

Time = 0.00175

Courant Number mean: 0.039604 max: 0.477516
[INFO] MatrixAssemblyU: 266.653 [ms]
DILUPBiCGStab:  Solving for Ux, Initial residual = 0.0173938, Final residual = 0.00047845, No Iterations 5
DILUPBiCGStab:  Solving for Uy, Initial residual = 0.0488566, Final residual = 0.00163371, No Iterations 5
DILUPBiCGStab:  Solving for Uz, Initial residual = 0.252457, Final residual = 0.00729387, No Iterations 5
[INFO] MomentumPredictor: 1926.6 [ms]
[INFO] MatrixAssemblyPI: 286.569 [ms]
[INFO] AdjustPhi: 13.722 [ms]
[INFO] ConstrainPressure: 0.003 [ms]
[INFO] MatrixAssemblyPII: 81.114 [ms]
[OGL LOG][Proc: 0]: global_index_init: 0.085 [ms]
[OGL LOG][Proc: 0]p_local_coeffs: call_update: 0 [ms]
[OGL LOG][Proc: 0]p_non_local_coeffs: call_update: 0 [ms]
[OGL LOG][Proc: 0]p: update_local_matrix_data: 46.135 [ms]
[OGL LOG][Proc: 0]p: update_non_local_matrix_data: 0.135 [ms]
[OGL LOG][Proc: 0]p_matrix: call_update: 9.425 [ms]
[OGL LOG][Proc: 0]p_rhs: call_update: 6.462 [ms]
[OGL LOG][Proc: 0]p: init_precond: 0.031 [ms]
[OGL LOG][StoppingCriterion.H:372] Creating stopping criterion with minIter 447 frequency 8
[OGL LOG][Proc: 0]p: generate_solver: 0.002 [ms]
[OGL LOG][Proc: 0]p: solve: 2092.48 [ms]
[OGL LOG][Proc: 0]p: copy_x_back: 4.84 [ms]
[OGL LOG][lduLduBase.H:339] 
Statistics:
	Time per iteration: 1375 [mu s]
	Time per residual norm calculation: 329.000000 [mu s]
	Time per iteration and DOF: 0.171875 [ns]
	Retrieve results bandwidth 1.652000 [GByte/s]
[OGL LOG][Proc: 0]p: solve_multi_gpu: 2113.89 [ms]
nonehipGKOCG:  Solving for p, Initial residual = 0.677219, Final residual = 8.51742e-05, No Iterations 1521
[INFO] SolveP: 2171.2 [ms]
time step continuity errors : sum local = 6.58739e-09, global = -2.51594e-21, cumulative = -1.22544e-20
[INFO] ContinuityError: 27.792 [ms]
[INFO] CorrectBoundary: 0.713 [ms]
[INFO] PISOStep: 2680.71 [ms]
[INFO] MatrixAssemblyPI: 279.114 [ms]
[INFO] AdjustPhi: 12.626 [ms]
[INFO] ConstrainPressure: 0.003 [ms]
[INFO] MatrixAssemblyPII: 76.187 [ms]
[OGL LOG][Proc: 0]: global_index_init: 0.043 [ms]
[OGL LOG][Proc: 0]p_local_coeffs: call_update: 0 [ms]
[OGL LOG][Proc: 0]p_non_local_coeffs: call_update: 0 [ms]
[OGL LOG][Proc: 0]p: update_local_matrix_data: 46.167 [ms]
[OGL LOG][Proc: 0]p: update_non_local_matrix_data: 0.128 [ms]
[OGL LOG][Proc: 0]p_matrix: call_update: 10.166 [ms]
[OGL LOG][Proc: 0]p_rhs: call_update: 5.243 [ms]
[OGL LOG][Proc: 0]p: init_precond: 0.033 [ms]
[OGL LOG][StoppingCriterion.H:372] Creating stopping criterion with minIter 912 frequency 12
[OGL LOG][Proc: 0]p: generate_solver: 0.002 [ms]
[OGL LOG][Proc: 0]p: solve: 2062.8 [ms]
[OGL LOG][Proc: 0]p: copy_x_back: 5.286 [ms]
[OGL LOG][lduLduBase.H:339] 
Statistics:
	Time per iteration: 1363 [mu s]
	Time per residual norm calculation: 294.000000 [mu s]
	Time per iteration and DOF: 0.170375 [ns]
	Retrieve results bandwidth 1.513000 [GByte/s]
[OGL LOG][Proc: 0]p: solve_multi_gpu: 2084.22 [ms]
nonehipGKOCG:  Solving for p, Initial residual = 0.617358, Final residual = 9.84075e-05, No Iterations 1513
[INFO] SolveP: 2141.35 [ms]
time step continuity errors : sum local = 7.57145e-09, global = -8.81413e-22, cumulative = -1.31358e-20
[INFO] ContinuityError: 28.981 [ms]
[INFO] CorrectBoundary: 0.355 [ms]
[INFO] PISOStep: 2643.03 [ms]
[INFO] TimeStep: 7547.78 [ms]
ExecutionTime = 48.58 s  ClockTime = 49 s

Time = 0.002

Courant Number mean: 0.0421308 max: 0.47922
[INFO] MatrixAssemblyU: 263.723 [ms]
DILUPBiCGStab:  Solving for Ux, Initial residual = 0.014255, Final residual = 0.000366432, No Iterations 5
DILUPBiCGStab:  Solving for Uy, Initial residual = 0.0416205, Final residual = 0.00126876, No Iterations 5
DILUPBiCGStab:  Solving for Uz, Initial residual = 0.196566, Final residual = 0.00548213, No Iterations 5
[INFO] MomentumPredictor: 1927.92 [ms]
[INFO] MatrixAssemblyPI: 285.894 [ms]
[INFO] AdjustPhi: 12.225 [ms]
[INFO] ConstrainPressure: 0.003 [ms]
[INFO] MatrixAssemblyPII: 81.458 [ms]
[OGL LOG][Proc: 0]: global_index_init: 0.07 [ms]
[OGL LOG][Proc: 0]p_local_coeffs: call_update: 0 [ms]
[OGL LOG][Proc: 0]p_non_local_coeffs: call_update: 0 [ms]
[OGL LOG][Proc: 0]p: update_local_matrix_data: 45.981 [ms]
[OGL LOG][Proc: 0]p: update_non_local_matrix_data: 0.205 [ms]
[OGL LOG][Proc: 0]p_matrix: call_update: 9.106 [ms]
[OGL LOG][Proc: 0]p_rhs: call_update: 5.075 [ms]
[OGL LOG][Proc: 0]p: init_precond: 0.044 [ms]
[OGL LOG][StoppingCriterion.H:372] Creating stopping criterion with minIter 907 frequency 12
[OGL LOG][Proc: 0]p: generate_solver: 0.002 [ms]
[OGL LOG][Proc: 0]p: solve: 2093.03 [ms]
[OGL LOG][Proc: 0]p: copy_x_back: 4.768 [ms]
[OGL LOG][lduLduBase.H:339] 
Statistics:
	Time per iteration: 1372 [mu s]
	Time per residual norm calculation: 324.000000 [mu s]
	Time per iteration and DOF: 0.171500 [ns]
	Retrieve results bandwidth 1.677000 [GByte/s]
[OGL LOG][Proc: 0]p: solve_multi_gpu: 2112.7 [ms]
nonehipGKOCG:  Solving for p, Initial residual = 0.586014, Final residual = 8.81012e-05, No Iterations 1525
[INFO] SolveP: 2169.61 [ms]
time step continuity errors : sum local = 6.48586e-09, global = -3.35556e-21, cumulative = -1.64914e-20
[INFO] ContinuityError: 25.753 [ms]
[INFO] CorrectBoundary: 10.08 [ms]
[INFO] PISOStep: 2674.11 [ms]
[INFO] MatrixAssemblyPI: 274.247 [ms]
[INFO] AdjustPhi: 19.768 [ms]
[INFO] ConstrainPressure: 0.005 [ms]
[INFO] MatrixAssemblyPII: 82.044 [ms]
[OGL LOG][Proc: 0]: global_index_init: 0.153 [ms]
[OGL LOG][Proc: 0]p_local_coeffs: call_update: 0 [ms]
[OGL LOG][Proc: 0]p_non_local_coeffs: call_update: 0 [ms]
[OGL LOG][Proc: 0]p: update_local_matrix_data: 46.193 [ms]
[OGL LOG][Proc: 0]p: update_non_local_matrix_data: 0.134 [ms]
[OGL LOG][Proc: 0]p_matrix: call_update: 9.859 [ms]
[OGL LOG][Proc: 0]p_rhs: call_update: 4.856 [ms]
[OGL LOG][Proc: 0]p: init_precond: 0.03 [ms]
[OGL LOG][StoppingCriterion.H:372] Creating stopping criterion with minIter 915 frequency 12
[OGL LOG][Proc: 0]p: generate_solver: 0.002 [ms]
[OGL LOG][Proc: 0]p: solve: 2080.01 [ms]
[OGL LOG][Proc: 0]p: copy_x_back: 4.797 [ms]
[OGL LOG][lduLduBase.H:339] 
Statistics:
	Time per iteration: 1363 [mu s]
	Time per residual norm calculation: 282.000000 [mu s]
	Time per iteration and DOF: 0.170375 [ns]
	Retrieve results bandwidth 1.667000 [GByte/s]
[OGL LOG][Proc: 0]p: solve_multi_gpu: 2100.32 [ms]
nonehipGKOCG:  Solving for p, Initial residual = 0.528166, Final residual = 8.3481e-05, No Iterations 1525
[INFO] SolveP: 2157.24 [ms]
time step continuity errors : sum local = 6.13121e-09, global = -2.62785e-21, cumulative = -1.91192e-20
[INFO] ContinuityError: 29.781 [ms]
[INFO] CorrectBoundary: 5.619 [ms]
[INFO] PISOStep: 2661.78 [ms]
[INFO] TimeStep: 7558.05 [ms]
ExecutionTime = 56.05 s  ClockTime = 57 s

Time = 0.00225

Courant Number mean: 0.0444171 max: 0.48037
[INFO] MatrixAssemblyU: 262.514 [ms]
DILUPBiCGStab:  Solving for Ux, Initial residual = 0.012541, Final residual = 0.000301394, No Iterations 5
DILUPBiCGStab:  Solving for Uy, Initial residual = 0.0334842, Final residual = 0.000894112, No Iterations 5
DILUPBiCGStab:  Solving for Uz, Initial residual = 0.158286, Final residual = 0.00518248, No Iterations 5
[INFO] MomentumPredictor: 1925.88 [ms]
[INFO] MatrixAssemblyPI: 286.012 [ms]
[INFO] AdjustPhi: 13.344 [ms]
[INFO] ConstrainPressure: 0.003 [ms]
[INFO] MatrixAssemblyPII: 81.068 [ms]
[OGL LOG][Proc: 0]: global_index_init: 0.085 [ms]
[OGL LOG][Proc: 0]p_local_coeffs: call_update: 0 [ms]
[OGL LOG][Proc: 0]p_non_local_coeffs: call_update: 0 [ms]
[OGL LOG][Proc: 0]p: update_local_matrix_data: 46.197 [ms]
[OGL LOG][Proc: 0]p: update_non_local_matrix_data: 0.119 [ms]
[OGL LOG][Proc: 0]p_matrix: call_update: 9.651 [ms]
[OGL LOG][Proc: 0]p_rhs: call_update: 4.929 [ms]
[OGL LOG][Proc: 0]p: init_precond: 0.04 [ms]
[OGL LOG][StoppingCriterion.H:372] Creating stopping criterion with minIter 915 frequency 12
[OGL LOG][Proc: 0]p: generate_solver: 0.002 [ms]
[OGL LOG][Proc: 0]p: solve: 2066.67 [ms]
[OGL LOG][Proc: 0]p: copy_x_back: 5.11 [ms]
[OGL LOG][lduLduBase.H:339] 
Statistics:
	Time per iteration: 1376 [mu s]
	Time per residual norm calculation: 284.000000 [mu s]
	Time per iteration and DOF: 0.172000 [ns]
	Retrieve results bandwidth 1.565000 [GByte/s]
[OGL LOG][Proc: 0]p: solve_multi_gpu: 2087.04 [ms]
nonehipGKOCG:  Solving for p, Initial residual = 0.572968, Final residual = 9.67749e-05, No Iterations 1501
[INFO] SolveP: 2144.2 [ms]
time step continuity errors : sum local = 6.17433e-09, global = -4.6567e-21, cumulative = -2.37759e-20
[INFO] ContinuityError: 29.155 [ms]
[INFO] CorrectBoundary: 1.479 [ms]
[INFO] PISOStep: 2653.52 [ms]
[INFO] MatrixAssemblyPI: 275.977 [ms]
[INFO] AdjustPhi: 14.285 [ms]
[INFO] ConstrainPressure: 0.003 [ms]
[INFO] MatrixAssemblyPII: 81.062 [ms]
[OGL LOG][Proc: 0]: global_index_init: 0.062 [ms]
[OGL LOG][Proc: 0]p_local_coeffs: call_update: 0 [ms]
[OGL LOG][Proc: 0]p_non_local_coeffs: call_update: 0 [ms]
[OGL LOG][Proc: 0]p: update_local_matrix_data: 46.08 [ms]
[OGL LOG][Proc: 0]p: update_non_local_matrix_data: 0.128 [ms]
[OGL LOG][Proc: 0]p_matrix: call_update: 14.217 [ms]
[OGL LOG][Proc: 0]p_rhs: call_update: 2.04 [ms]
[OGL LOG][Proc: 0]p: init_precond: 0.037 [ms]
[OGL LOG][StoppingCriterion.H:372] Creating stopping criterion with minIter 900 frequency 12
[OGL LOG][Proc: 0]p: generate_solver: 0.002 [ms]
[OGL LOG][Proc: 0]p: solve: 2041.98 [ms]
[OGL LOG][Proc: 0]p: copy_x_back: 4.906 [ms]
[OGL LOG][lduLduBase.H:339] 
Statistics:
	Time per iteration: 1360 [mu s]
	Time per residual norm calculation: 329.000000 [mu s]
	Time per iteration and DOF: 0.170000 [ns]
	Retrieve results bandwidth 1.630000 [GByte/s]
[OGL LOG][Proc: 0]p: solve_multi_gpu: 2063.85 [ms]
nonehipGKOCG:  Solving for p, Initial residual = 0.511865, Final residual = 9.22315e-05, No Iterations 1501
[INFO] SolveP: 2121.09 [ms]
time step continuity errors : sum local = 5.88263e-09, global = -1.4648e-21, cumulative = -2.52407e-20
[INFO] ContinuityError: 28.727 [ms]
[INFO] CorrectBoundary: 5.592 [ms]
[INFO] PISOStep: 2619.68 [ms]
[INFO] TimeStep: 7492.04 [ms]
ExecutionTime = 63.43 s  ClockTime = 64 s

Time = 0.0025

Courant Number mean: 0.0464716 max: 0.481475
[INFO] MatrixAssemblyU: 255.288 [ms]
DILUPBiCGStab:  Solving for Ux, Initial residual = 0.010788, Final residual = 0.000242435, No Iterations 5
DILUPBiCGStab:  Solving for Uy, Initial residual = 0.0293481, Final residual = 0.000733692, No Iterations 5
DILUPBiCGStab:  Solving for Uz, Initial residual = 0.127532, Final residual = 0.00418064, No Iterations 5
[INFO] MomentumPredictor: 1934.68 [ms]
[INFO] MatrixAssemblyPI: 283.561 [ms]
[INFO] AdjustPhi: 15.444 [ms]
[INFO] ConstrainPressure: 0.003 [ms]
[INFO] MatrixAssemblyPII: 82.399 [ms]
[OGL LOG][Proc: 0]: global_index_init: 0.043 [ms]
[OGL LOG][Proc: 0]p_local_coeffs: call_update: 0 [ms]
[OGL LOG][Proc: 0]p_non_local_coeffs: call_update: 0 [ms]
[OGL LOG][Proc: 0]p: update_local_matrix_data: 46.283 [ms]
[OGL LOG][Proc: 0]p: update_non_local_matrix_data: 0.156 [ms]
[OGL LOG][Proc: 0]p_matrix: call_update: 9.29 [ms]
[OGL LOG][Proc: 0]p_rhs: call_update: 4.87 [ms]
[OGL LOG][Proc: 0]p: init_precond: 0.029 [ms]
[OGL LOG][StoppingCriterion.H:372] Creating stopping criterion with minIter 900 frequency 12
[OGL LOG][Proc: 0]p: generate_solver: 0.002 [ms]
[OGL LOG][Proc: 0]p: solve: 2053.94 [ms]
[OGL LOG][Proc: 0]p: copy_x_back: 4.76 [ms]
[OGL LOG][lduLduBase.H:339] 
Statistics:
	Time per iteration: 1368 [mu s]
	Time per residual norm calculation: 325.000000 [mu s]
	Time per iteration and DOF: 0.171000 [ns]
	Retrieve results bandwidth 1.680000 [GByte/s]
[OGL LOG][Proc: 0]p: solve_multi_gpu: 2073.62 [ms]
nonehipGKOCG:  Solving for p, Initial residual = 0.496173, Final residual = 9.55609e-05, No Iterations 1501
[INFO] SolveP: 2130.55 [ms]
time step continuity errors : sum local = 5.91838e-09, global = -3.38558e-21, cumulative = -2.86263e-20
[INFO] ContinuityError: 26.285 [ms]
[INFO] CorrectBoundary: 2.231 [ms]
[INFO] PISOStep: 2639.68 [ms]
[INFO] MatrixAssemblyPI: 277.765 [ms]
[INFO] AdjustPhi: 12.99 [ms]
[INFO] ConstrainPressure: 0.004 [ms]
[INFO] MatrixAssemblyPII: 80.534 [ms]
[OGL LOG][Proc: 0]: global_index_init: 0.052 [ms]
[OGL LOG][Proc: 0]p_local_coeffs: call_update: 0 [ms]
[OGL LOG][Proc: 0]p_non_local_coeffs: call_update: 0 [ms]
[OGL LOG][Proc: 0]p: update_local_matrix_data: 46.17 [ms]
[OGL LOG][Proc: 0]p: update_non_local_matrix_data: 0.115 [ms]
[OGL LOG][Proc: 0]p_matrix: call_update: 12.259 [ms]
[OGL LOG][Proc: 0]p_rhs: call_update: 2.709 [ms]
[OGL LOG][Proc: 0]p: init_precond: 0.044 [ms]
[OGL LOG][StoppingCriterion.H:372] Creating stopping criterion with minIter 900 frequency 12
[OGL LOG][Proc: 0]p: generate_solver: 0.002 [ms]
[OGL LOG][Proc: 0]p: solve: 2047.93 [ms]
[OGL LOG][Proc: 0]p: copy_x_back: 5.01 [ms]
[OGL LOG][lduLduBase.H:339] 
Statistics:
	Time per iteration: 1364 [mu s]
	Time per residual norm calculation: 325.000000 [mu s]
	Time per iteration and DOF: 0.170500 [ns]
	Retrieve results bandwidth 1.596000 [GByte/s]
[OGL LOG][Proc: 0]p: solve_multi_gpu: 2068.66 [ms]
nonehipGKOCG:  Solving for p, Initial residual = 0.443226, Final residual = 9.47953e-05, No Iterations 1501
[INFO] SolveP: 2125.22 [ms]
time step continuity errors : sum local = 5.84558e-09, global = -5.57491e-21, cumulative = -3.42012e-20
[INFO] ContinuityError: 29.215 [ms]
[INFO] CorrectBoundary: 1.361 [ms]
[INFO] PISOStep: 2624.66 [ms]
[INFO] TimeStep: 7484.31 [ms]
ExecutionTime = 70.86 s  ClockTime = 72 s

Time = 0.00275

Courant Number mean: 0.0483595 max: 0.482248
[INFO] MatrixAssemblyU: 266.659 [ms]
DILUPBiCGStab:  Solving for Ux, Initial residual = 0.00966562, Final residual = 0.00020448, No Iterations 5
DILUPBiCGStab:  Solving for Uy, Initial residual = 0.0248274, Final residual = 0.000528879, No Iterations 5
DILUPBiCGStab:  Solving for Uz, Initial residual = 0.106733, Final residual = 0.00397775, No Iterations 5
[INFO] MomentumPredictor: 1925.17 [ms]
[INFO] MatrixAssemblyPI: 285.769 [ms]
[INFO] AdjustPhi: 14.236 [ms]
[INFO] ConstrainPressure: 0.002 [ms]
[INFO] MatrixAssemblyPII: 80.939 [ms]
[OGL LOG][Proc: 0]: global_index_init: 0.033 [ms]
[OGL LOG][Proc: 0]p_local_coeffs: call_update: 0 [ms]
[OGL LOG][Proc: 0]p_non_local_coeffs: call_update: 0 [ms]
[OGL LOG][Proc: 0]p: update_local_matrix_data: 45.422 [ms]
[OGL LOG][Proc: 0]p: update_non_local_matrix_data: 0.31 [ms]
[OGL LOG][Proc: 0]p_matrix: call_update: 12.218 [ms]
[OGL LOG][Proc: 0]p_rhs: call_update: 2.943 [ms]
[OGL LOG][Proc: 0]p: init_precond: 0.031 [ms]
[OGL LOG][StoppingCriterion.H:372] Creating stopping criterion with minIter 900 frequency 12
[OGL LOG][Proc: 0]p: generate_solver: 0.002 [ms]
[OGL LOG][Proc: 0]p: solve: 2024.67 [ms]
[OGL LOG][Proc: 0]p: copy_x_back: 4.964 [ms]
[OGL LOG][lduLduBase.H:339] 
Statistics:
	Time per iteration: 1359 [mu s]
	Time per residual norm calculation: 295.000000 [mu s]
	Time per iteration and DOF: 0.169875 [ns]
	Retrieve results bandwidth 1.611000 [GByte/s]
[OGL LOG][Proc: 0]p: solve_multi_gpu: 2045.54 [ms]
nonehipGKOCG:  Solving for p, Initial residual = 0.471755, Final residual = 9.14138e-05, No Iterations 1489
[INFO] SolveP: 2101.85 [ms]
time step continuity errors : sum local = 5.11723e-09, global = -4.25212e-21, cumulative = -3.84533e-20
[INFO] ContinuityError: 31.406 [ms]
[INFO] CorrectBoundary: 1.016 [ms]
[INFO] PISOStep: 2610.75 [ms]
[INFO] MatrixAssemblyPI: 276.017 [ms]
[INFO] AdjustPhi: 14.501 [ms]
[INFO] ConstrainPressure: 0.003 [ms]
[INFO] MatrixAssemblyPII: 81.36 [ms]
[OGL LOG][Proc: 0]: global_index_init: 0.109 [ms]
[OGL LOG][Proc: 0]p_local_coeffs: call_update: 0 [ms]
[OGL LOG][Proc: 0]p_non_local_coeffs: call_update: 0 [ms]
[OGL LOG][Proc: 0]p: update_local_matrix_data: 45.092 [ms]
[OGL LOG][Proc: 0]p: update_non_local_matrix_data: 0.335 [ms]
[OGL LOG][Proc: 0]p_matrix: call_update: 13.106 [ms]
[OGL LOG][Proc: 0]p_rhs: call_update: 2.482 [ms]
[OGL LOG][Proc: 0]p: init_precond: 0.033 [ms]
[OGL LOG][StoppingCriterion.H:372] Creating stopping criterion with minIter 893 frequency 12
[OGL LOG][Proc: 0]p: generate_solver: 0.002 [ms]
[OGL LOG][Proc: 0]p: solve: 2044.27 [ms]
[OGL LOG][Proc: 0]p: copy_x_back: 4.9 [ms]
[OGL LOG][lduLduBase.H:339] 
Statistics:
	Time per iteration: 1372 [mu s]
	Time per residual norm calculation: 323.000000 [mu s]
	Time per iteration and DOF: 0.171500 [ns]
	Retrieve results bandwidth 1.632000 [GByte/s]
[OGL LOG][Proc: 0]p: solve_multi_gpu: 2065.74 [ms]
nonehipGKOCG:  Solving for p, Initial residual = 0.417027, Final residual = 8.75815e-05, No Iterations 1489
[INFO] SolveP: 2121.76 [ms]
time step continuity errors : sum local = 4.90804e-09, global = -3.98571e-21, cumulative = -4.2439e-20
[INFO] ContinuityError: 27.339 [ms]
[INFO] CorrectBoundary: 0.844 [ms]
[INFO] PISOStep: 2621.24 [ms]
[INFO] TimeStep: 7454.43 [ms]
ExecutionTime = 78.26 s  ClockTime = 79 s

Time = 0.003

Courant Number mean: 0.0500919 max: 0.483039
[INFO] MatrixAssemblyU: 264.768 [ms]
DILUPBiCGStab:  Solving for Ux, Initial residual = 0.00857571, Final residual = 0.000170898, No Iterations 5
DILUPBiCGStab:  Solving for Uy, Initial residual = 0.0221858, Final residual = 0.000438798, No Iterations 5
DILUPBiCGStab:  Solving for Uz, Initial residual = 0.0889966, Final residual = 0.00332621, No Iterations 5
[INFO] MomentumPredictor: 1926.63 [ms]
[INFO] MatrixAssemblyPI: 286.646 [ms]
[INFO] AdjustPhi: 12.891 [ms]
[INFO] ConstrainPressure: 0.002 [ms]
[INFO] MatrixAssemblyPII: 81.062 [ms]
[OGL LOG][Proc: 0]: global_index_init: 0.051 [ms]
[OGL LOG][Proc: 0]p_local_coeffs: call_update: 0 [ms]
[OGL LOG][Proc: 0]p_non_local_coeffs: call_update: 0 [ms]
[OGL LOG][Proc: 0]p: update_local_matrix_data: 46.158 [ms]
[OGL LOG][Proc: 0]p: update_non_local_matrix_data: 0.124 [ms]
[OGL LOG][Proc: 0]p_matrix: call_update: 9.894 [ms]
[OGL LOG][Proc: 0]p_rhs: call_update: 3.596 [ms]
[OGL LOG][Proc: 0]p: init_precond: 0.036 [ms]
[OGL LOG][StoppingCriterion.H:372] Creating stopping criterion with minIter 893 frequency 12
[OGL LOG][Proc: 0]p: generate_solver: 0.002 [ms]
[OGL LOG][Proc: 0]p: solve: 2014.97 [ms]
[OGL LOG][Proc: 0]p: copy_x_back: 4.695 [ms]
[OGL LOG][lduLduBase.H:339] 
Statistics:
	Time per iteration: 1353 [mu s]
	Time per residual norm calculation: 294.000000 [mu s]
	Time per iteration and DOF: 0.169125 [ns]
	Retrieve results bandwidth 1.703000 [GByte/s]
[OGL LOG][Proc: 0]p: solve_multi_gpu: 2033.82 [ms]
nonehipGKOCG:  Solving for p, Initial residual = 0.414488, Final residual = 8.84155e-05, No Iterations 1489
[INFO] SolveP: 2091.04 [ms]
time step continuity errors : sum local = 4.80906e-09, global = -6.01523e-21, cumulative = -4.84543e-20
[INFO] ContinuityError: 28.503 [ms]
[INFO] CorrectBoundary: 0.471 [ms]
[INFO] PISOStep: 2599.28 [ms]
[INFO] MatrixAssemblyPI: 277.576 [ms]
[INFO] AdjustPhi: 12.879 [ms]
[INFO] ConstrainPressure: 0.004 [ms]
[INFO] MatrixAssemblyPII: 80.953 [ms]
[OGL LOG][Proc: 0]: global_index_init: 0.105 [ms]
[OGL LOG][Proc: 0]p_local_coeffs: call_update: 0 [ms]
[OGL LOG][Proc: 0]p_non_local_coeffs: call_update: 0 [ms]
[OGL LOG][Proc: 0]p: update_local_matrix_data: 46.127 [ms]
[OGL LOG][Proc: 0]p: update_non_local_matrix_data: 0.172 [ms]
[OGL LOG][Proc: 0]p_matrix: call_update: 10.437 [ms]
[OGL LOG][Proc: 0]p_rhs: call_update: 4.106 [ms]
[OGL LOG][Proc: 0]p: init_precond: 0.039 [ms]
[OGL LOG][StoppingCriterion.H:372] Creating stopping criterion with minIter 893 frequency 12
[OGL LOG][Proc: 0]p: generate_solver: 0.002 [ms]
[OGL LOG][Proc: 0]p: solve: 2027.19 [ms]
[OGL LOG][Proc: 0]p: copy_x_back: 4.722 [ms]
[OGL LOG][lduLduBase.H:339] 
Statistics:
	Time per iteration: 1361 [mu s]
	Time per residual norm calculation: 318.000000 [mu s]
	Time per iteration and DOF: 0.170125 [ns]
	Retrieve results bandwidth 1.694000 [GByte/s]
[OGL LOG][Proc: 0]p: solve_multi_gpu: 2047.14 [ms]
nonehipGKOCG:  Solving for p, Initial residual = 0.367616, Final residual = 8.77913e-05, No Iterations 1489
[INFO] SolveP: 2104.28 [ms]
time step continuity errors : sum local = 4.75364e-09, global = -2.66637e-21, cumulative = -5.11206e-20
[INFO] ContinuityError: 30.353 [ms]
[INFO] CorrectBoundary: 0.67 [ms]
[INFO] PISOStep: 2604.4 [ms]
[INFO] TimeStep: 7425.96 [ms]
ExecutionTime = 85.63 s  ClockTime = 87 s

Time = 0.00325

Courant Number mean: 0.051701 max: 0.483603
[INFO] MatrixAssemblyU: 260.405 [ms]
DILUPBiCGStab:  Solving for Ux, Initial residual = 0.0077859, Final residual = 0.000146896, No Iterations 5
DILUPBiCGStab:  Solving for Uy, Initial residual = 0.0194173, Final residual = 0.000338967, No Iterations 5
DILUPBiCGStab:  Solving for Uz, Initial residual = 0.0761167, Final residual = 0.00311926, No Iterations 5
[INFO] MomentumPredictor: 1951.18 [ms]
[INFO] MatrixAssemblyPI: 283.047 [ms]
[INFO] AdjustPhi: 20.043 [ms]
[INFO] ConstrainPressure: 0.003 [ms]
[INFO] MatrixAssemblyPII: 80.302 [ms]
[OGL LOG][Proc: 0]: global_index_init: 0.092 [ms]
[OGL LOG][Proc: 0]p_local_coeffs: call_update: 0 [ms]
[OGL LOG][Proc: 0]p_non_local_coeffs: call_update: 0 [ms]
[OGL LOG][Proc: 0]p: update_local_matrix_data: 45.948 [ms]
[OGL LOG][Proc: 0]p: update_non_local_matrix_data: 0.15 [ms]
[OGL LOG][Proc: 0]p_matrix: call_update: 9.728 [ms]
[OGL LOG][Proc: 0]p_rhs: call_update: 7.266 [ms]
[OGL LOG][Proc: 0]p: init_precond: 0.033 [ms]
[OGL LOG][StoppingCriterion.H:372] Creating stopping criterion with minIter 893 frequency 12
[OGL LOG][Proc: 0]p: generate_solver: 0.002 [ms]
[OGL LOG][Proc: 0]p: solve: 2023.87 [ms]
[OGL LOG][Proc: 0]p: copy_x_back: 4.829 [ms]
[OGL LOG][lduLduBase.H:339] 
Statistics:
	Time per iteration: 1359 [mu s]
	Time per residual norm calculation: 289.000000 [mu s]
	Time per iteration and DOF: 0.169875 [ns]
	Retrieve results bandwidth 1.656000 [GByte/s]
[OGL LOG][Proc: 0]p: solve_multi_gpu: 2046.38 [ms]
nonehipGKOCG:  Solving for p, Initial residual = 0.383795, Final residual = 8.03214e-05, No Iterations 1489
[INFO] SolveP: 2103.29 [ms]
time step continuity errors : sum local = 4.08517e-09, global = -3.29197e-21, cumulative = -5.44126e-20
[INFO] ContinuityError: 28.833 [ms]
[INFO] CorrectBoundary: 0.769 [ms]
[INFO] PISOStep: 2616.37 [ms]
[INFO] MatrixAssemblyPI: 278.717 [ms]
[INFO] AdjustPhi: 12.241 [ms]
[INFO] ConstrainPressure: 0.005 [ms]
[INFO] MatrixAssemblyPII: 81.243 [ms]
[OGL LOG][Proc: 0]: global_index_init: 0.082 [ms]
[OGL LOG][Proc: 0]p_local_coeffs: call_update: 0 [ms]
[OGL LOG][Proc: 0]p_non_local_coeffs: call_update: 0 [ms]
[OGL LOG][Proc: 0]p: update_local_matrix_data: 45.943 [ms]
[OGL LOG][Proc: 0]p: update_non_local_matrix_data: 0.133 [ms]
[OGL LOG][Proc: 0]p_matrix: call_update: 9.832 [ms]
[OGL LOG][Proc: 0]p_rhs: call_update: 4.913 [ms]
[OGL LOG][Proc: 0]p: init_precond: 0.055 [ms]
[OGL LOG][StoppingCriterion.H:372] Creating stopping criterion with minIter 893 frequency 12
[OGL LOG][Proc: 0]p: generate_solver: 0.002 [ms]
[OGL LOG][Proc: 0]p: solve: 2033.87 [ms]
[OGL LOG][Proc: 0]p: copy_x_back: 5.003 [ms]
[OGL LOG][lduLduBase.H:339] 
Statistics:
	Time per iteration: 1365 [mu s]
	Time per residual norm calculation: 284.000000 [mu s]
	Time per iteration and DOF: 0.170625 [ns]
	Retrieve results bandwidth 1.599000 [GByte/s]
[OGL LOG][Proc: 0]p: solve_multi_gpu: 2054.41 [ms]
nonehipGKOCG:  Solving for p, Initial residual = 0.337398, Final residual = 8.01882e-05, No Iterations 1489
[INFO] SolveP: 2111 [ms]
time step continuity errors : sum local = 4.08381e-09, global = -1.84361e-21, cumulative = -5.62562e-20
[INFO] ContinuityError: 29.507 [ms]
[INFO] CorrectBoundary: 1.055 [ms]
[INFO] PISOStep: 2612.01 [ms]
[INFO] TimeStep: 7470.5 [ms]
ExecutionTime = 93.05 s  ClockTime = 94 s

Time = 0.0035

Courant Number mean: 0.0531952 max: 0.484199
[INFO] MatrixAssemblyU: 266.283 [ms]
DILUPBiCGStab:  Solving for Ux, Initial residual = 0.00705317, Final residual = 0.000126284, No Iterations 5
DILUPBiCGStab:  Solving for Uy, Initial residual = 0.0176122, Final residual = 0.000281025, No Iterations 5
DILUPBiCGStab:  Solving for Uz, Initial residual = 0.0654274, Final residual = 0.00267874, No Iterations 5
[INFO] MomentumPredictor: 1922.97 [ms]
[INFO] MatrixAssemblyPI: 281.093 [ms]
[INFO] AdjustPhi: 17.171 [ms]
[INFO] ConstrainPressure: 0.003 [ms]
[INFO] MatrixAssemblyPII: 81.064 [ms]
[OGL LOG][Proc: 0]: global_index_init: 0.034 [ms]
[OGL LOG][Proc: 0]p_local_coeffs: call_update: 0 [ms]
[OGL LOG][Proc: 0]p_non_local_coeffs: call_update: 0 [ms]
[OGL LOG][Proc: 0]p: update_local_matrix_data: 46.227 [ms]
[OGL LOG][Proc: 0]p: update_non_local_matrix_data: 0.111 [ms]
[OGL LOG][Proc: 0]p_matrix: call_update: 12.609 [ms]
[OGL LOG][Proc: 0]p_rhs: call_update: 2.541 [ms]
[OGL LOG][Proc: 0]p: init_precond: 0.032 [ms]
[OGL LOG][StoppingCriterion.H:372] Creating stopping criterion with minIter 893 frequency 12
[OGL LOG][Proc: 0]p: generate_solver: 0.001 [ms]
[OGL LOG][Proc: 0]p: solve: 2041.14 [ms]
[OGL LOG][Proc: 0]p: copy_x_back: 4.959 [ms]
[OGL LOG][lduLduBase.H:339] 
Statistics:
	Time per iteration: 1370 [mu s]
	Time per residual norm calculation: 295.000000 [mu s]
	Time per iteration and DOF: 0.171250 [ns]
	Retrieve results bandwidth 1.613000 [GByte/s]
[OGL LOG][Proc: 0]p: solve_multi_gpu: 2061.94 [ms]
nonehipGKOCG:  Solving for p, Initial residual = 0.342005, Final residual = 7.82087e-05, No Iterations 1489
[INFO] SolveP: 2118.94 [ms]
time step continuity errors : sum local = 3.84861e-09, global = -1.00669e-21, cumulative = -5.72629e-20
[INFO] ContinuityError: 31.483 [ms]
[INFO] CorrectBoundary: 3.256 [ms]
[INFO] PISOStep: 2627.5 [ms]
[INFO] MatrixAssemblyPI: 281.9 [ms]
[INFO] AdjustPhi: 13.368 [ms]
[INFO] ConstrainPressure: 0.003 [ms]
[INFO] MatrixAssemblyPII: 79.981 [ms]
[OGL LOG][Proc: 0]: global_index_init: 0.032 [ms]
[OGL LOG][Proc: 0]p_local_coeffs: call_update: 0 [ms]
[OGL LOG][Proc: 0]p_non_local_coeffs: call_update: 0 [ms]
[OGL LOG][Proc: 0]p: update_local_matrix_data: 46.151 [ms]
[OGL LOG][Proc: 0]p: update_non_local_matrix_data: 0.116 [ms]
[OGL LOG][Proc: 0]p_matrix: call_update: 10.042 [ms]
[OGL LOG][Proc: 0]p_rhs: call_update: 3.231 [ms]
[OGL LOG][Proc: 0]p: init_precond: 0.032 [ms]
[OGL LOG][StoppingCriterion.H:372] Creating stopping criterion with minIter 893 frequency 12
[OGL LOG][Proc: 0]p: generate_solver: 0.002 [ms]
[OGL LOG][Proc: 0]p: solve: 2024.24 [ms]
[OGL LOG][Proc: 0]p: copy_x_back: 5.017 [ms]
[OGL LOG][lduLduBase.H:339] 
Statistics:
	Time per iteration: 1359 [mu s]
	Time per residual norm calculation: 288.000000 [mu s]
	Time per iteration and DOF: 0.169875 [ns]
	Retrieve results bandwidth 1.594000 [GByte/s]
[OGL LOG][Proc: 0]p: solve_multi_gpu: 2043.22 [ms]
nonehipGKOCG:  Solving for p, Initial residual = 0.302201, Final residual = 7.76264e-05, No Iterations 1489
[INFO] SolveP: 2100.24 [ms]
time step continuity errors : sum local = 3.80461e-09, global = -3.46091e-21, cumulative = -6.07238e-20
[INFO] ContinuityError: 27.502 [ms]
[INFO] CorrectBoundary: 0.869 [ms]
[INFO] PISOStep: 2605.54 [ms]
[INFO] TimeStep: 7452.11 [ms]
ExecutionTime = 100.45 s  ClockTime = 102 s

Time = 0.00375

Courant Number mean: 0.0545956 max: 0.484637
[INFO] MatrixAssemblyU: 257.222 [ms]
DILUPBiCGStab:  Solving for Ux, Initial residual = 0.00646996, Final residual = 0.00011008, No Iterations 5
DILUPBiCGStab:  Solving for Uy, Initial residual = 0.0157812, Final residual = 0.000234425, No Iterations 5
DILUPBiCGStab:  Solving for Uz, Initial residual = 0.0567055, Final residual = 0.00245581, No Iterations 5
[INFO] MomentumPredictor: 1931.35 [ms]
[INFO] MatrixAssemblyPI: 284.522 [ms]
[INFO] AdjustPhi: 15.414 [ms]
[INFO] ConstrainPressure: 0.002 [ms]
[INFO] MatrixAssemblyPII: 81.329 [ms]
[OGL LOG][Proc: 0]: global_index_init: 0.106 [ms]
[OGL LOG][Proc: 0]p_local_coeffs: call_update: 0 [ms]
[OGL LOG][Proc: 0]p_non_local_coeffs: call_update: 0 [ms]
[OGL LOG][Proc: 0]p: update_local_matrix_data: 46.301 [ms]
[OGL LOG][Proc: 0]p: update_non_local_matrix_data: 0.116 [ms]
[OGL LOG][Proc: 0]p_matrix: call_update: 10.008 [ms]
[OGL LOG][Proc: 0]p_rhs: call_update: 3.776 [ms]
[OGL LOG][Proc: 0]p: init_precond: 0.032 [ms]
[OGL LOG][StoppingCriterion.H:372] Creating stopping criterion with minIter 893 frequency 12
[OGL LOG][Proc: 0]p: generate_solver: 0.002 [ms]
[OGL LOG][Proc: 0]p: solve: 2028.56 [ms]
[OGL LOG][Proc: 0]p: copy_x_back: 4.968 [ms]
[OGL LOG][lduLduBase.H:339] 
Statistics:
	Time per iteration: 1362 [mu s]
	Time per residual norm calculation: 289.000000 [mu s]
	Time per iteration and DOF: 0.170250 [ns]
	Retrieve results bandwidth 1.610000 [GByte/s]
[OGL LOG][Proc: 0]p: solve_multi_gpu: 2047.99 [ms]
nonehipGKOCG:  Solving for p, Initial residual = 0.309755, Final residual = 6.59616e-05, No Iterations 1489
[INFO] SolveP: 2105.39 [ms]
time step continuity errors : sum local = 3.11671e-09, global = -1.45336e-21, cumulative = -6.21772e-20
[INFO] ContinuityError: 25.003 [ms]
[INFO] CorrectBoundary: 1.667 [ms]
[INFO] PISOStep: 2614.87 [ms]
[INFO] MatrixAssemblyPI: 277.256 [ms]
[INFO] AdjustPhi: 13.23 [ms]
[INFO] ConstrainPressure: 0.004 [ms]
[INFO] MatrixAssemblyPII: 79.526 [ms]
[OGL LOG][Proc: 0]: global_index_init: 0.066 [ms]
[OGL LOG][Proc: 0]p_local_coeffs: call_update: 0 [ms]
[OGL LOG][Proc: 0]p_non_local_coeffs: call_update: 0 [ms]
[OGL LOG][Proc: 0]p: update_local_matrix_data: 46.15 [ms]
[OGL LOG][Proc: 0]p: update_non_local_matrix_data: 0.172 [ms]
[OGL LOG][Proc: 0]p_matrix: call_update: 11.449 [ms]
[OGL LOG][Proc: 0]p_rhs: call_update: 3.018 [ms]
[OGL LOG][Proc: 0]p: init_precond: 0.032 [ms]
[OGL LOG][StoppingCriterion.H:372] Creating stopping criterion with minIter 893 frequency 12
[OGL LOG][Proc: 0]p: generate_solver: 0.002 [ms]
[OGL LOG][Proc: 0]p: solve: 2006.37 [ms]
[OGL LOG][Proc: 0]p: copy_x_back: 4.641 [ms]
[OGL LOG][lduLduBase.H:339] 
Statistics:
	Time per iteration: 1358 [mu s]
	Time per residual norm calculation: 324.000000 [mu s]
	Time per iteration and DOF: 0.169750 [ns]
	Retrieve results bandwidth 1.723000 [GByte/s]
[OGL LOG][Proc: 0]p: solve_multi_gpu: 2026.15 [ms]
nonehipGKOCG:  Solving for p, Initial residual = 0.271574, Final residual = 9.41999e-05, No Iterations 1477
[INFO] SolveP: 2083.26 [ms]
time step continuity errors : sum local = 4.45609e-09, global = -3.22331e-21, cumulative = -6.54005e-20
[INFO] ContinuityError: 28.483 [ms]
[INFO] CorrectBoundary: 4.203 [ms]
[INFO] PISOStep: 2580.83 [ms]
[INFO] TimeStep: 7414.21 [ms]
ExecutionTime = 107.81 s  ClockTime = 109 s

Time = 0.004

Courant Number mean: 0.0559077 max: 0.485102
[INFO] MatrixAssemblyU: 263.511 [ms]
DILUPBiCGStab:  Solving for Ux, Initial residual = 0.0059477, Final residual = 9.66529e-05, No Iterations 5
DILUPBiCGStab:  Solving for Uy, Initial residual = 0.0144875, Final residual = 0.00019646, No Iterations 5
DILUPBiCGStab:  Solving for Uz, Initial residual = 0.049933, Final residual = 0.00213883, No Iterations 5
[INFO] MomentumPredictor: 1924.83 [ms]
[INFO] MatrixAssemblyPI: 286.147 [ms]
[INFO] AdjustPhi: 13.188 [ms]
[INFO] ConstrainPressure: 0.003 [ms]
[INFO] MatrixAssemblyPII: 81.745 [ms]
[OGL LOG][Proc: 0]: global_index_init: 0.076 [ms]
[OGL LOG][Proc: 0]p_local_coeffs: call_update: 0 [ms]
[OGL LOG][Proc: 0]p_non_local_coeffs: call_update: 0 [ms]
[OGL LOG][Proc: 0]p: update_local_matrix_data: 46.023 [ms]
[OGL LOG][Proc: 0]p: update_non_local_matrix_data: 0.146 [ms]
[OGL LOG][Proc: 0]p_matrix: call_update: 13.805 [ms]
[OGL LOG][Proc: 0]p_rhs: call_update: 3.383 [ms]
[OGL LOG][Proc: 0]p: init_precond: 0.034 [ms]
[OGL LOG][StoppingCriterion.H:372] Creating stopping criterion with minIter 886 frequency 12
[OGL LOG][Proc: 0]p: generate_solver: 0.002 [ms]
[OGL LOG][Proc: 0]p: solve: 2014.44 [ms]
[OGL LOG][Proc: 0]p: copy_x_back: 4.862 [ms]
[OGL LOG][lduLduBase.H:339] 
Statistics:
	Time per iteration: 1363 [mu s]
	Time per residual norm calculation: 320.000000 [mu s]
	Time per iteration and DOF: 0.170375 [ns]
	Retrieve results bandwidth 1.645000 [GByte/s]
[OGL LOG][Proc: 0]p: solve_multi_gpu: 2037.16 [ms]
nonehipGKOCG:  Solving for p, Initial residual = 0.279301, Final residual = 9.93431e-05, No Iterations 1477
[INFO] SolveP: 2093.95 [ms]
time step continuity errors : sum local = 4.52375e-09, global = -3.76141e-21, cumulative = -6.91619e-20
[INFO] ContinuityError: 26.773 [ms]
[INFO] CorrectBoundary: 1.311 [ms]
[INFO] PISOStep: 2601.94 [ms]
[INFO] MatrixAssemblyPI: 277.061 [ms]
[INFO] AdjustPhi: 17.55 [ms]
[INFO] ConstrainPressure: 0.004 [ms]
[INFO] MatrixAssemblyPII: 77.36 [ms]
[OGL LOG][Proc: 0]: global_index_init: 0.011 [ms]
[OGL LOG][Proc: 0]p_local_coeffs: call_update: 0 [ms]
[OGL LOG][Proc: 0]p_non_local_coeffs: call_update: 0 [ms]
[OGL LOG][Proc: 0]p: update_local_matrix_data: 46.23 [ms]
[OGL LOG][Proc: 0]p: update_non_local_matrix_data: 0.114 [ms]
[OGL LOG][Proc: 0]p_matrix: call_update: 10.36 [ms]
[OGL LOG][Proc: 0]p_rhs: call_update: 4.168 [ms]
[OGL LOG][Proc: 0]p: init_precond: 0.032 [ms]
[OGL LOG][StoppingCriterion.H:372] Creating stopping criterion with minIter 886 frequency 12
[OGL LOG][Proc: 0]p: generate_solver: 0.002 [ms]
[OGL LOG][Proc: 0]p: solve: 2007.39 [ms]
[OGL LOG][Proc: 0]p: copy_x_back: 4.752 [ms]
[OGL LOG][lduLduBase.H:339] 
Statistics:
	Time per iteration: 1359 [mu s]
	Time per residual norm calculation: 320.000000 [mu s]
	Time per iteration and DOF: 0.169875 [ns]
	Retrieve results bandwidth 1.683000 [GByte/s]
[OGL LOG][Proc: 0]p: solve_multi_gpu: 2027.38 [ms]
nonehipGKOCG:  Solving for p, Initial residual = 0.245983, Final residual = 9.55913e-05, No Iterations 1477
[INFO] SolveP: 2084.38 [ms]
time step continuity errors : sum local = 4.33871e-09, global = 1.4181e-21, cumulative = -6.77438e-20
[INFO] ContinuityError: 29.343 [ms]
[INFO] CorrectBoundary: 0.532 [ms]
[INFO] PISOStep: 2589.94 [ms]
[INFO] TimeStep: 7411.35 [ms]
ExecutionTime = 115.16 s  ClockTime = 116 s

Time = 0.00425

Courant Number mean: 0.0571444 max: 0.485458
[INFO] MatrixAssemblyU: 265.555 [ms]
DILUPBiCGStab:  Solving for Ux, Initial residual = 0.00550196, Final residual = 8.50792e-05, No Iterations 5
DILUPBiCGStab:  Solving for Uy, Initial residual = 0.013199, Final residual = 0.00017442, No Iterations 5
DILUPBiCGStab:  Solving for Uz, Initial residual = 0.043819, Final residual = 0.0019203, No Iterations 5
[INFO] MomentumPredictor: 1924.9 [ms]
[INFO] MatrixAssemblyPI: 287.35 [ms]
[INFO] AdjustPhi: 12.998 [ms]
[INFO] ConstrainPressure: 0.003 [ms]
[INFO] MatrixAssemblyPII: 81.779 [ms]
[OGL LOG][Proc: 0]: global_index_init: 0.027 [ms]
[OGL LOG][Proc: 0]p_local_coeffs: call_update: 0 [ms]
[OGL LOG][Proc: 0]p_non_local_coeffs: call_update: 0 [ms]
[OGL LOG][Proc: 0]p: update_local_matrix_data: 46.154 [ms]
[OGL LOG][Proc: 0]p: update_non_local_matrix_data: 0.11 [ms]
[OGL LOG][Proc: 0]p_matrix: call_update: 12.48 [ms]
[OGL LOG][Proc: 0]p_rhs: call_update: 3.503 [ms]
[OGL LOG][Proc: 0]p: init_precond: 0.051 [ms]
[OGL LOG][StoppingCriterion.H:372] Creating stopping criterion with minIter 886 frequency 12
[OGL LOG][Proc: 0]p: generate_solver: 0.002 [ms]
[OGL LOG][Proc: 0]p: solve: 1223.54 [ms]
[OGL LOG][Proc: 0]p: copy_x_back: 4.861 [ms]
[OGL LOG][lduLduBase.H:339] 
Statistics:
	Time per iteration: 1376 [mu s]
	Time per residual norm calculation: 294.000000 [mu s]
	Time per iteration and DOF: 0.172000 [ns]
	Retrieve results bandwidth 1.645000 [GByte/s]
[OGL LOG][Proc: 0]p: solve_multi_gpu: 1245.16 [ms]
nonehipGKOCG:  Solving for p, Initial residual = 0.249398, Final residual = 8.57504e-05, No Iterations 889
[INFO] SolveP: 1301.72 [ms]
time step continuity errors : sum local = 3.97059e-09, global = -2.13083e-21, cumulative = -6.98746e-20
[INFO] ContinuityError: 29.095 [ms]
[INFO] CorrectBoundary: 0.607 [ms]
[INFO] PISOStep: 1809.95 [ms]
[INFO] MatrixAssemblyPI: 272.984 [ms]
[INFO] AdjustPhi: 20.653 [ms]
[INFO] ConstrainPressure: 0.005 [ms]
[INFO] MatrixAssemblyPII: 78.257 [ms]
[OGL LOG][Proc: 0]: global_index_init: 0.032 [ms]
[OGL LOG][Proc: 0]p_local_coeffs: call_update: 0 [ms]
[OGL LOG][Proc: 0]p_non_local_coeffs: call_update: 0 [ms]
[OGL LOG][Proc: 0]p: update_local_matrix_data: 45.66 [ms]
[OGL LOG][Proc: 0]p: update_non_local_matrix_data: 0.29 [ms]
[OGL LOG][Proc: 0]p_matrix: call_update: 12.211 [ms]
[OGL LOG][Proc: 0]p_rhs: call_update: 2.902 [ms]
[OGL LOG][Proc: 0]p: init_precond: 0.03 [ms]
[OGL LOG][StoppingCriterion.H:372] Creating stopping criterion with minIter 533 frequency 9
[OGL LOG][Proc: 0]p: generate_solver: 0.002 [ms]
[OGL LOG][Proc: 0]p: solve: 919.92 [ms]
[OGL LOG][Proc: 0]p: copy_x_back: 4.95 [ms]
[OGL LOG][lduLduBase.H:339] 
Statistics:
	Time per iteration: 1398 [mu s]
	Time per residual norm calculation: 327.000000 [mu s]
	Time per iteration and DOF: 0.174750 [ns]
	Retrieve results bandwidth 1.616000 [GByte/s]
[OGL LOG][Proc: 0]p: solve_multi_gpu: 940.647 [ms]
nonehipGKOCG:  Solving for p, Initial residual = 0.218077, Final residual = 9.41969e-05, No Iterations 658
[INFO] SolveP: 997.237 [ms]
time step continuity errors : sum local = 4.25221e-09, global = -1.61042e-21, cumulative = -7.14851e-20
[INFO] ContinuityError: 28.746 [ms]
[INFO] CorrectBoundary: 0.403 [ms]
[INFO] PISOStep: 1498.96 [ms]
[INFO] TimeStep: 5530.77 [ms]
ExecutionTime = 120.64 s  ClockTime = 122 s

Time = 0.0045

Courant Number mean: 0.0583118 max: 0.485831
[INFO] MatrixAssemblyU: 262.615 [ms]
DILUPBiCGStab:  Solving for Ux, Initial residual = 0.00511482, Final residual = 7.58596e-05, No Iterations 5
DILUPBiCGStab:  Solving for Uy, Initial residual = 0.0122355, Final residual = 0.000149633, No Iterations 5
DILUPBiCGStab:  Solving for Uz, Initial residual = 0.0394367, Final residual = 0.00168266, No Iterations 5
[INFO] MomentumPredictor: 1926.31 [ms]
[INFO] MatrixAssemblyPI: 285.009 [ms]
[INFO] AdjustPhi: 12.901 [ms]
[INFO] ConstrainPressure: 0.002 [ms]
[INFO] MatrixAssemblyPII: 81.558 [ms]
[OGL LOG][Proc: 0]: global_index_init: 0.051 [ms]
[OGL LOG][Proc: 0]p_local_coeffs: call_update: 0 [ms]
[OGL LOG][Proc: 0]p_non_local_coeffs: call_update: 0 [ms]
[OGL LOG][Proc: 0]p: update_local_matrix_data: 46.111 [ms]
[OGL LOG][Proc: 0]p: update_non_local_matrix_data: 0.12 [ms]
[OGL LOG][Proc: 0]p_matrix: call_update: 10.375 [ms]
[OGL LOG][Proc: 0]p_rhs: call_update: 4.306 [ms]
[OGL LOG][Proc: 0]p: init_precond: 0.031 [ms]
[OGL LOG][StoppingCriterion.H:372] Creating stopping criterion with minIter 394 frequency 8
[OGL LOG][Proc: 0]p: generate_solver: 0.002 [ms]
[OGL LOG][Proc: 0]p: solve: 989.336 [ms]
[OGL LOG][Proc: 0]p: copy_x_back: 4.902 [ms]
[OGL LOG][lduLduBase.H:339] 
Statistics:
	Time per iteration: 1419 [mu s]
	Time per residual norm calculation: 293.000000 [mu s]
	Time per iteration and DOF: 0.177375 [ns]
	Retrieve results bandwidth 1.631000 [GByte/s]
[OGL LOG][Proc: 0]p: solve_multi_gpu: 1009.59 [ms]
nonehipGKOCG:  Solving for p, Initial residual = 0.226234, Final residual = 9.75791e-05, No Iterations 697
[INFO] SolveP: 1066.43 [ms]
time step continuity errors : sum local = 4.56813e-09, global = -4.17468e-22, cumulative = -7.19025e-20
[INFO] ContinuityError: 30.747 [ms]
[INFO] CorrectBoundary: 0.996 [ms]
[INFO] PISOStep: 1572.63 [ms]
[INFO] MatrixAssemblyPI: 273.653 [ms]
[INFO] AdjustPhi: 18.527 [ms]
[INFO] ConstrainPressure: 0.004 [ms]
[INFO] MatrixAssemblyPII: 79.718 [ms]
[OGL LOG][Proc: 0]: global_index_init: 0.028 [ms]
[OGL LOG][Proc: 0]p_local_coeffs: call_update: 0 [ms]
[OGL LOG][Proc: 0]p_non_local_coeffs: call_update: 0 [ms]
[OGL LOG][Proc: 0]p: update_local_matrix_data: 46.125 [ms]
[OGL LOG][Proc: 0]p: update_non_local_matrix_data: 0.128 [ms]
[OGL LOG][Proc: 0]p_matrix: call_update: 11.425 [ms]
[OGL LOG][Proc: 0]p_rhs: call_update: 4.022 [ms]
[OGL LOG][Proc: 0]p: init_precond: 0.031 [ms]
[OGL LOG][StoppingCriterion.H:372] Creating stopping criterion with minIter 418 frequency 8
[OGL LOG][Proc: 0]p: generate_solver: 0.002 [ms]
[OGL LOG][Proc: 0]p: solve: 937.068 [ms]
[OGL LOG][Proc: 0]p: copy_x_back: 4.948 [ms]
[OGL LOG][lduLduBase.H:339] 
Statistics:
	Time per iteration: 1409 [mu s]
	Time per residual norm calculation: 317.000000 [mu s]
	Time per iteration and DOF: 0.176125 [ns]
	Retrieve results bandwidth 1.616000 [GByte/s]
[OGL LOG][Proc: 0]p: solve_multi_gpu: 958.164 [ms]
nonehipGKOCG:  Solving for p, Initial residual = 0.19859, Final residual = 9.71434e-05, No Iterations 665
[INFO] SolveP: 1014.96 [ms]
time step continuity errors : sum local = 4.2685e-09, global = -1.22888e-22, cumulative = -7.20254e-20
[INFO] ContinuityError: 29.151 [ms]
[INFO] CorrectBoundary: 0.543 [ms]
[INFO] PISOStep: 1515.69 [ms]
[INFO] TimeStep: 5307.27 [ms]
ExecutionTime = 125.89 s  ClockTime = 127 s

Time = 0.00475

Courant Number mean: 0.0594174 max: 0.486127
[INFO] MatrixAssemblyU: 265.534 [ms]
DILUPBiCGStab:  Solving for Ux, Initial residual = 0.00476001, Final residual = 6.72574e-05, No Iterations 5
DILUPBiCGStab:  Solving for Uy, Initial residual = 0.0113058, Final residual = 0.000137619, No Iterations 5
DILUPBiCGStab:  Solving for Uz, Initial residual = 0.0356284, Final residual = 0.00150919, No Iterations 5
[INFO] MomentumPredictor: 1923.74 [ms]
[INFO] MatrixAssemblyPI: 285.813 [ms]
[INFO] AdjustPhi: 12.298 [ms]
[INFO] ConstrainPressure: 0.003 [ms]
[INFO] MatrixAssemblyPII: 81.851 [ms]
[OGL LOG][Proc: 0]: global_index_init: 0.013 [ms]
[OGL LOG][Proc: 0]p_local_coeffs: call_update: 0 [ms]
[OGL LOG][Proc: 0]p_non_local_coeffs: call_update: 0 [ms]
[OGL LOG][Proc: 0]p: update_local_matrix_data: 46.234 [ms]
[OGL LOG][Proc: 0]p: update_non_local_matrix_data: 0.117 [ms]
[OGL LOG][Proc: 0]p_matrix: call_update: 13.132 [ms]
[OGL LOG][Proc: 0]p_rhs: call_update: 2.033 [ms]
[OGL LOG][Proc: 0]p: init_precond: 0.038 [ms]
[OGL LOG][StoppingCriterion.H:372] Creating stopping criterion with minIter 399 frequency 8
[OGL LOG][Proc: 0]p: generate_solver: 0.002 [ms]
[OGL LOG][Proc: 0]p: solve: 2024.01 [ms]
[OGL LOG][Proc: 0]p: copy_x_back: 4.764 [ms]
[OGL LOG][lduLduBase.H:339] 
Statistics:
	Time per iteration: 1374 [mu s]
	Time per residual norm calculation: 290.000000 [mu s]
	Time per iteration and DOF: 0.171750 [ns]
	Retrieve results bandwidth 1.679000 [GByte/s]
[OGL LOG][Proc: 0]p: solve_multi_gpu: 2044.64 [ms]
nonehipGKOCG:  Solving for p, Initial residual = 0.200652, Final residual = 9.1886e-05, No Iterations 1473
[INFO] SolveP: 2101.51 [ms]
time step continuity errors : sum local = 3.90806e-09, global = -4.20155e-21, cumulative = -7.6227e-20
[INFO] ContinuityError: 28.98 [ms]
[INFO] CorrectBoundary: 0.546 [ms]
[INFO] PISOStep: 2607.53 [ms]
[INFO] MatrixAssemblyPI: 277.612 [ms]
[INFO] AdjustPhi: 15.079 [ms]
[INFO] ConstrainPressure: 0.005 [ms]
[INFO] MatrixAssemblyPII: 79.839 [ms]
[OGL LOG][Proc: 0]: global_index_init: 0.034 [ms]
[OGL LOG][Proc: 0]p_local_coeffs: call_update: 0 [ms]
[OGL LOG][Proc: 0]p_non_local_coeffs: call_update: 0 [ms]
[OGL LOG][Proc: 0]p: update_local_matrix_data: 46.25 [ms]
[OGL LOG][Proc: 0]p: update_non_local_matrix_data: 0.135 [ms]
[OGL LOG][Proc: 0]p_matrix: call_update: 9.668 [ms]
[OGL LOG][Proc: 0]p_rhs: call_update: 5.613 [ms]
[OGL LOG][Proc: 0]p: init_precond: 0.031 [ms]
[OGL LOG][StoppingCriterion.H:372] Creating stopping criterion with minIter 883 frequency 12
[OGL LOG][Proc: 0]p: generate_solver: 0.002 [ms]
[OGL LOG][Proc: 0]p: solve: 2018.9 [ms]
[OGL LOG][Proc: 0]p: copy_x_back: 5.037 [ms]
[OGL LOG][lduLduBase.H:339] 
Statistics:
	Time per iteration: 1366 [mu s]
	Time per residual norm calculation: 325.000000 [mu s]
	Time per iteration and DOF: 0.170750 [ns]
	Retrieve results bandwidth 1.588000 [GByte/s]
[OGL LOG][Proc: 0]p: solve_multi_gpu: 2039.95 [ms]
nonehipGKOCG:  Solving for p, Initial residual = 0.175042, Final residual = 7.40557e-05, No Iterations 1477
[INFO] SolveP: 2096.76 [ms]
time step continuity errors : sum local = 3.15139e-09, global = -3.09697e-21, cumulative = -7.93239e-20
[INFO] ContinuityError: 31.103 [ms]
[INFO] CorrectBoundary: 0.86 [ms]
[INFO] PISOStep: 2599.07 [ms]
[INFO] TimeStep: 7425.88 [ms]
ExecutionTime = 133.25 s  ClockTime = 135 s

Time = 0.005

Courant Number mean: 0.0604662 max: 0.486433
[INFO] MatrixAssemblyU: 259.212 [ms]
DILUPBiCGStab:  Solving for Ux, Initial residual = 0.00446435, Final residual = 6.06484e-05, No Iterations 5
DILUPBiCGStab:  Solving for Uy, Initial residual = 0.0105603, Final residual = 0.000120926, No Iterations 5
DILUPBiCGStab:  Solving for Uz, Initial residual = 0.0323548, Final residual = 0.00129365, No Iterations 5
[INFO] MomentumPredictor: 1928.45 [ms]
[INFO] MatrixAssemblyPI: 285.581 [ms]
[INFO] AdjustPhi: 12.166 [ms]
[INFO] ConstrainPressure: 0.002 [ms]
[INFO] MatrixAssemblyPII: 82.15 [ms]
[OGL LOG][Proc: 0]: global_index_init: 0.028 [ms]
[OGL LOG][Proc: 0]p_local_coeffs: call_update: 0 [ms]
[OGL LOG][Proc: 0]p_non_local_coeffs: call_update: 0 [ms]
[OGL LOG][Proc: 0]p: update_local_matrix_data: 46.283 [ms]
[OGL LOG][Proc: 0]p: update_non_local_matrix_data: 0.158 [ms]
[OGL LOG][Proc: 0]p_matrix: call_update: 11.824 [ms]
[OGL LOG][Proc: 0]p_rhs: call_update: 3.082 [ms]
[OGL LOG][Proc: 0]p: init_precond: 0.029 [ms]
[OGL LOG][StoppingCriterion.H:372] Creating stopping criterion with minIter 886 frequency 12
[OGL LOG][Proc: 0]p: generate_solver: 0.002 [ms]
[OGL LOG][Proc: 0]p: solve: 2025.39 [ms]
[OGL LOG][Proc: 0]p: copy_x_back: 4.576 [ms]
[OGL LOG][lduLduBase.H:339] 
Statistics:
	Time per iteration: 1371 [mu s]
	Time per residual norm calculation: 290.000000 [mu s]
	Time per iteration and DOF: 0.171375 [ns]
	Retrieve results bandwidth 1.748000 [GByte/s]
[OGL LOG][Proc: 0]p: solve_multi_gpu: 2045.56 [ms]
nonehipGKOCG:  Solving for p, Initial residual = 0.182351, Final residual = 7.36255e-05, No Iterations 1477
[INFO] SolveP: 2103.07 [ms]
time step continuity errors : sum local = 3.02513e-09, global = -4.66017e-21, cumulative = -8.39841e-20
[INFO] ContinuityError: 24.615 [ms]
[INFO] CorrectBoundary: 0.49 [ms]
[INFO] PISOStep: 2608.6 [ms]
[INFO] MatrixAssemblyPI: 277.919 [ms]
[INFO] AdjustPhi: 12.834 [ms]
[INFO] ConstrainPressure: 0.003 [ms]
[INFO] MatrixAssemblyPII: 79.418 [ms]
[OGL LOG][Proc: 0]: global_index_init: 0.009 [ms]
[OGL LOG][Proc: 0]p_local_coeffs: call_update: 0 [ms]
[OGL LOG][Proc: 0]p_non_local_coeffs: call_update: 0 [ms]
[OGL LOG][Proc: 0]p: update_local_matrix_data: 46.218 [ms]
[OGL LOG][Proc: 0]p: update_non_local_matrix_data: 0.118 [ms]
[OGL LOG][Proc: 0]p_matrix: call_update: 14.475 [ms]
[OGL LOG][Proc: 0]p_rhs: call_update: 2.455 [ms]
[OGL LOG][Proc: 0]p: init_precond: 0.036 [ms]
[OGL LOG][StoppingCriterion.H:372] Creating stopping criterion with minIter 886 frequency 12
[OGL LOG][Proc: 0]p: generate_solver: 0.002 [ms]
[OGL LOG][Proc: 0]p: solve: 2004.14 [ms]
[OGL LOG][Proc: 0]p: copy_x_back: 4.815 [ms]
[OGL LOG][lduLduBase.H:339] 
Statistics:
	Time per iteration: 1356 [mu s]
	Time per residual norm calculation: 295.000000 [mu s]
	Time per iteration and DOF: 0.169500 [ns]
	Retrieve results bandwidth 1.661000 [GByte/s]
[OGL LOG][Proc: 0]p: solve_multi_gpu: 2026.58 [ms]
nonehipGKOCG:  Solving for p, Initial residual = 0.159743, Final residual = 7.1062e-05, No Iterations 1477
[INFO] SolveP: 2083.57 [ms]
time step continuity errors : sum local = 2.91489e-09, global = -4.74389e-21, cumulative = -8.8728e-20
[INFO] ContinuityError: 28.479 [ms]
[INFO] CorrectBoundary: 0.5 [ms]
[INFO] PISOStep: 2582.19 [ms]
[INFO] TimeStep: 7409.43 [ms]
ExecutionTime = 140.62 s  ClockTime = 142 s

End

Finalising parallel run
