/*---------------------------------------------------------------------------*\
| =========                 |                                                 |
| \\      /  F ield         | OpenFOAM: The Open Source CFD Toolbox           |
|  \\    /   O peration     | Version:  2212                                  |
|   \\  /    A nd           | Website:  www.openfoam.com                      |
|    \\/     M anipulation  |                                                 |
\*---------------------------------------------------------------------------*/
Build  : 5614a57-20230228 OPENFOAM=2212 patch=230110 version=v2212
Arch   : "LSB;label=32;scalar=64"
Exec   : icoFoam -parallel -case /home/greole/data/code/exasim-project/micro_benchmarks/LidDrivenCavity3D/workspace/b8020ba612aad9eb91d82b760e0b0b26/case
Date   : Jun 30 2023
Time   : 09:22:13
Host   : guyot
PID    : 1557418
I/O    : uncollated
Case   : /home/greole/data/code/exasim-project/micro_benchmarks/LidDrivenCavity3D/workspace/b8020ba612aad9eb91d82b760e0b0b26/case
nProcs : 64
Hosts  :
(
    (guyot 64)
)
Pstream initialized with:
    floatTransfer      : 0
    nProcsSimpleSum    : 0
    commsType          : nonBlocking
    polling iterations : 0
trapFpe: Floating point exception trapping enabled (FOAM_SIGFPE).
fileModificationChecking : Monitoring run-time modified files using timeStampMaster (fileModificationSkew 5, maxFileModificationPolls 20)
allowSystemOperations : Allowing user-supplied system call operations

// * * * * * * * * * * * * * * * * * * * * * * * * * * * * * * * * * * * * * //
Create time

--> FOAM Warning : 
    From void* Foam::dlLibraryTable::openLibrary(const Foam::fileName&, bool)
    in file db/dynamicLibrary/dlLibraryTable/dlLibraryTable.C at line 188
    Could not load "libpetscFoam.so"
libpetscFoam.so: cannot open shared object file: No such file or directory
Create mesh for time = 0


PISO: Operating solver in PISO mode

Reading transportProperties

Reading field p

Reading field U

Reading/calculating face flux field phi


Starting time loop

Time = 0.000166

Courant Number mean: 8.14055e-18 max: 3.11001e-14
DILUPBiCGStab:  Solving for Ux, Initial residual = 1, Final residual = 0.0172936, No Iterations 5
DILUPBiCGStab:  Solving for Uy:  solution singularity
DILUPBiCGStab:  Solving for Uz:  solution singularity
[OGL LOG][lduLduBase.H:121] Initialising OGL
	OGL commit:  e496ca7+
	Branch: cyclic-fix-asym 
	Build type: Debug
	Ginkgo version: 1.5.0 ( develop)
	Ginkgo commit: 4292ffdee
	MPI is GPU aware: 1
	Forces host buffer based communication: 1
	CPU ranks per GPU: 1
	Matrix format: Coo
	End OGL_INFO
 cuda init
 device_id 50
 num devices  get__num_devices 
 cuda init
 device_id 51
 num devices  get__num_devices 
 cuda init
 device_id 48
 num devices  get__num_devices 
 cuda init
 device_id 49
 num devices  get__num_devices 
 cuda init
 device_id 60
 num devices  get__num_devices 
 cuda init
 device_id 61
 num devices  get__num_devices 
 cuda init
 device_id 62
 num devices  get__num_devices 
 cuda init
 device_id 63
 num devices  get__num_devices 
 cuda init
 device_id 4
 num devices  get__num_devices 
 cuda init
 device_id 5
 num devices  get__num_devices 
 cuda init
 device_id 6
 num devices  get__num_devices 
 cuda init
 device_id 7
 num devices  get__num_devices 
 cuda init
 device_id 17
 num devices  get__num_devices 
 cuda init
 device_id 18
 num devices  get__num_devices 
 cuda init
 device_id 16
 num devices  get__num_devices 
 cuda init
 device_id 19
 num devices  get__num_devices 
 cuda init
 device_id 56
 cuda init
 device_id 57
 cuda init
 device_id 58
 cuda init
 device_id 59
 num devices  get__num_devices 
 num devices  get__num_devices 
 num devices  get__num_devices 
 num devices  get__num_devices 
 cuda init
 device_id 13
 num devices  get__num_devices 
 cuda init
 device_id 14
 num devices  get__num_devices 
 cuda init
 device_id 12
 num devices  get__num_devices 
 cuda init
 device_id 15
 num devices  get__num_devices 
 cuda init
 device_id 52
 cuda init
 device_id 53
 num devices  get__num_devices 
 cuda init
 device_id 54
 num devices  get__num_devices 
 cuda init
 device_id 55
 num devices  get__num_devices 
 cuda init
 device_id 24
 num devices  get__num_devices 
 cuda init
 device_id 25
 num devices  get__num_devices 
 cuda init
 device_id 26
 num devices  get__num_devices 
 cuda init
 device_id 27
 num devices  get__num_devices 
 num devices  get__num_devices 
 cuda init
 device_id 40
 num devices  get__num_devices 
 cuda init
 device_id 41
 num devices  get__num_devices 
 cuda init
 device_id 42
 num devices  get__num_devices 
 cuda init
 device_id 43
 num devices  get__num_devices 
 cuda init
 device_id 33
 num devices  get__num_devices 
 cuda init
 device_id 34
 num devices  get__num_devices 
 cuda init
 device_id 32
 num devices  get__num_devices 
 cuda init
 device_id 35
 num devices  get__num_devices 
 cuda init
 device_id 36
 num devices  get__num_devices 
 cuda init
 device_id 37
 num devices  get__num_devices 
 cuda init
 device_id 38
 num devices  get__num_devices 
 cuda init
 device_id 39
 num devices  get__num_devices 
 cuda init
 device_id 44
 num devices  get__num_devices 
 cuda init
 device_id 45
 num devices  get__num_devices 
 cuda init
 device_id 46
 num devices  get__num_devices 
 cuda init
 device_id 47
 num devices  get__num_devices 
 cuda init
 device_id 8
 num devices  get__num_devices 
 cuda init
 device_id 9
 num devices  get__num_devices 
 cuda init
 device_id 10
 num devices  get__num_devices 
 cuda init
 device_id 11
 num devices  get__num_devices 
 cuda init
 device_id 20
 num devices  get__num_devices 
 cuda init
 device_id 21
 num devices  get__num_devices 
 cuda init
 device_id 22
 num devices  get__num_devices 
 cuda init
 device_id 23
 num devices  get__num_devices 
 cuda init
 device_id 0
 num devices  get__num_devices 
 cuda init
 device_id 1
 num devices  get__num_devices 
 cuda init
 device_id 2
 num devices  get__num_devices 
 cuda init
 device_id 3
 num devices  get__num_devices 
 cuda init
 device_id 28
 num devices  get__num_devices 
 cuda init
 device_id 29
 num devices  get__num_devices 
 cuda init
 device_id 30
 num devices  get__num_devices 
 cuda init
 device_id 31
 num devices  get__num_devices 
 8
 get__num_devices 
  get__num_devices 
 8
 get__num_devices 
  get__num_devices 
 8
 get__num_devices 
  get__num_devices 
 8
 get__num_devices 
  get__num_devices 
 8
 get__num_devices 
  get__num_devices 
 8
 get__num_devices 
  get__num_devices 
 8
 get__num_devices 
  get__num_devices 
 8
 get__num_devices 
  get__num_devices 
 8
 get__num_devices 
  get__num_devices 
 8
 get__num_devices 
  get__num_devices 
 8
 get__num_devices 
  get__num_devices 
  get__num_devices 
  get__num_devices 
 8
 get__num_devices 
  get__num_devices 
 8
 get__num_devices 
  get__num_devices 
  get__num_devices 
  get__num_devices 
 8
 get__num_devices 
  get__num_devices 
 8
 get__num_devices 
  get__num_devices 
 8
 get__num_devices 
  get__num_devices 
 8
 get__num_devices 
  get__num_devices 
 8
 get__num_devices 
  get__num_devices 
 8
 get__num_devices 
  get__num_devices 
 8
 get__num_devices 
  get__num_devices 
 8
 get__num_devices 
  get__num_devices 
  get__num_devices 
  get__num_devices 
 8
 get__num_devices 
  get__num_devices 
  get__num_devices 
  get__num_devices 
 8
 get__num_devices 
  get__num_devices 
 8
 get__num_devices 
  get__num_devices 
 8
 get__num_devices 
  get__num_devices 
 8
 get__num_devices 
  get__num_devices 
  get__num_devices 
  get__num_devices 
 8
 get__num_devices 
  get__num_devices 
 8
 get__num_devices 
  get__num_devices 
 8
 get__num_devices 
  get__num_devices 
 8
 get__num_devices 
  get__num_devices 
 8
 get__num_devices 
  get__num_devices 
 8
 get__num_devices 
  get__num_devices 
  get__num_devices 
  get__num_devices 
 8
 get__num_devices 
  get__num_devices 
  get__num_devices 
  get__num_devices 
 8
 get__num_devices 
  get__num_devices 
 8
 get__num_devices 
  get__num_devices 
 8
 get__num_devices 
  get__num_devices 
 8
 get__num_devices 
  get__num_devices 
 8
 get__num_devices 
  get__num_devices 
 8
 get__num_devices 
  get__num_devices 
 8
 get__num_devices 
  get__num_devices 
 8
 get__num_devices 
  get__num_devices 
 8
 get__num_devices 
  get__num_devices 
 8
 get__num_devices 
  get__num_devices 
 8
 get__num_devices 
  get__num_devices 
 8
 get__num_devices 
  get__num_devices 
 8
 get__num_devices 
  get__num_devices 
 8
 get__num_devices 
  get__num_devices 
 8
 get__num_devices 
  get__num_devices 
 8
 get__num_devices 
  get__num_devices 
 8
 get__num_devices 
  get__num_devices 
 8
 get__num_devices 
  get__num_devices 
 8
 get__num_devices 
  get__num_devices 
 8
 get__num_devices 
  get__num_devices 
 8
 get__num_devices 
  get__num_devices 
 8
 get__num_devices 
  get__num_devices 
 8
 get__num_devices 
  get__num_devices 
 8
 get__num_devices 
  get__num_devices 
 8
 get__num_devices 
  get__num_devices 
 8
 get__num_devices 
  get__num_devices 
 8
 get__num_devices 
  get__num_devices 
 8
 get__num_devices 
  get__num_devices 
 8
 get__num_devices 
  get__num_devices 
  get__num_devices 
  get__num_devices 
 8
 get__num_devices 
  get__num_devices 
 8
 get__num_devices 
  get__num_devices 
  get__num_devices 
  get__num_devices 
  get__num_devices 
  get__num_devices 
  get__num_devices 
  get__num_devices 
  get__num_devices 
  get__num_devices 
  get__num_devices 
  get__num_devices 
  get__num_devices 
  get__num_devices 
  get__num_devices 
  get__num_devices 
  get__num_devices 
  get__num_devices 
  get__num_devices 
  get__num_devices 
  get__num_devices 
  get__num_devices 
  get__num_devices 
  get__num_devices 
  get__num_devices 
  get__num_devices 
  get__num_devices 
  get__num_devices 
  get__num_devices 
  get__num_devices 
  get__num_devices 
  get__num_devices 
  get__num_devices 
  get__num_devices 
  get__num_devices 
  get__num_devices 
  get__num_devices 
  get__num_devices 
  get__num_devices 
  get__num_devices 
  get__num_devices 
  get__num_devices 
  get__num_devices 
  get__num_devices 
  get__num_devices 
  get__num_devices 
  get__num_devices 
  get__num_devices 
  get__num_devices 
  get__num_devices 
  get__num_devices 
  get__num_devices 
  get__num_devices 
  get__num_devices 
  get__num_devices 
  get__num_devices 
  get__num_devices 
  get__num_devices 
  get__num_devices 
  get__num_devices 
  get__num_devices 
  get__num_devices 
  get__num_devices 
  get__num_devices 
  get__num_devices 
  get__num_devices 
  get__num_devices 
  get__num_devices 
  get__num_devices 
  get__num_devices 
  get__num_devices 
  get__num_devices 
  get__num_devices 
  get__num_devices 
  get__num_devices 
  get__num_devices 
  get__num_devices 
  get__num_devices 
  get__num_devices 
  get__num_devices 
  get__num_devices 
  get__num_devices 
  get__num_devices 
  get__num_devices 
  get__num_devices 
  get__num_devices 
  get__num_devices 
  get__num_devices 
  get__num_devices 
  get__num_devices 
  get__num_devices 
  get__num_devices 
  get__num_devices 
  get__num_devices 
  get__num_devices 
  get__num_devices 
  get__num_devices 
  get__num_devices 
  get__num_devices 
  get__num_devices 
  get__num_devices 
  get__num_devices 
  get__num_devices 
  get__num_devices 
  get__num_devices 
  get__num_devices 
  get__num_devices 
  get__num_devices 
  get__num_devices 
  get__num_devices 
  get__num_devices 
  get__num_devices 
  get__num_devices 
  get__num_devices 
 [OGL LOG][Proc: 0]: global_index_init: 11681.2 [ms]
[OGL LOG][Proc: 0]p_local_cols: call_init: 0.722 [ms]
[OGL LOG][Proc: 0]p_local_rows: call_init: 0.014 [ms]
[OGL LOG][Proc: 0]p_local_ldu_map: call_init: 0.01 [ms]
[OGL LOG][Proc: 0]p_local_coeffs: call_init: 0.336 [ms]
[OGL LOG][Proc: 0]p_non_local_cols: call_init: 0.009 [ms]
[OGL LOG][Proc: 0]p_non_local_rows: call_init: 0.005 [ms]
[OGL LOG][Proc: 0]p_non_local_ldu_map: call_init: 0.005 [ms]
[OGL LOG][Proc: 0]p_non_local_coeffs: call_init: 0.006 [ms]
local_interface_nnzs01[OGL LOG][Proc: 0]p: init_local_sparsity_pattern: 640.476 [ms]
[OGL LOG][Proc: 0]p: init_non_local_sparsity_pattern: 120.618 [ms]
[OGL LOG][Proc: 0]p: update_local_matrix_data: 27.203 [ms]
[OGL LOG][Proc: 0]p: update_non_local_matrix_data: 79.242 [ms]
[OGL LOG][Proc: 0]device_partition: call_init: 98.223 [ms]
[OGL LOG][Proc: 0]p_matrix: call_init: 259.774 [ms]
[OGL LOG][Proc: 0]p_rhs: call_init: 8.764 [ms]
[OGL LOG][Proc: 0]p_solution: call_init: 4.333 [ms]
[OGL LOG][Proc: 0]p: init_precond: 0.334 [ms]
[OGL LOG][StoppingCriterion.H:372] Creating stopping criterion with minIter 0 frequency 1
[OGL LOG][Proc: 0]p: generate_solver: 1.236 [ms]
[OGL LOG][Proc: 0]p: solve: 37515.7 [ms]
[OGL LOG][Proc: 0]p: copy_x_back: 2.096 [ms]
[OGL LOG][lduLduBase.H:319] 
Statistics:
	Time per iteration: 15464 [mu s]
	Time per residual norm calculation: 5126.000000 [mu s]
	Time per iteration and DOF: 0.572741 [ns]
	Retrieve results bandwith 1.631000 [GByte/s]
[OGL LOG][Proc: 0]p: solve_multi_gpu: 37929.7 [ms]
nonecudaGKOCG:  Solving for p, Initial residual = 1, Final residual = 9.86314e-05, No Iterations 2426
time step continuity errors : sum local = 4.41359e-09, global = -1.09832e-22, cumulative = -1.09832e-22
[OGL LOG][Proc: 0]: global_index_init: 0.282 [ms]
[OGL LOG][Proc: 0]p_local_coeffs: call_update: 0.004 [ms]
[OGL LOG][Proc: 0]p_non_local_coeffs: call_update: 0 [ms]
local_interface_nnzs01[OGL LOG][Proc: 0]p: update_local_matrix_data: 69.502 [ms]
[OGL LOG][Proc: 0]p: update_non_local_matrix_data: 1.264 [ms]
[OGL LOG][Proc: 0]p_matrix: call_update: 27.338 [ms]
[OGL LOG][Proc: 0]p_rhs: call_update: 28.398 [ms]
[OGL LOG][Proc: 0]p: init_precond: 0.132 [ms]
[OGL LOG][StoppingCriterion.H:372] Creating stopping criterion with minIter 1455 frequency 17
[OGL LOG][Proc: 0]p: generate_solver: 0.023 [ms]
[OGL LOG][Proc: 0]p: solve: 25915 [ms]
[OGL LOG][Proc: 0]p: copy_x_back: 2.632 [ms]
[OGL LOG][lduLduBase.H:319] 
Statistics:
	Time per iteration: 10730 [mu s]
	Time per residual norm calculation: 4157.000000 [mu s]
	Time per iteration and DOF: 0.397407 [ns]
	Retrieve results bandwith 1.299000 [GByte/s]
[OGL LOG][Proc: 0]p: solve_multi_gpu: 26008.7 [ms]
nonecudaGKOCG:  Solving for p, Initial residual = 0.817606, Final residual = 9.51727e-05, No Iterations 2415
time step continuity errors : sum local = 5.12722e-09, global = 2.84092e-22, cumulative = 1.7426e-22
ExecutionTime = 96.64 s  ClockTime = 126 s

Time = 0.000332

Courant Number mean: 0.0127548 max: 0.426486
DILUPBiCGStab:  Solving for Ux, Initial residual = 0.11703, Final residual = 0.0104925, No Iterations 5
DILUPBiCGStab:  Solving for Uy, Initial residual = 0.460716, Final residual = 0.0344082, No Iterations 5
DILUPBiCGStab:  Solving for Uz, Initial residual = 0.986426, Final residual = 0.0821845, No Iterations 5
[OGL LOG][Proc: 0]: global_index_init: 0.709 [ms]
[OGL LOG][Proc: 0]p_local_coeffs: call_update: 0 [ms]
[OGL LOG][Proc: 0]p_non_local_coeffs: call_update: 0 [ms]
local_interface_nnzs01[OGL LOG][Proc: 0]p: update_local_matrix_data: 69.85 [ms]
[OGL LOG][Proc: 0]p: update_non_local_matrix_data: 0.814 [ms]
[OGL LOG][Proc: 0]p_matrix: call_update: 18.871 [ms]
[OGL LOG][Proc: 0]p_rhs: call_update: 33.226 [ms]
[OGL LOG][Proc: 0]p: init_precond: 0.046 [ms]
[OGL LOG][StoppingCriterion.H:372] Creating stopping criterion with minIter 1449 frequency 21
[OGL LOG][Proc: 0]p: generate_solver: 0.027 [ms]
[OGL LOG][Proc: 0]p: solve: 25734 [ms]
[OGL LOG][Proc: 0]p: copy_x_back: 1.162 [ms]
[OGL LOG][lduLduBase.H:319] 
Statistics:
	Time per iteration: 10744 [mu s]
	Time per residual norm calculation: 4317.000000 [mu s]
	Time per iteration and DOF: 0.397926 [ns]
	Retrieve results bandwith 2.943000 [GByte/s]
[OGL LOG][Proc: 0]p: solve_multi_gpu: 25821.6 [ms]
nonecudaGKOCG:  Solving for p, Initial residual = 0.890392, Final residual = 6.53557e-05, No Iterations 2395
time step continuity errors : sum local = 6.90792e-09, global = 1.00399e-21, cumulative = 1.17825e-21
[OGL LOG][Proc: 0]: global_index_init: 1.204 [ms]
[OGL LOG][Proc: 0]p_local_coeffs: call_update: 0 [ms]
[OGL LOG][Proc: 0]p_non_local_coeffs: call_update: 0 [ms]
local_interface_nnzs01[OGL LOG][Proc: 0]p: update_local_matrix_data: 69.874 [ms]
[OGL LOG][Proc: 0]p: update_non_local_matrix_data: 1.233 [ms]
[OGL LOG][Proc: 0]p_matrix: call_update: 37.015 [ms]
[OGL LOG][Proc: 0]p_rhs: call_update: 14.628 [ms]
[OGL LOG][Proc: 0]p: init_precond: 0.043 [ms]
[OGL LOG][StoppingCriterion.H:372] Creating stopping criterion with minIter 1437 frequency 21
[OGL LOG][Proc: 0]p: generate_solver: 0.025 [ms]
[OGL LOG][Proc: 0]p: solve: 25752 [ms]
[OGL LOG][Proc: 0]p: copy_x_back: 2.24 [ms]
[OGL LOG][lduLduBase.H:319] 
Statistics:
	Time per iteration: 10752 [mu s]
	Time per residual norm calculation: 4605.000000 [mu s]
	Time per iteration and DOF: 0.398222 [ns]
	Retrieve results bandwith 1.526000 [GByte/s]
[OGL LOG][Proc: 0]p: solve_multi_gpu: 25839 [ms]
nonecudaGKOCG:  Solving for p, Initial residual = 0.835729, Final residual = 6.15196e-05, No Iterations 2395
time step continuity errors : sum local = 6.62707e-09, global = 1.2782e-22, cumulative = 1.30607e-21
ExecutionTime = 153.01 s  ClockTime = 183 s

Time = 0.000498

Courant Number mean: 0.019701 max: 0.492013
DILUPBiCGStab:  Solving for Ux, Initial residual = 0.0545228, Final residual = 0.00393192, No Iterations 5
DILUPBiCGStab:  Solving for Uy, Initial residual = 0.227235, Final residual = 0.0175166, No Iterations 5
DILUPBiCGStab:  Solving for Uz, Initial residual = 0.847088, Final residual = 0.0585215, No Iterations 5
[OGL LOG][Proc: 0]: global_index_init: 0.21 [ms]
[OGL LOG][Proc: 0]p_local_coeffs: call_update: 0 [ms]
[OGL LOG][Proc: 0]p_non_local_coeffs: call_update: 0 [ms]
local_interface_nnzs01[OGL LOG][Proc: 0]p: update_local_matrix_data: 69.485 [ms]
[OGL LOG][Proc: 0]p: update_non_local_matrix_data: 1.289 [ms]
[OGL LOG][Proc: 0]p_matrix: call_update: 49.594 [ms]
[OGL LOG][Proc: 0]p_rhs: call_update: 3.895 [ms]
[OGL LOG][Proc: 0]p: init_precond: 0.057 [ms]
[OGL LOG][StoppingCriterion.H:372] Creating stopping criterion with minIter 1437 frequency 21
[OGL LOG][Proc: 0]p: generate_solver: 0.028 [ms]
[OGL LOG][Proc: 0]p: solve: 15571.9 [ms]
[OGL LOG][Proc: 0]p: copy_x_back: 1.701 [ms]
[OGL LOG][lduLduBase.H:319] 
Statistics:
	Time per iteration: 10739 [mu s]
	Time per residual norm calculation: 4912.000000 [mu s]
	Time per iteration and DOF: 0.397741 [ns]
	Retrieve results bandwith 2.010000 [GByte/s]
[OGL LOG][Proc: 0]p: solve_multi_gpu: 15662.7 [ms]
nonecudaGKOCG:  Solving for p, Initial residual = 0.919021, Final residual = 8.30289e-05, No Iterations 1450
time step continuity errors : sum local = 9.77714e-09, global = 8.46528e-23, cumulative = 1.39072e-21
[OGL LOG][Proc: 0]: global_index_init: 0.117 [ms]
[OGL LOG][Proc: 0]p_local_coeffs: call_update: 0 [ms]
[OGL LOG][Proc: 0]p_non_local_coeffs: call_update: 0 [ms]
local_interface_nnzs01[OGL LOG][Proc: 0]p: update_local_matrix_data: 69.688 [ms]
[OGL LOG][Proc: 0]p: update_non_local_matrix_data: 0.974 [ms]
[OGL LOG][Proc: 0]p_matrix: call_update: 18.99 [ms]
[OGL LOG][Proc: 0]p_rhs: call_update: 32.837 [ms]
[OGL LOG][Proc: 0]p: init_precond: 0.039 [ms]
[OGL LOG][StoppingCriterion.H:372] Creating stopping criterion with minIter 870 frequency 17
[OGL LOG][Proc: 0]p: generate_solver: 0.024 [ms]
[OGL LOG][Proc: 0]p: solve: 12499.5 [ms]
[OGL LOG][Proc: 0]p: copy_x_back: 1.471 [ms]
[OGL LOG][lduLduBase.H:319] 
Statistics:
	Time per iteration: 10803 [mu s]
	Time per residual norm calculation: 4916.000000 [mu s]
	Time per iteration and DOF: 0.400111 [ns]
	Retrieve results bandwith 2.324000 [GByte/s]
[OGL LOG][Proc: 0]p: solve_multi_gpu: 12585.6 [ms]
nonecudaGKOCG:  Solving for p, Initial residual = 0.884212, Final residual = 8.10008e-05, No Iterations 1157
time step continuity errors : sum local = 9.08961e-09, global = -4.85342e-22, cumulative = 9.05377e-22
ExecutionTime = 186.11 s  ClockTime = 216 s

Time = 0.000664

Courant Number mean: 0.0237828 max: 0.471922
DILUPBiCGStab:  Solving for Ux, Initial residual = 0.0386845, Final residual = 0.00309584, No Iterations 5
DILUPBiCGStab:  Solving for Uy, Initial residual = 0.174698, Final residual = 0.0142871, No Iterations 5
DILUPBiCGStab:  Solving for Uz, Initial residual = 0.734296, Final residual = 0.0421777, No Iterations 5
[OGL LOG][Proc: 0]: global_index_init: 0.304 [ms]
[OGL LOG][Proc: 0]p_local_coeffs: call_update: 0 [ms]
[OGL LOG][Proc: 0]p_non_local_coeffs: call_update: 0 [ms]
local_interface_nnzs01[OGL LOG][Proc: 0]p: update_local_matrix_data: 69.727 [ms]
[OGL LOG][Proc: 0]p: update_non_local_matrix_data: 1.145 [ms]
[OGL LOG][Proc: 0]p_matrix: call_update: 19.574 [ms]
[OGL LOG][Proc: 0]p_rhs: call_update: 33.415 [ms]
[OGL LOG][Proc: 0]p: init_precond: 0.04 [ms]
[OGL LOG][StoppingCriterion.H:372] Creating stopping criterion with minIter 694 frequency 15
[OGL LOG][Proc: 0]p: generate_solver: 0.037 [ms]
[OGL LOG][Proc: 0]p: solve: 12572 [ms]
[OGL LOG][Proc: 0]p: copy_x_back: 1.038 [ms]
[OGL LOG][lduLduBase.H:319] 
Statistics:
	Time per iteration: 10875 [mu s]
	Time per residual norm calculation: 4614.000000 [mu s]
	Time per iteration and DOF: 0.402778 [ns]
	Retrieve results bandwith 3.294000 [GByte/s]
[OGL LOG][Proc: 0]p: solve_multi_gpu: 12662.5 [ms]
nonecudaGKOCG:  Solving for p, Initial residual = 0.897658, Final residual = 8.92089e-05, No Iterations 1156
time step continuity errors : sum local = 1.14501e-08, global = -2.67964e-22, cumulative = 6.37413e-22
[OGL LOG][Proc: 0]: global_index_init: 0.056 [ms]
[OGL LOG][Proc: 0]p_local_coeffs: call_update: 0.001 [ms]
[OGL LOG][Proc: 0]p_non_local_coeffs: call_update: 0 [ms]
local_interface_nnzs01[OGL LOG][Proc: 0]p: update_local_matrix_data: 69.509 [ms]
[OGL LOG][Proc: 0]p: update_non_local_matrix_data: 1.42 [ms]
[OGL LOG][Proc: 0]p_matrix: call_update: 37.585 [ms]
[OGL LOG][Proc: 0]p_rhs: call_update: 16.883 [ms]
[OGL LOG][Proc: 0]p: init_precond: 0.042 [ms]
[OGL LOG][StoppingCriterion.H:372] Creating stopping criterion with minIter 693 frequency 15
[OGL LOG][Proc: 0]p: generate_solver: 0.025 [ms]
[OGL LOG][Proc: 0]p: solve: 12614.5 [ms]
[OGL LOG][Proc: 0]p: copy_x_back: 1.07 [ms]
[OGL LOG][lduLduBase.H:319] 
Statistics:
	Time per iteration: 10912 [mu s]
	Time per residual norm calculation: 4158.000000 [mu s]
	Time per iteration and DOF: 0.404148 [ns]
	Retrieve results bandwith 3.196000 [GByte/s]
[OGL LOG][Proc: 0]p: solve_multi_gpu: 12703.6 [ms]
nonecudaGKOCG:  Solving for p, Initial residual = 0.83559, Final residual = 7.52558e-05, No Iterations 1156
time step continuity errors : sum local = 9.38979e-09, global = -1.45954e-22, cumulative = 4.91459e-22
ExecutionTime = 216.32 s  ClockTime = 247 s

Time = 0.00083

Courant Number mean: 0.0272897 max: 0.505459
DILUPBiCGStab:  Solving for Ux, Initial residual = 0.0325922, Final residual = 0.00267163, No Iterations 5
DILUPBiCGStab:  Solving for Uy, Initial residual = 0.131013, Final residual = 0.0119947, No Iterations 5
DILUPBiCGStab:  Solving for Uz, Initial residual = 0.684069, Final residual = 0.0359105, No Iterations 5
[OGL LOG][Proc: 0]: global_index_init: 0.092 [ms]
[OGL LOG][Proc: 0]p_local_coeffs: call_update: 0 [ms]
[OGL LOG][Proc: 0]p_non_local_coeffs: call_update: 0 [ms]
local_interface_nnzs01[OGL LOG][Proc: 0]p: update_local_matrix_data: 70.213 [ms]
[OGL LOG][Proc: 0]p: update_non_local_matrix_data: 0.837 [ms]
[OGL LOG][Proc: 0]p_matrix: call_update: 20.059 [ms]
[OGL LOG][Proc: 0]p_rhs: call_update: 31.541 [ms]
[OGL LOG][Proc: 0]p: init_precond: 0.036 [ms]
[OGL LOG][StoppingCriterion.H:372] Creating stopping criterion with minIter 693 frequency 15
[OGL LOG][Proc: 0]p: generate_solver: 0.025 [ms]
[OGL LOG][Proc: 0]p: solve: 25926.3 [ms]
[OGL LOG][Proc: 0]p: copy_x_back: 1.106 [ms]
[OGL LOG][lduLduBase.H:319] 
Statistics:
	Time per iteration: 10866 [mu s]
	Time per residual norm calculation: 4169.000000 [mu s]
	Time per iteration and DOF: 0.402444 [ns]
	Retrieve results bandwith 3.092000 [GByte/s]
[OGL LOG][Proc: 0]p: solve_multi_gpu: 26013.7 [ms]
nonecudaGKOCG:  Solving for p, Initial residual = 0.91585, Final residual = 7.46615e-05, No Iterations 2386
time step continuity errors : sum local = 8.79906e-09, global = 3.20679e-22, cumulative = 8.12138e-22
[OGL LOG][Proc: 0]: global_index_init: 0.059 [ms]
[OGL LOG][Proc: 0]p_local_coeffs: call_update: 0 [ms]
[OGL LOG][Proc: 0]p_non_local_coeffs: call_update: 0 [ms]
local_interface_nnzs01[OGL LOG][Proc: 0]p: update_local_matrix_data: 69.803 [ms]
[OGL LOG][Proc: 0]p: update_non_local_matrix_data: 1.214 [ms]
[OGL LOG][Proc: 0]p_matrix: call_update: 33.36 [ms]
[OGL LOG][Proc: 0]p_rhs: call_update: 18.766 [ms]
[OGL LOG][Proc: 0]p: init_precond: 0.041 [ms]
[OGL LOG][StoppingCriterion.H:372] Creating stopping criterion with minIter 1431 frequency 21
[OGL LOG][Proc: 0]p: generate_solver: 0.023 [ms]
[OGL LOG][Proc: 0]p: solve: 25672 [ms]
[OGL LOG][Proc: 0]p: copy_x_back: 1.089 [ms]
[OGL LOG][lduLduBase.H:319] 
Statistics:
	Time per iteration: 10718 [mu s]
	Time per residual norm calculation: 4151.000000 [mu s]
	Time per iteration and DOF: 0.396963 [ns]
	Retrieve results bandwith 3.140000 [GByte/s]
[OGL LOG][Proc: 0]p: solve_multi_gpu: 25759.7 [ms]
nonecudaGKOCG:  Solving for p, Initial residual = 0.875098, Final residual = 6.49176e-05, No Iterations 2395
time step continuity errors : sum local = 7.55476e-09, global = -2.28635e-22, cumulative = 5.83503e-22
ExecutionTime = 272.77 s  ClockTime = 304 s

Time = 0.000996

Courant Number mean: 0.030015 max: 0.478325
DILUPBiCGStab:  Solving for Ux, Initial residual = 0.0273509, Final residual = 0.00241462, No Iterations 5
DILUPBiCGStab:  Solving for Uy, Initial residual = 0.113124, Final residual = 0.00962134, No Iterations 5
DILUPBiCGStab:  Solving for Uz, Initial residual = 0.589861, Final residual = 0.0281725, No Iterations 5
[OGL LOG][Proc: 0]: global_index_init: 0.316 [ms]
[OGL LOG][Proc: 0]p_local_coeffs: call_update: 0 [ms]
[OGL LOG][Proc: 0]p_non_local_coeffs: call_update: 0 [ms]
local_interface_nnzs01[OGL LOG][Proc: 0]p: update_local_matrix_data: 69.817 [ms]
[OGL LOG][Proc: 0]p: update_non_local_matrix_data: 0.928 [ms]
[OGL LOG][Proc: 0]p_matrix: call_update: 24.322 [ms]
[OGL LOG][Proc: 0]p_rhs: call_update: 27.945 [ms]
[OGL LOG][Proc: 0]p: init_precond: 0.04 [ms]
[OGL LOG][StoppingCriterion.H:372] Creating stopping criterion with minIter 1437 frequency 21
[OGL LOG][Proc: 0]p: generate_solver: 0.026 [ms]
[OGL LOG][Proc: 0]p: solve: 25501.7 [ms]
[OGL LOG][Proc: 0]p: copy_x_back: 2.422 [ms]
[OGL LOG][lduLduBase.H:319] 
Statistics:
	Time per iteration: 10742 [mu s]
	Time per residual norm calculation: 4928.000000 [mu s]
	Time per iteration and DOF: 0.397852 [ns]
	Retrieve results bandwith 1.412000 [GByte/s]
[OGL LOG][Proc: 0]p: solve_multi_gpu: 25593.7 [ms]
nonecudaGKOCG:  Solving for p, Initial residual = 0.895072, Final residual = 8.93591e-05, No Iterations 2374
time step continuity errors : sum local = 1.0784e-08, global = 1.42832e-21, cumulative = 2.01183e-21
[OGL LOG][Proc: 0]: global_index_init: 0.279 [ms]
[OGL LOG][Proc: 0]p_local_coeffs: call_update: 0 [ms]
[OGL LOG][Proc: 0]p_non_local_coeffs: call_update: 0 [ms]
local_interface_nnzs01[OGL LOG][Proc: 0]p: update_local_matrix_data: 69.951 [ms]
[OGL LOG][Proc: 0]p: update_non_local_matrix_data: 0.99 [ms]
[OGL LOG][Proc: 0]p_matrix: call_update: 19.297 [ms]
[OGL LOG][Proc: 0]p_rhs: call_update: 32.351 [ms]
[OGL LOG][Proc: 0]p: init_precond: 0.046 [ms]
[OGL LOG][StoppingCriterion.H:372] Creating stopping criterion with minIter 1424 frequency 21
[OGL LOG][Proc: 0]p: generate_solver: 0.026 [ms]
[OGL LOG][Proc: 0]p: solve: 25455.2 [ms]
[OGL LOG][Proc: 0]p: copy_x_back: 1.242 [ms]
[OGL LOG][lduLduBase.H:319] 
Statistics:
	Time per iteration: 10722 [mu s]
	Time per residual norm calculation: 4625.000000 [mu s]
	Time per iteration and DOF: 0.397111 [ns]
	Retrieve results bandwith 2.753000 [GByte/s]
[OGL LOG][Proc: 0]p: solve_multi_gpu: 25541.6 [ms]
nonecudaGKOCG:  Solving for p, Initial residual = 0.830632, Final residual = 8.38132e-05, No Iterations 2374
time step continuity errors : sum local = 1.02621e-08, global = 1.02986e-22, cumulative = 2.11481e-21
ExecutionTime = 328.56 s  ClockTime = 360 s

Time = 0.001162

Courant Number mean: 0.032472 max: 0.512644
DILUPBiCGStab:  Solving for Ux, Initial residual = 0.0248279, Final residual = 0.00224898, No Iterations 5
DILUPBiCGStab:  Solving for Uy, Initial residual = 0.0998641, Final residual = 0.00887372, No Iterations 5
DILUPBiCGStab:  Solving for Uz, Initial residual = 0.564172, Final residual = 0.0248735, No Iterations 5
[OGL LOG][Proc: 0]: global_index_init: 0.142 [ms]
[OGL LOG][Proc: 0]p_local_coeffs: call_update: 0 [ms]
[OGL LOG][Proc: 0]p_non_local_coeffs: call_update: 0 [ms]
local_interface_nnzs01[OGL LOG][Proc: 0]p: update_local_matrix_data: 69.801 [ms]
[OGL LOG][Proc: 0]p: update_non_local_matrix_data: 1.061 [ms]
[OGL LOG][Proc: 0]p_matrix: call_update: 36.624 [ms]
[OGL LOG][Proc: 0]p_rhs: call_update: 16.291 [ms]
[OGL LOG][Proc: 0]p: init_precond: 0.041 [ms]
[OGL LOG][StoppingCriterion.H:372] Creating stopping criterion with minIter 1424 frequency 21
[OGL LOG][Proc: 0]p: generate_solver: 0.024 [ms]
[OGL LOG][Proc: 0]p: solve: 22828.4 [ms]
[OGL LOG][Proc: 0]p: copy_x_back: 2.187 [ms]
[OGL LOG][lduLduBase.H:319] 
Statistics:
	Time per iteration: 10757 [mu s]
	Time per residual norm calculation: 4910.000000 [mu s]
	Time per iteration and DOF: 0.398407 [ns]
	Retrieve results bandwith 1.563000 [GByte/s]
[OGL LOG][Proc: 0]p: solve_multi_gpu: 22919.4 [ms]
nonecudaGKOCG:  Solving for p, Initial residual = 0.911845, Final residual = 9.44954e-05, No Iterations 2122
time step continuity errors : sum local = 1.11157e-08, global = 4.15369e-23, cumulative = 2.15635e-21
[OGL LOG][Proc: 0]: global_index_init: 0.107 [ms]
[OGL LOG][Proc: 0]p_local_coeffs: call_update: 0 [ms]
[OGL LOG][Proc: 0]p_non_local_coeffs: call_update: 0 [ms]
local_interface_nnzs01[OGL LOG][Proc: 0]p: update_local_matrix_data: 69.49 [ms]
[OGL LOG][Proc: 0]p: update_non_local_matrix_data: 1.354 [ms]
[OGL LOG][Proc: 0]p_matrix: call_update: 30.51 [ms]
[OGL LOG][Proc: 0]p_rhs: call_update: 22.868 [ms]
[OGL LOG][Proc: 0]p: init_precond: 0.037 [ms]
[OGL LOG][StoppingCriterion.H:372] Creating stopping criterion with minIter 1273 frequency 20
[OGL LOG][Proc: 0]p: generate_solver: 0.023 [ms]
[OGL LOG][Proc: 0]p: solve: 22565.5 [ms]
[OGL LOG][Proc: 0]p: copy_x_back: 1.077 [ms]
[OGL LOG][lduLduBase.H:319] 
Statistics:
	Time per iteration: 10740 [mu s]
	Time per residual norm calculation: 4168.000000 [mu s]
	Time per iteration and DOF: 0.397778 [ns]
	Retrieve results bandwith 3.175000 [GByte/s]
[OGL LOG][Proc: 0]p: solve_multi_gpu: 22652.1 [ms]
nonecudaGKOCG:  Solving for p, Initial residual = 0.864881, Final residual = 9.57305e-05, No Iterations 2101
time step continuity errors : sum local = 1.11399e-08, global = 8.44743e-22, cumulative = 3.00109e-21
ExecutionTime = 378.85 s  ClockTime = 411 s

Time = 0.001328

Courant Number mean: 0.0345367 max: 0.481275
DILUPBiCGStab:  Solving for Ux, Initial residual = 0.0224367, Final residual = 0.00210643, No Iterations 5
DILUPBiCGStab:  Solving for Uy, Initial residual = 0.0884818, Final residual = 0.00745941, No Iterations 5
DILUPBiCGStab:  Solving for Uz, Initial residual = 0.525582, Final residual = 0.0233244, No Iterations 5
[OGL LOG][Proc: 0]: global_index_init: 0.156 [ms]
[OGL LOG][Proc: 0]p_local_coeffs: call_update: 0 [ms]
[OGL LOG][Proc: 0]p_non_local_coeffs: call_update: 0 [ms]
local_interface_nnzs01[OGL LOG][Proc: 0]p: update_local_matrix_data: 69.49 [ms]
[OGL LOG][Proc: 0]p: update_non_local_matrix_data: 1.572 [ms]
[OGL LOG][Proc: 0]p_matrix: call_update: 38.756 [ms]
[OGL LOG][Proc: 0]p_rhs: call_update: 13.653 [ms]
[OGL LOG][Proc: 0]p: init_precond: 0.038 [ms]
[OGL LOG][StoppingCriterion.H:372] Creating stopping criterion with minIter 1260 frequency 20
[OGL LOG][Proc: 0]p: generate_solver: 0.023 [ms]
[OGL LOG][Proc: 0]p: solve: 24967.9 [ms]
[OGL LOG][Proc: 0]p: copy_x_back: 1.09 [ms]
[OGL LOG][lduLduBase.H:319] 
Statistics:
	Time per iteration: 10757 [mu s]
	Time per residual norm calculation: 4171.000000 [mu s]
	Time per iteration and DOF: 0.398407 [ns]
	Retrieve results bandwith 3.137000 [GByte/s]
[OGL LOG][Proc: 0]p: solve_multi_gpu: 25062.5 [ms]
nonecudaGKOCG:  Solving for p, Initial residual = 0.891444, Final residual = 7.83515e-05, No Iterations 2321
time step continuity errors : sum local = 9.36543e-09, global = -1.22079e-22, cumulative = 2.87901e-21
[OGL LOG][Proc: 0]: global_index_init: 0.104 [ms]
[OGL LOG][Proc: 0]p_local_coeffs: call_update: 0 [ms]
[OGL LOG][Proc: 0]p_non_local_coeffs: call_update: 0 [ms]
local_interface_nnzs01[OGL LOG][Proc: 0]p: update_local_matrix_data: 70.224 [ms]
[OGL LOG][Proc: 0]p: update_non_local_matrix_data: 0.817 [ms]
[OGL LOG][Proc: 0]p_matrix: call_update: 36.89 [ms]
[OGL LOG][Proc: 0]p_rhs: call_update: 35.174 [ms]
[OGL LOG][Proc: 0]p: init_precond: 0.039 [ms]
[OGL LOG][StoppingCriterion.H:372] Creating stopping criterion with minIter 1392 frequency 21
[OGL LOG][Proc: 0]p: generate_solver: 0.025 [ms]
[OGL LOG][Proc: 0]p: solve: 25035 [ms]
[OGL LOG][Proc: 0]p: copy_x_back: 1.612 [ms]
[OGL LOG][lduLduBase.H:319] 
Statistics:
	Time per iteration: 10832 [mu s]
	Time per residual norm calculation: 4153.000000 [mu s]
	Time per iteration and DOF: 0.401185 [ns]
	Retrieve results bandwith 2.121000 [GByte/s]
[OGL LOG][Proc: 0]p: solve_multi_gpu: 25145.3 [ms]
nonecudaGKOCG:  Solving for p, Initial residual = 0.824328, Final residual = 8.89585e-05, No Iterations 2311
time step continuity errors : sum local = 1.07747e-08, global = -8.24387e-23, cumulative = 2.79658e-21
ExecutionTime = 433.51 s  ClockTime = 466 s

Time = 0.001494

Courant Number mean: 0.0364632 max: 0.518971
DILUPBiCGStab:  Solving for Ux, Initial residual = 0.0208627, Final residual = 0.00196487, No Iterations 5
DILUPBiCGStab:  Solving for Uy, Initial residual = 0.0835245, Final residual = 0.00705527, No Iterations 5
DILUPBiCGStab:  Solving for Uz, Initial residual = 0.518453, Final residual = 0.021152, No Iterations 5
[OGL LOG][Proc: 0]: global_index_init: 0.292 [ms]
[OGL LOG][Proc: 0]p_local_coeffs: call_update: 0.001 [ms]
[OGL LOG][Proc: 0]p_non_local_coeffs: call_update: 0 [ms]
local_interface_nnzs01[OGL LOG][Proc: 0]p: update_local_matrix_data: 74.17 [ms]
[OGL LOG][Proc: 0]p: update_non_local_matrix_data: 1.331 [ms]
[OGL LOG][Proc: 0]p_matrix: call_update: 40.375 [ms]
[OGL LOG][Proc: 0]p_rhs: call_update: 5.106 [ms]
[OGL LOG][Proc: 0]p: init_precond: 0.042 [ms]
[OGL LOG][StoppingCriterion.H:372] Creating stopping criterion with minIter 1386 frequency 21
[OGL LOG][Proc: 0]p: generate_solver: 0.05 [ms]
[OGL LOG][Proc: 0]p: solve: 23984.3 [ms]
[OGL LOG][Proc: 0]p: copy_x_back: 2.123 [ms]
[OGL LOG][lduLduBase.H:319] 
Statistics:
	Time per iteration: 10769 [mu s]
	Time per residual norm calculation: 4162.000000 [mu s]
	Time per iteration and DOF: 0.398852 [ns]
	Retrieve results bandwith 1.610000 [GByte/s]
[OGL LOG][Proc: 0]p: solve_multi_gpu: 24068.8 [ms]
nonecudaGKOCG:  Solving for p, Initial residual = 0.907853, Final residual = 8.41548e-05, No Iterations 2227
time step continuity errors : sum local = 9.84797e-09, global = -4.10614e-22, cumulative = 2.38596e-21
[OGL LOG][Proc: 0]: global_index_init: 0.391 [ms]
[OGL LOG][Proc: 0]p_local_coeffs: call_update: 0 [ms]
[OGL LOG][Proc: 0]p_non_local_coeffs: call_update: 0 [ms]
local_interface_nnzs01[OGL LOG][Proc: 0]p: update_local_matrix_data: 71.287 [ms]
[OGL LOG][Proc: 0]p: update_non_local_matrix_data: 2.598 [ms]
[OGL LOG][Proc: 0]p_matrix: call_update: 22.155 [ms]
[OGL LOG][Proc: 0]p_rhs: call_update: 23.703 [ms]
[OGL LOG][Proc: 0]p: init_precond: 0.042 [ms]
[OGL LOG][StoppingCriterion.H:372] Creating stopping criterion with minIter 1336 frequency 21
[OGL LOG][Proc: 0]p: generate_solver: 0.026 [ms]
[OGL LOG][Proc: 0]p: solve: 24904.4 [ms]
[OGL LOG][Proc: 0]p: copy_x_back: 1.69 [ms]
[OGL LOG][lduLduBase.H:319] 
Statistics:
	Time per iteration: 10776 [mu s]
	Time per residual norm calculation: 4450.000000 [mu s]
	Time per iteration and DOF: 0.399111 [ns]
	Retrieve results bandwith 2.023000 [GByte/s]
[OGL LOG][Proc: 0]p: solve_multi_gpu: 24988.2 [ms]
nonecudaGKOCG:  Solving for p, Initial residual = 0.856459, Final residual = 7.78679e-05, No Iterations 2311
time step continuity errors : sum local = 9.02581e-09, global = -1.67349e-23, cumulative = 2.36923e-21
ExecutionTime = 487.31 s  ClockTime = 520 s

Time = 0.00166

Courant Number mean: 0.038139 max: 0.483909
DILUPBiCGStab:  Solving for Ux, Initial residual = 0.0196575, Final residual = 0.0018708, No Iterations 5
DILUPBiCGStab:  Solving for Uy, Initial residual = 0.0751297, Final residual = 0.00611691, No Iterations 5
DILUPBiCGStab:  Solving for Uz, Initial residual = 0.494809, Final residual = 0.0199174, No Iterations 5
[OGL LOG][Proc: 0]: global_index_init: 0.303 [ms]
[OGL LOG][Proc: 0]p_local_coeffs: call_update: 0 [ms]
[OGL LOG][Proc: 0]p_non_local_coeffs: call_update: 0 [ms]
local_interface_nnzs01[OGL LOG][Proc: 0]p: update_local_matrix_data: 73.009 [ms]
[OGL LOG][Proc: 0]p: update_non_local_matrix_data: 1.282 [ms]
[OGL LOG][Proc: 0]p_matrix: call_update: 38.887 [ms]
[OGL LOG][Proc: 0]p_rhs: call_update: 6.421 [ms]
[OGL LOG][Proc: 0]p: init_precond: 0.041 [ms]
[OGL LOG][StoppingCriterion.H:372] Creating stopping criterion with minIter 1386 frequency 21
[OGL LOG][Proc: 0]p: generate_solver: 0.028 [ms]
[OGL LOG][Proc: 0]p: solve: 24952.6 [ms]
[OGL LOG][Proc: 0]p: copy_x_back: 4.753 [ms]
[OGL LOG][lduLduBase.H:319] 
Statistics:
	Time per iteration: 10797 [mu s]
	Time per residual norm calculation: 4907.000000 [mu s]
	Time per iteration and DOF: 0.399889 [ns]
	Retrieve results bandwith 0.719000 [GByte/s]
[OGL LOG][Proc: 0]p: solve_multi_gpu: 25040.4 [ms]
nonecudaGKOCG:  Solving for p, Initial residual = 0.890203, Final residual = 7.90374e-05, No Iterations 2311
time step continuity errors : sum local = 9.53521e-09, global = 8.08347e-22, cumulative = 3.17757e-21
[OGL LOG][Proc: 0]: global_index_init: 1.829 [ms]
[OGL LOG][Proc: 0]p_local_coeffs: call_update: 0.001 [ms]
[OGL LOG][Proc: 0]p_non_local_coeffs: call_update: 0 [ms]
local_interface_nnzs01[OGL LOG][Proc: 0]p: update_local_matrix_data: 73.828 [ms]
[OGL LOG][Proc: 0]p: update_non_local_matrix_data: 1.778 [ms]
[OGL LOG][Proc: 0]p_matrix: call_update: 40.036 [ms]
[OGL LOG][Proc: 0]p_rhs: call_update: 3.539 [ms]
[OGL LOG][Proc: 0]p: init_precond: 0.04 [ms]
[OGL LOG][StoppingCriterion.H:372] Creating stopping criterion with minIter 1386 frequency 21
[OGL LOG][Proc: 0]p: generate_solver: 0.027 [ms]
[OGL LOG][Proc: 0]p: solve: 24951.6 [ms]
[OGL LOG][Proc: 0]p: copy_x_back: 3.722 [ms]
[OGL LOG][lduLduBase.H:319] 
Statistics:
	Time per iteration: 10796 [mu s]
	Time per residual norm calculation: 4747.000000 [mu s]
	Time per iteration and DOF: 0.399852 [ns]
	Retrieve results bandwith 0.918000 [GByte/s]
[OGL LOG][Proc: 0]p: solve_multi_gpu: 25038.4 [ms]
nonecudaGKOCG:  Solving for p, Initial residual = 0.820026, Final residual = 7.38713e-05, No Iterations 2311
time step continuity errors : sum local = 9.01922e-09, global = 2.14679e-22, cumulative = 3.39225e-21
ExecutionTime = 542.12 s  ClockTime = 575 s

Time = 0.001826

Courant Number mean: 0.0397416 max: 0.525723
DILUPBiCGStab:  Solving for Ux, Initial residual = 0.0184923, Final residual = 0.00174211, No Iterations 5
DILUPBiCGStab:  Solving for Uy, Initial residual = 0.0735818, Final residual = 0.00590471, No Iterations 5
DILUPBiCGStab:  Solving for Uz, Initial residual = 0.498489, Final residual = 0.0192167, No Iterations 5
[OGL LOG][Proc: 0]: global_index_init: 0.407 [ms]
[OGL LOG][Proc: 0]p_local_coeffs: call_update: 0 [ms]
[OGL LOG][Proc: 0]p_non_local_coeffs: call_update: 0 [ms]
local_interface_nnzs01[OGL LOG][Proc: 0]p: update_local_matrix_data: 73.048 [ms]
[OGL LOG][Proc: 0]p: update_non_local_matrix_data: 1.855 [ms]
[OGL LOG][Proc: 0]p_matrix: call_update: 42.602 [ms]
[OGL LOG][Proc: 0]p_rhs: call_update: 3.37 [ms]
[OGL LOG][Proc: 0]p: init_precond: 0.071 [ms]
[OGL LOG][StoppingCriterion.H:372] Creating stopping criterion with minIter 1386 frequency 21
[OGL LOG][Proc: 0]p: generate_solver: 0.027 [ms]
[OGL LOG][Proc: 0]p: solve: 24921 [ms]
[OGL LOG][Proc: 0]p: copy_x_back: 1.04 [ms]
[OGL LOG][lduLduBase.H:319] 
Statistics:
	Time per iteration: 10783 [mu s]
	Time per residual norm calculation: 4150.000000 [mu s]
	Time per iteration and DOF: 0.399370 [ns]
	Retrieve results bandwith 3.288000 [GByte/s]
[OGL LOG][Proc: 0]p: solve_multi_gpu: 25002.7 [ms]
nonecudaGKOCG:  Solving for p, Initial residual = 0.908029, Final residual = 8.256e-05, No Iterations 2311
time step continuity errors : sum local = 9.89531e-09, global = 9.72169e-23, cumulative = 3.48947e-21
[OGL LOG][Proc: 0]: global_index_init: 0.221 [ms]
[OGL LOG][Proc: 0]p_local_coeffs: call_update: 0 [ms]
[OGL LOG][Proc: 0]p_non_local_coeffs: call_update: 0 [ms]
local_interface_nnzs01[OGL LOG][Proc: 0]p: update_local_matrix_data: 69.684 [ms]
[OGL LOG][Proc: 0]p: update_non_local_matrix_data: 1.24 [ms]
[OGL LOG][Proc: 0]p_matrix: call_update: 39.311 [ms]
[OGL LOG][Proc: 0]p_rhs: call_update: 14.244 [ms]
[OGL LOG][Proc: 0]p: init_precond: 0.043 [ms]
[OGL LOG][StoppingCriterion.H:372] Creating stopping criterion with minIter 1386 frequency 21
[OGL LOG][Proc: 0]p: generate_solver: 0.028 [ms]
[OGL LOG][Proc: 0]p: solve: 24872.2 [ms]
[OGL LOG][Proc: 0]p: copy_x_back: 1.455 [ms]
[OGL LOG][lduLduBase.H:319] 
Statistics:
	Time per iteration: 10762 [mu s]
	Time per residual norm calculation: 4176.000000 [mu s]
	Time per iteration and DOF: 0.398593 [ns]
	Retrieve results bandwith 2.350000 [GByte/s]
[OGL LOG][Proc: 0]p: solve_multi_gpu: 24963.2 [ms]
nonecudaGKOCG:  Solving for p, Initial residual = 0.851644, Final residual = 7.88306e-05, No Iterations 2311
time step continuity errors : sum local = 9.37162e-09, global = 1.63408e-22, cumulative = 3.65288e-21
ExecutionTime = 596.87 s  ClockTime = 631 s

Time = 0.001992

Courant Number mean: 0.0411579 max: 0.487157
DILUPBiCGStab:  Solving for Ux, Initial residual = 0.0178959, Final residual = 0.00169102, No Iterations 5
DILUPBiCGStab:  Solving for Uy, Initial residual = 0.0670189, Final residual = 0.0051979, No Iterations 5
DILUPBiCGStab:  Solving for Uz, Initial residual = 0.484207, Final residual = 0.0186906, No Iterations 5
[OGL LOG][Proc: 0]: global_index_init: 0.163 [ms]
[OGL LOG][Proc: 0]p_local_coeffs: call_update: 0 [ms]
[OGL LOG][Proc: 0]p_non_local_coeffs: call_update: 0 [ms]
local_interface_nnzs01[OGL LOG][Proc: 0]p: update_local_matrix_data: 69.759 [ms]
[OGL LOG][Proc: 0]p: update_non_local_matrix_data: 0.873 [ms]
[OGL LOG][Proc: 0]p_matrix: call_update: 18.526 [ms]
[OGL LOG][Proc: 0]p_rhs: call_update: 35.258 [ms]
[OGL LOG][Proc: 0]p: init_precond: 0.041 [ms]
[OGL LOG][StoppingCriterion.H:372] Creating stopping criterion with minIter 1386 frequency 21
[OGL LOG][Proc: 0]p: generate_solver: 0.025 [ms]
[OGL LOG][Proc: 0]p: solve: 24614.1 [ms]
[OGL LOG][Proc: 0]p: copy_x_back: 1.066 [ms]
[OGL LOG][lduLduBase.H:319] 
Statistics:
	Time per iteration: 10748 [mu s]
	Time per residual norm calculation: 4152.000000 [mu s]
	Time per iteration and DOF: 0.398074 [ns]
	Retrieve results bandwith 3.208000 [GByte/s]
[OGL LOG][Proc: 0]p: solve_multi_gpu: 24702.8 [ms]
nonecudaGKOCG:  Solving for p, Initial residual = 0.891665, Final residual = 9.88495e-05, No Iterations 2290
time step continuity errors : sum local = 1.23102e-08, global = 1.22683e-21, cumulative = 4.87971e-21
[OGL LOG][Proc: 0]: global_index_init: 0.085 [ms]
[OGL LOG][Proc: 0]p_local_coeffs: call_update: 0 [ms]
[OGL LOG][Proc: 0]p_non_local_coeffs: call_update: 0 [ms]
local_interface_nnzs01[OGL LOG][Proc: 0]p: update_local_matrix_data: 69.55 [ms]
[OGL LOG][Proc: 0]p: update_non_local_matrix_data: 1.164 [ms]
[OGL LOG][Proc: 0]p_matrix: call_update: 19.288 [ms]
[OGL LOG][Proc: 0]p_rhs: call_update: 34.224 [ms]
[OGL LOG][Proc: 0]p: init_precond: 0.04 [ms]
[OGL LOG][StoppingCriterion.H:372] Creating stopping criterion with minIter 1374 frequency 21
[OGL LOG][Proc: 0]p: generate_solver: 0.039 [ms]
[OGL LOG][Proc: 0]p: solve: 24798.2 [ms]
[OGL LOG][Proc: 0]p: copy_x_back: 1.297 [ms]
[OGL LOG][lduLduBase.H:319] 
Statistics:
	Time per iteration: 10730 [mu s]
	Time per residual norm calculation: 4610.000000 [mu s]
	Time per iteration and DOF: 0.397407 [ns]
	Retrieve results bandwith 2.636000 [GByte/s]
[OGL LOG][Proc: 0]p: solve_multi_gpu: 24887.8 [ms]
nonecudaGKOCG:  Solving for p, Initial residual = 0.81988, Final residual = 6.95197e-05, No Iterations 2311
time step continuity errors : sum local = 8.75046e-09, global = 9.93581e-22, cumulative = 5.87329e-21
ExecutionTime = 651.21 s  ClockTime = 685 s

Time = 0.002158

Courant Number mean: 0.0425397 max: 0.533447
DILUPBiCGStab:  Solving for Ux, Initial residual = 0.0169626, Final residual = 0.00156528, No Iterations 5
DILUPBiCGStab:  Solving for Uy, Initial residual = 0.0670703, Final residual = 0.005111, No Iterations 5
DILUPBiCGStab:  Solving for Uz, Initial residual = 0.490977, Final residual = 0.0181895, No Iterations 5
[OGL LOG][Proc: 0]: global_index_init: 0.13 [ms]
[OGL LOG][Proc: 0]p_local_coeffs: call_update: 0 [ms]
[OGL LOG][Proc: 0]p_non_local_coeffs: call_update: 0 [ms]
local_interface_nnzs01[OGL LOG][Proc: 0]p: update_local_matrix_data: 69.655 [ms]
[OGL LOG][Proc: 0]p: update_non_local_matrix_data: 1.38 [ms]
[OGL LOG][Proc: 0]p_matrix: call_update: 33.473 [ms]
[OGL LOG][Proc: 0]p_rhs: call_update: 19.176 [ms]
[OGL LOG][Proc: 0]p: init_precond: 0.042 [ms]
[OGL LOG][StoppingCriterion.H:372] Creating stopping criterion with minIter 1386 frequency 21
[OGL LOG][Proc: 0]p: generate_solver: 0.029 [ms]
[OGL LOG][Proc: 0]p: solve: 24848.9 [ms]
[OGL LOG][Proc: 0]p: copy_x_back: 5.237 [ms]
[OGL LOG][lduLduBase.H:319] 
Statistics:
	Time per iteration: 10752 [mu s]
	Time per residual norm calculation: 4609.000000 [mu s]
	Time per iteration and DOF: 0.398222 [ns]
	Retrieve results bandwith 0.653000 [GByte/s]
[OGL LOG][Proc: 0]p: solve_multi_gpu: 24945 [ms]
nonecudaGKOCG:  Solving for p, Initial residual = 0.908587, Final residual = 7.43549e-05, No Iterations 2311
time step continuity errors : sum local = 9.24785e-09, global = 6.19728e-22, cumulative = 6.49302e-21
[OGL LOG][Proc: 0]: global_index_init: 0.132 [ms]
[OGL LOG][Proc: 0]p_local_coeffs: call_update: 0 [ms]
[OGL LOG][Proc: 0]p_non_local_coeffs: call_update: 0 [ms]
local_interface_nnzs01[OGL LOG][Proc: 0]p: update_local_matrix_data: 69.341 [ms]
[OGL LOG][Proc: 0]p: update_non_local_matrix_data: 1.281 [ms]
[OGL LOG][Proc: 0]p_matrix: call_update: 18.726 [ms]
[OGL LOG][Proc: 0]p_rhs: call_update: 34.264 [ms]
[OGL LOG][Proc: 0]p: init_precond: 0.045 [ms]
[OGL LOG][StoppingCriterion.H:372] Creating stopping criterion with minIter 1386 frequency 21
[OGL LOG][Proc: 0]p: generate_solver: 0.025 [ms]
[OGL LOG][Proc: 0]p: solve: 24848.7 [ms]
[OGL LOG][Proc: 0]p: copy_x_back: 1.73 [ms]
[OGL LOG][lduLduBase.H:319] 
Statistics:
	Time per iteration: 10752 [mu s]
	Time per residual norm calculation: 4311.000000 [mu s]
	Time per iteration and DOF: 0.398222 [ns]
	Retrieve results bandwith 1.976000 [GByte/s]
[OGL LOG][Proc: 0]p: solve_multi_gpu: 24933.8 [ms]
nonecudaGKOCG:  Solving for p, Initial residual = 0.848779, Final residual = 7.05487e-05, No Iterations 2311
time step continuity errors : sum local = 8.71519e-09, global = 1.28661e-22, cumulative = 6.62168e-21
ExecutionTime = 705.79 s  ClockTime = 740 s

Time = 0.002324

Courant Number mean: 0.0437693 max: 0.490154
DILUPBiCGStab:  Solving for Ux, Initial residual = 0.0167133, Final residual = 0.00154644, No Iterations 5
DILUPBiCGStab:  Solving for Uy, Initial residual = 0.0618393, Final residual = 0.00454663, No Iterations 5
DILUPBiCGStab:  Solving for Uz, Initial residual = 0.481871, Final residual = 0.0178641, No Iterations 5
[OGL LOG][Proc: 0]: global_index_init: 0.088 [ms]
[OGL LOG][Proc: 0]p_local_coeffs: call_update: 0 [ms]
[OGL LOG][Proc: 0]p_non_local_coeffs: call_update: 0 [ms]
local_interface_nnzs01[OGL LOG][Proc: 0]p: update_local_matrix_data: 69.835 [ms]
[OGL LOG][Proc: 0]p: update_non_local_matrix_data: 1.123 [ms]
[OGL LOG][Proc: 0]p_matrix: call_update: 34.663 [ms]
[OGL LOG][Proc: 0]p_rhs: call_update: 16.447 [ms]
[OGL LOG][Proc: 0]p: init_precond: 0.045 [ms]
[OGL LOG][StoppingCriterion.H:372] Creating stopping criterion with minIter 1386 frequency 21
[OGL LOG][Proc: 0]p: generate_solver: 0.025 [ms]
[OGL LOG][Proc: 0]p: solve: 24893.3 [ms]
[OGL LOG][Proc: 0]p: copy_x_back: 1.139 [ms]
[OGL LOG][lduLduBase.H:319] 
Statistics:
	Time per iteration: 10771 [mu s]
	Time per residual norm calculation: 4792.000000 [mu s]
	Time per iteration and DOF: 0.398926 [ns]
	Retrieve results bandwith 3.002000 [GByte/s]
[OGL LOG][Proc: 0]p: solve_multi_gpu: 24984.1 [ms]
nonecudaGKOCG:  Solving for p, Initial residual = 0.893777, Final residual = 7.54244e-05, No Iterations 2311
time step continuity errors : sum local = 9.75607e-09, global = 8.88816e-22, cumulative = 7.51049e-21
[OGL LOG][Proc: 0]: global_index_init: 0.152 [ms]
[OGL LOG][Proc: 0]p_local_coeffs: call_update: 0.001 [ms]
[OGL LOG][Proc: 0]p_non_local_coeffs: call_update: 0 [ms]
local_interface_nnzs01[OGL LOG][Proc: 0]p: update_local_matrix_data: 69.313 [ms]
[OGL LOG][Proc: 0]p: update_non_local_matrix_data: 1.361 [ms]
[OGL LOG][Proc: 0]p_matrix: call_update: 18.825 [ms]
[OGL LOG][Proc: 0]p_rhs: call_update: 32.866 [ms]
[OGL LOG][Proc: 0]p: init_precond: 0.041 [ms]
[OGL LOG][StoppingCriterion.H:372] Creating stopping criterion with minIter 1386 frequency 21
[OGL LOG][Proc: 0]p: generate_solver: 0.026 [ms]
[OGL LOG][Proc: 0]p: solve: 24814.9 [ms]
[OGL LOG][Proc: 0]p: copy_x_back: 2.526 [ms]
[OGL LOG][lduLduBase.H:319] 
Statistics:
	Time per iteration: 10737 [mu s]
	Time per residual norm calculation: 5210.000000 [mu s]
	Time per iteration and DOF: 0.397667 [ns]
	Retrieve results bandwith 1.353000 [GByte/s]
[OGL LOG][Proc: 0]p: solve_multi_gpu: 24905.7 [ms]
nonecudaGKOCG:  Solving for p, Initial residual = 0.820817, Final residual = 7.03973e-05, No Iterations 2311
time step continuity errors : sum local = 9.19109e-09, global = 5.87897e-22, cumulative = 8.09839e-21
ExecutionTime = 760.38 s  ClockTime = 795 s

Time = 0.00249

Courant Number mean: 0.0449904 max: 0.54222
DILUPBiCGStab:  Solving for Ux, Initial residual = 0.0159653, Final residual = 0.00142463, No Iterations 5
DILUPBiCGStab:  Solving for Uy, Initial residual = 0.0626799, Final residual = 0.00453428, No Iterations 5
DILUPBiCGStab:  Solving for Uz, Initial residual = 0.490819, Final residual = 0.0175806, No Iterations 5
[OGL LOG][Proc: 0]: global_index_init: 0.191 [ms]
[OGL LOG][Proc: 0]p_local_coeffs: call_update: 0 [ms]
[OGL LOG][Proc: 0]p_non_local_coeffs: call_update: 0 [ms]
local_interface_nnzs01[OGL LOG][Proc: 0]p: update_local_matrix_data: 69.437 [ms]
[OGL LOG][Proc: 0]p: update_non_local_matrix_data: 1.761 [ms]
[OGL LOG][Proc: 0]p_matrix: call_update: 38.482 [ms]
[OGL LOG][Proc: 0]p_rhs: call_update: 14.107 [ms]
[OGL LOG][Proc: 0]p: init_precond: 0.041 [ms]
[OGL LOG][StoppingCriterion.H:372] Creating stopping criterion with minIter 1386 frequency 21
[OGL LOG][Proc: 0]p: generate_solver: 0.025 [ms]
[OGL LOG][Proc: 0]p: solve: 24869 [ms]
[OGL LOG][Proc: 0]p: copy_x_back: 2.119 [ms]
[OGL LOG][lduLduBase.H:319] 
Statistics:
	Time per iteration: 10761 [mu s]
	Time per residual norm calculation: 4916.000000 [mu s]
	Time per iteration and DOF: 0.398556 [ns]
	Retrieve results bandwith 1.613000 [GByte/s]
[OGL LOG][Proc: 0]p: solve_multi_gpu: 24958.1 [ms]
nonecudaGKOCG:  Solving for p, Initial residual = 0.909288, Final residual = 7.42691e-05, No Iterations 2311
time step continuity errors : sum local = 9.62768e-09, global = 1.46477e-21, cumulative = 9.56316e-21
[OGL LOG][Proc: 0]: global_index_init: 0.32 [ms]
[OGL LOG][Proc: 0]p_local_coeffs: call_update: 0 [ms]
[OGL LOG][Proc: 0]p_non_local_coeffs: call_update: 0 [ms]
local_interface_nnzs01[OGL LOG][Proc: 0]p: update_local_matrix_data: 69.702 [ms]
[OGL LOG][Proc: 0]p: update_non_local_matrix_data: 1.178 [ms]
[OGL LOG][Proc: 0]p_matrix: call_update: 37.621 [ms]
[OGL LOG][Proc: 0]p_rhs: call_update: 14.822 [ms]
[OGL LOG][Proc: 0]p: init_precond: 0.042 [ms]
[OGL LOG][StoppingCriterion.H:372] Creating stopping criterion with minIter 1386 frequency 21
[OGL LOG][Proc: 0]p: generate_solver: 0.024 [ms]
[OGL LOG][Proc: 0]p: solve: 24843.2 [ms]
[OGL LOG][Proc: 0]p: copy_x_back: 2.175 [ms]
[OGL LOG][lduLduBase.H:319] 
Statistics:
	Time per iteration: 10749 [mu s]
	Time per residual norm calculation: 4897.000000 [mu s]
	Time per iteration and DOF: 0.398111 [ns]
	Retrieve results bandwith 1.572000 [GByte/s]
[OGL LOG][Proc: 0]p: solve_multi_gpu: 24933.9 [ms]
nonecudaGKOCG:  Solving for p, Initial residual = 0.846516, Final residual = 7.03282e-05, No Iterations 2311
time step continuity errors : sum local = 9.06696e-09, global = -5.27265e-22, cumulative = 9.03589e-21
ExecutionTime = 814.99 s  ClockTime = 850 s

Time = 0.002656

Courant Number mean: 0.0460774 max: 0.493099
DILUPBiCGStab:  Solving for Ux, Initial residual = 0.0159258, Final residual = 0.00142792, No Iterations 5
DILUPBiCGStab:  Solving for Uy, Initial residual = 0.0585615, Final residual = 0.00407011, No Iterations 5
DILUPBiCGStab:  Solving for Uz, Initial residual = 0.484667, Final residual = 0.0173376, No Iterations 5
[OGL LOG][Proc: 0]: global_index_init: 0.477 [ms]
[OGL LOG][Proc: 0]p_local_coeffs: call_update: 0 [ms]
[OGL LOG][Proc: 0]p_non_local_coeffs: call_update: 0 [ms]
local_interface_nnzs01[OGL LOG][Proc: 0]p: update_local_matrix_data: 69.646 [ms]
[OGL LOG][Proc: 0]p: update_non_local_matrix_data: 0.916 [ms]
[OGL LOG][Proc: 0]p_matrix: call_update: 18.596 [ms]
[OGL LOG][Proc: 0]p_rhs: call_update: 33.424 [ms]
[OGL LOG][Proc: 0]p: init_precond: 0.042 [ms]
[OGL LOG][StoppingCriterion.H:372] Creating stopping criterion with minIter 1386 frequency 21
[OGL LOG][Proc: 0]p: generate_solver: 0.031 [ms]
[OGL LOG][Proc: 0]p: solve: 24923.8 [ms]
[OGL LOG][Proc: 0]p: copy_x_back: 1.188 [ms]
[OGL LOG][lduLduBase.H:319] 
Statistics:
	Time per iteration: 10784 [mu s]
	Time per residual norm calculation: 4607.000000 [mu s]
	Time per iteration and DOF: 0.399407 [ns]
	Retrieve results bandwith 2.878000 [GByte/s]
[OGL LOG][Proc: 0]p: solve_multi_gpu: 25001.7 [ms]
nonecudaGKOCG:  Solving for p, Initial residual = 0.896302, Final residual = 7.23727e-05, No Iterations 2311
time step continuity errors : sum local = 9.7473e-09, global = 5.2536e-22, cumulative = 9.56125e-21
[OGL LOG][Proc: 0]: global_index_init: 0.647 [ms]
[OGL LOG][Proc: 0]p_local_coeffs: call_update: 0 [ms]
[OGL LOG][Proc: 0]p_non_local_coeffs: call_update: 0 [ms]
local_interface_nnzs01[OGL LOG][Proc: 0]p: update_local_matrix_data: 68.991 [ms]
[OGL LOG][Proc: 0]p: update_non_local_matrix_data: 1.633 [ms]
[OGL LOG][Proc: 0]p_matrix: call_update: 18.379 [ms]
[OGL LOG][Proc: 0]p_rhs: call_update: 35.235 [ms]
[OGL LOG][Proc: 0]p: init_precond: 0.042 [ms]
[OGL LOG][StoppingCriterion.H:372] Creating stopping criterion with minIter 1386 frequency 21
[OGL LOG][Proc: 0]p: generate_solver: 0.025 [ms]
[OGL LOG][Proc: 0]p: solve: 24560.9 [ms]
[OGL LOG][Proc: 0]p: copy_x_back: 1.123 [ms]
[OGL LOG][lduLduBase.H:319] 
Statistics:
	Time per iteration: 10725 [mu s]
	Time per residual norm calculation: 4150.000000 [mu s]
	Time per iteration and DOF: 0.397222 [ns]
	Retrieve results bandwith 3.045000 [GByte/s]
[OGL LOG][Proc: 0]p: solve_multi_gpu: 24649.3 [ms]
nonecudaGKOCG:  Solving for p, Initial residual = 0.822433, Final residual = 9.85268e-05, No Iterations 2290
time step continuity errors : sum local = 1.33777e-08, global = 1.23133e-21, cumulative = 1.07926e-20
ExecutionTime = 869.37 s  ClockTime = 905 s

Time = 0.002822

Courant Number mean: 0.0471752 max: 0.552418
DILUPBiCGStab:  Solving for Ux, Initial residual = 0.0153434, Final residual = 0.00131432, No Iterations 5
DILUPBiCGStab:  Solving for Uy, Initial residual = 0.0598279, Final residual = 0.00410407, No Iterations 5
DILUPBiCGStab:  Solving for Uz, Initial residual = 0.495048, Final residual = 0.0172651, No Iterations 5
[OGL LOG][Proc: 0]: global_index_init: 0.194 [ms]
[OGL LOG][Proc: 0]p_local_coeffs: call_update: 0 [ms]
[OGL LOG][Proc: 0]p_non_local_coeffs: call_update: 0 [ms]
local_interface_nnzs01[OGL LOG][Proc: 0]p: update_local_matrix_data: 69.834 [ms]
[OGL LOG][Proc: 0]p: update_non_local_matrix_data: 0.885 [ms]
[OGL LOG][Proc: 0]p_matrix: call_update: 18.587 [ms]
[OGL LOG][Proc: 0]p_rhs: call_update: 34.138 [ms]
[OGL LOG][Proc: 0]p: init_precond: 0.04 [ms]
[OGL LOG][StoppingCriterion.H:372] Creating stopping criterion with minIter 1374 frequency 21
[OGL LOG][Proc: 0]p: generate_solver: 0.025 [ms]
[OGL LOG][Proc: 0]p: solve: 24836.7 [ms]
[OGL LOG][Proc: 0]p: copy_x_back: 3.93 [ms]
[OGL LOG][lduLduBase.H:319] 
Statistics:
	Time per iteration: 10747 [mu s]
	Time per residual norm calculation: 5086.000000 [mu s]
	Time per iteration and DOF: 0.398037 [ns]
	Retrieve results bandwith 0.870000 [GByte/s]
[OGL LOG][Proc: 0]p: solve_multi_gpu: 24931.9 [ms]
nonecudaGKOCG:  Solving for p, Initial residual = 0.910314, Final residual = 7.23006e-05, No Iterations 2311
time step continuity errors : sum local = 9.79879e-09, global = 8.44254e-23, cumulative = 1.0877e-20
[OGL LOG][Proc: 0]: global_index_init: 0.209 [ms]
[OGL LOG][Proc: 0]p_local_coeffs: call_update: 0 [ms]
[OGL LOG][Proc: 0]p_non_local_coeffs: call_update: 0 [ms]
local_interface_nnzs01[OGL LOG][Proc: 0]p: update_local_matrix_data: 69.323 [ms]
[OGL LOG][Proc: 0]p: update_non_local_matrix_data: 1.63 [ms]
[OGL LOG][Proc: 0]p_matrix: call_update: 33.749 [ms]
[OGL LOG][Proc: 0]p_rhs: call_update: 18.341 [ms]
[OGL LOG][Proc: 0]p: init_precond: 0.04 [ms]
[OGL LOG][StoppingCriterion.H:372] Creating stopping criterion with minIter 1386 frequency 21
[OGL LOG][Proc: 0]p: generate_solver: 0.026 [ms]
[OGL LOG][Proc: 0]p: solve: 24785 [ms]
[OGL LOG][Proc: 0]p: copy_x_back: 1.793 [ms]
[OGL LOG][lduLduBase.H:319] 
Statistics:
	Time per iteration: 10724 [mu s]
	Time per residual norm calculation: 4612.000000 [mu s]
	Time per iteration and DOF: 0.397185 [ns]
	Retrieve results bandwith 1.907000 [GByte/s]
[OGL LOG][Proc: 0]p: solve_multi_gpu: 24873.4 [ms]
nonecudaGKOCG:  Solving for p, Initial residual = 0.844686, Final residual = 6.81377e-05, No Iterations 2311
time step continuity errors : sum local = 9.19481e-09, global = 1.721e-21, cumulative = 1.2598e-20
ExecutionTime = 923.9 s  ClockTime = 960 s

Time = 0.002988

Courant Number mean: 0.0481502 max: 0.496148
DILUPBiCGStab:  Solving for Ux, Initial residual = 0.0154412, Final residual = 0.00132976, No Iterations 5
DILUPBiCGStab:  Solving for Uy, Initial residual = 0.0566693, Final residual = 0.00371515, No Iterations 5
DILUPBiCGStab:  Solving for Uz, Initial residual = 0.490861, Final residual = 0.0170401, No Iterations 5
[OGL LOG][Proc: 0]: global_index_init: 0.085 [ms]
[OGL LOG][Proc: 0]p_local_coeffs: call_update: 0 [ms]
[OGL LOG][Proc: 0]p_non_local_coeffs: call_update: 0 [ms]
local_interface_nnzs01[OGL LOG][Proc: 0]p: update_local_matrix_data: 69.623 [ms]
[OGL LOG][Proc: 0]p: update_non_local_matrix_data: 1.352 [ms]
[OGL LOG][Proc: 0]p_matrix: call_update: 18.534 [ms]
[OGL LOG][Proc: 0]p_rhs: call_update: 34.164 [ms]
[OGL LOG][Proc: 0]p: init_precond: 0.039 [ms]
[OGL LOG][StoppingCriterion.H:372] Creating stopping criterion with minIter 1386 frequency 21
[OGL LOG][Proc: 0]p: generate_solver: 0.025 [ms]
[OGL LOG][Proc: 0]p: solve: 24682.9 [ms]
[OGL LOG][Proc: 0]p: copy_x_back: 1.044 [ms]
[OGL LOG][lduLduBase.H:319] 
Statistics:
	Time per iteration: 10778 [mu s]
	Time per residual norm calculation: 4140.000000 [mu s]
	Time per iteration and DOF: 0.399185 [ns]
	Retrieve results bandwith 3.275000 [GByte/s]
[OGL LOG][Proc: 0]p: solve_multi_gpu: 24770.6 [ms]
nonecudaGKOCG:  Solving for p, Initial residual = 0.900315, Final residual = 9.91947e-05, No Iterations 2290
time step continuity errors : sum local = 1.39586e-08, global = 5.02751e-22, cumulative = 1.31008e-20
[OGL LOG][Proc: 0]: global_index_init: 1.054 [ms]
[OGL LOG][Proc: 0]p_local_coeffs: call_update: 0 [ms]
[OGL LOG][Proc: 0]p_non_local_coeffs: call_update: 0 [ms]
local_interface_nnzs01[OGL LOG][Proc: 0]p: update_local_matrix_data: 69.405 [ms]
[OGL LOG][Proc: 0]p: update_non_local_matrix_data: 1.3 [ms]
[OGL LOG][Proc: 0]p_matrix: call_update: 19.442 [ms]
[OGL LOG][Proc: 0]p_rhs: call_update: 33.547 [ms]
[OGL LOG][Proc: 0]p: init_precond: 0.041 [ms]
[OGL LOG][StoppingCriterion.H:372] Creating stopping criterion with minIter 1374 frequency 21
[OGL LOG][Proc: 0]p: generate_solver: 0.028 [ms]
[OGL LOG][Proc: 0]p: solve: 24601 [ms]
[OGL LOG][Proc: 0]p: copy_x_back: 1.032 [ms]
[OGL LOG][lduLduBase.H:319] 
Statistics:
	Time per iteration: 10742 [mu s]
	Time per residual norm calculation: 3997.000000 [mu s]
	Time per iteration and DOF: 0.397852 [ns]
	Retrieve results bandwith 3.313000 [GByte/s]
[OGL LOG][Proc: 0]p: solve_multi_gpu: 24689.4 [ms]
nonecudaGKOCG:  Solving for p, Initial residual = 0.825165, Final residual = 9.64089e-05, No Iterations 2290
time step continuity errors : sum local = 1.36629e-08, global = 2.6575e-22, cumulative = 1.33665e-20
ExecutionTime = 978.1 s  ClockTime = 1014 s

Time = 0.003154

Courant Number mean: 0.0491509 max: 0.564032
DILUPBiCGStab:  Solving for Ux, Initial residual = 0.015024, Final residual = 0.00122754, No Iterations 5
DILUPBiCGStab:  Solving for Uy, Initial residual = 0.0581975, Final residual = 0.00377814, No Iterations 5
DILUPBiCGStab:  Solving for Uz, Initial residual = 0.501933, Final residual = 0.0170846, No Iterations 5
[OGL LOG][Proc: 0]: global_index_init: 0.39 [ms]
[OGL LOG][Proc: 0]p_local_coeffs: call_update: 0 [ms]
[OGL LOG][Proc: 0]p_non_local_coeffs: call_update: 0 [ms]
local_interface_nnzs01[OGL LOG][Proc: 0]p: update_local_matrix_data: 69.906 [ms]
[OGL LOG][Proc: 0]p: update_non_local_matrix_data: 0.91 [ms]
[OGL LOG][Proc: 0]p_matrix: call_update: 30.809 [ms]
[OGL LOG][Proc: 0]p_rhs: call_update: 21.264 [ms]
[OGL LOG][Proc: 0]p: init_precond: 0.042 [ms]
[OGL LOG][StoppingCriterion.H:372] Creating stopping criterion with minIter 1374 frequency 21
[OGL LOG][Proc: 0]p: generate_solver: 0.029 [ms]
[OGL LOG][Proc: 0]p: solve: 24816 [ms]
[OGL LOG][Proc: 0]p: copy_x_back: 1.226 [ms]
[OGL LOG][lduLduBase.H:319] 
Statistics:
	Time per iteration: 10738 [mu s]
	Time per residual norm calculation: 4168.000000 [mu s]
	Time per iteration and DOF: 0.397704 [ns]
	Retrieve results bandwith 2.789000 [GByte/s]
[OGL LOG][Proc: 0]p: solve_multi_gpu: 24902.3 [ms]
nonecudaGKOCG:  Solving for p, Initial residual = 0.912586, Final residual = 7.08901e-05, No Iterations 2311
time step continuity errors : sum local = 1.00908e-08, global = 6.88929e-22, cumulative = 1.40554e-20
[OGL LOG][Proc: 0]: global_index_init: 0.176 [ms]
[OGL LOG][Proc: 0]p_local_coeffs: call_update: 0 [ms]
[OGL LOG][Proc: 0]p_non_local_coeffs: call_update: 0 [ms]
local_interface_nnzs01[OGL LOG][Proc: 0]p: update_local_matrix_data: 69.553 [ms]
[OGL LOG][Proc: 0]p: update_non_local_matrix_data: 1.227 [ms]
[OGL LOG][Proc: 0]p_matrix: call_update: 34.918 [ms]
[OGL LOG][Proc: 0]p_rhs: call_update: 19 [ms]
[OGL LOG][Proc: 0]p: init_precond: 0.037 [ms]
[OGL LOG][StoppingCriterion.H:372] Creating stopping criterion with minIter 1386 frequency 21
[OGL LOG][Proc: 0]p: generate_solver: 0.026 [ms]
[OGL LOG][Proc: 0]p: solve: 24828.4 [ms]
[OGL LOG][Proc: 0]p: copy_x_back: 1.155 [ms]
[OGL LOG][lduLduBase.H:319] 
Statistics:
	Time per iteration: 10743 [mu s]
	Time per residual norm calculation: 4248.000000 [mu s]
	Time per iteration and DOF: 0.397889 [ns]
	Retrieve results bandwith 2.961000 [GByte/s]
[OGL LOG][Proc: 0]p: solve_multi_gpu: 24917.9 [ms]
nonecudaGKOCG:  Solving for p, Initial residual = 0.844177, Final residual = 6.66307e-05, No Iterations 2311
time step continuity errors : sum local = 9.45329e-09, global = 4.92984e-22, cumulative = 1.45484e-20
ExecutionTime = 1032.63 s  ClockTime = 1069 s

Time = 0.00332

Courant Number mean: 0.050034 max: 0.499449
DILUPBiCGStab:  Solving for Ux, Initial residual = 0.015224, Final residual = 0.00124872, No Iterations 5
DILUPBiCGStab:  Solving for Uy, Initial residual = 0.0558076, Final residual = 0.0034504, No Iterations 5
DILUPBiCGStab:  Solving for Uz, Initial residual = 0.499384, Final residual = 0.0169031, No Iterations 5
[OGL LOG][Proc: 0]: global_index_init: 0.279 [ms]
[OGL LOG][Proc: 0]p_local_coeffs: call_update: 0 [ms]
[OGL LOG][Proc: 0]p_non_local_coeffs: call_update: 0 [ms]
local_interface_nnzs01[OGL LOG][Proc: 0]p: update_local_matrix_data: 68.355 [ms]
[OGL LOG][Proc: 0]p: update_non_local_matrix_data: 4.823 [ms]
[OGL LOG][Proc: 0]p_matrix: call_update: 40.851 [ms]
[OGL LOG][Proc: 0]p_rhs: call_update: 10.074 [ms]
[OGL LOG][Proc: 0]p: init_precond: 0.04 [ms]
[OGL LOG][StoppingCriterion.H:372] Creating stopping criterion with minIter 1386 frequency 21
[OGL LOG][Proc: 0]p: generate_solver: 0.024 [ms]
[OGL LOG][Proc: 0]p: solve: 24813.2 [ms]
[OGL LOG][Proc: 0]p: copy_x_back: 2.127 [ms]
[OGL LOG][lduLduBase.H:319] 
Statistics:
	Time per iteration: 10737 [mu s]
	Time per residual norm calculation: 5070.000000 [mu s]
	Time per iteration and DOF: 0.397667 [ns]
	Retrieve results bandwith 1.607000 [GByte/s]
[OGL LOG][Proc: 0]p: solve_multi_gpu: 24900.8 [ms]
nonecudaGKOCG:  Solving for p, Initial residual = 0.905385, Final residual = 7.44266e-05, No Iterations 2311
time step continuity errors : sum local = 1.09918e-08, global = 1.18157e-21, cumulative = 1.573e-20
[OGL LOG][Proc: 0]: global_index_init: 0.157 [ms]
[OGL LOG][Proc: 0]p_local_coeffs: call_update: 0 [ms]
[OGL LOG][Proc: 0]p_non_local_coeffs: call_update: 0 [ms]
local_interface_nnzs01[OGL LOG][Proc: 0]p: update_local_matrix_data: 69.214 [ms]
[OGL LOG][Proc: 0]p: update_non_local_matrix_data: 1.512 [ms]
[OGL LOG][Proc: 0]p_matrix: call_update: 23.461 [ms]
[OGL LOG][Proc: 0]p_rhs: call_update: 29.827 [ms]
[OGL LOG][Proc: 0]p: init_precond: 0.041 [ms]
[OGL LOG][StoppingCriterion.H:372] Creating stopping criterion with minIter 1386 frequency 21
[OGL LOG][Proc: 0]p: generate_solver: 0.027 [ms]
[OGL LOG][Proc: 0]p: solve: 24812.7 [ms]
[OGL LOG][Proc: 0]p: copy_x_back: 1.112 [ms]
[OGL LOG][lduLduBase.H:319] 
Statistics:
	Time per iteration: 10736 [mu s]
	Time per residual norm calculation: 4141.000000 [mu s]
	Time per iteration and DOF: 0.397630 [ns]
	Retrieve results bandwith 3.075000 [GByte/s]
[OGL LOG][Proc: 0]p: solve_multi_gpu: 24901.5 [ms]
nonecudaGKOCG:  Solving for p, Initial residual = 0.829029, Final residual = 6.93396e-05, No Iterations 2311
time step continuity errors : sum local = 1.03041e-08, global = 2.89348e-21, cumulative = 1.86235e-20
ExecutionTime = 1087.15 s  ClockTime = 1124 s

End

Finalising parallel run
[...]
01local_interface_nnzs01local_interface_nnzs01local_interface_nnzs01local_interface_nnzs01local_interface_nnzs01local_interface_nnzs01local_interface_nnzs01local_interface_nnzs01local_interface_nnzs01local_interface_nnzs01local_interface_nnzs01local_interface_nnzs01local_interface_nnzs01local_interface_nnzs01local_interface_nnzs01local_interface_nnzs01local_interface_nnzs01local_interface_nnzs01local_interface_nnzs01local_interface_nnzs01local_interface_nnzs01local_interface_nnzs01local_interface_nnzs01local_interface_nnzs01local_interface_nnzs01local_interface_nnzs01local_interface_nnzs01local_interface_nnzs01 local_interface_nnzs01local_interface_nnzs01local_interface_nnzs01local_interface_nnzs01local_interface_nnzs01local_interface_nnzs01local_interface_nnzs01local_interface_nnzs01local_interface_nnzs01local_interface_nnzs01local_interface_nnzs01local_interface_nnzs01local_interface_nnzs01local_interface_nnzs01local_interface_nnzs01local_interface_nnzs01local_interface_nnzs01local_interface_nnzs01local_interface_nnzs01local_interface_nnzs01local_interface_nnzs01local_interface_nnzs01local_interface_nnzs01local_interface_nnzs01local_interface_nnzs01local_interface_nnzs01local_interface_nnzs01local_interface_nnzs01local_interface_nnzs01local_interface_nnzs01local_interface_nnzs01local_interface_nnzs01local_interface_nnzs01local_interface_nnzs01local_interface_nnzs01local_interface_nnzs01local_interface_nnzs01local_interface_nnzs01local_interface_nnzs01local_interface_nnzs01 local_interface_nnzs01local_interface_nnzs01local_interface_nnzs01local_interface_nnzs01local_interface_nnzs01local_interface_nnzs01local_interface_nnzs01local_interface_nnzs01local_interface_nnzs01local_interface_nnzs01local_interface_nnzs01local_interface_nnzs01local_interface_nnzs01local_interface_nnzs01local_interface_nnzs01local_interface_nnzs01local_interface_nnzs01local_interface_nnzs01local_interface_nnzs01local_interface_nnzs01local_interface_nnzs01local_interface_nnzs01local_interface_nnzs01local_interface_nnzs01local_interface_nnzs01local_interface_nnzs01local_interface_nnzs01local_interface_nnzs01local_interface_nnzs01local_interface_nnzs01local_interface_nnzs01local_interface_nnzs01local_interface_nnzs01local_interface_nnzs01local_interface_nnzs01local_interface_nnzs01local_interface_nnzs01local_interface_nnzs01local_interface_nnzs01local_interface_nnzs01 local_interface_nnzs01local_interface_nnzs01local_interface_nnzs01local_interface_nnzs01local_interface_nnzs01local_interface_nnzs01local_interface_nnzs01local_interface_nnzs01local_interface_nnzs01local_interface_nnzs01local_interface_nnzs01local_interface_nnzs01local_interface_nnzs01local_interface_nnzs01local_interface_nnzs01local_interface_nnzs01local_interface_nnzs01local_interface_nnzs01local_interface_nnzs01local_interface_nnzs01local_interface_nnzs01local_interface_nnzs01local_interface_nnzs01local_interface_nnzs01local_interface_nnzs01local_interface_nnzs01local_interface_nnzs01local_interface_nnzs01local_interface_nnzs01local_interface_nnzs01local_interface_nnzs01local_interface_nnzs01local_interface_nnzs01local_interface_nnzs01local_interface_nnzs01local_interface_nnzs01local_interface_nnzs01local_interface_nnzs01local_interface_nnzs01local_interface_nnzs01 local_interface_nnzs01local_interface_nnzs01local_interface_nnzs01local_interface_nnzs01local_interface_nnzs01local_interface_nnzs01local_interface_nnzs01local_interface_nnzs01local_interface_nnzs01local_interface_nnzs01local_interface_nnzs01local_interface_nnzs01local_interface_nnzs01local_interface_nnzs01local_interface_nnzs01local_interface_nnzs01local_interface_nnzs01local_interface_nnzs01local_interface_nnzs01local_interface_nnzs01local_interface_nnzs01local_interface_nnzs01local_interface_nnzs01local_interface_nnzs01local_interface_nnzs01local_interface_nnzs01local_interface_nnzs01local_interface_nnzs01local_interface_nnzs01local_interface_nnzs01local_interface_nnzs01local_interface_nnzs01local_interface_nnzs01local_interface_nnzs01local_interface_nnzs01local_interface_nnzs01local_interface_nnzs01local_interface_nnzs01local_interface_nnzs01local_interface_nnzs01 local_interface_nnzs01local_interface_nnzs01local_interface_nnzs01local_interface_nnzs01local_interface_nnzs01local_interface_nnzs01local_interface_nnzs01local_interface_nnzs01local_interface_nnzs01local_interface_nnzs01local_interface_nnzs01local_interface_nnzs01local_interface_nnzs01local_interface_nnzs01local_interface_nnzs01local_interface_nnzs01local_interface_nnzs01local_interface_nnzs01local_interface_nnzs01local_interface_nnzs01local_interface_nnzs01local_interface_nnzs01local_interface_nnzs01local_interface_nnzs01local_interface_nnzs01local_interface_nnzs01local_interface_nnzs01local_interface_nnzs01local_interface_nnzs01local_interface_nnzs01local_interface_nnzs01local_interface_nnzs01local_interface_nnzs01local_interface_nnzs01local_interface_nnzs01local_interface_nnzs01local_interface_nnzs01local_interface_nnzs01local_interface_nnzs01local_interface_nnzs01 local_interface_nnzs01local_interface_nnzs01local_interface_nnzs01local_interface_nnzs01local_interface_nnzs01local_interface_nnzs01local_interface_nnzs01local_interface_nnzs01local_interface_nnzs01local_interface_nnzs01local_interface_nnzs01local_interface_nnzs01local_interface_nnzs01local_interface_nnzs01local_interface_nnzs01local_interface_nnzs01local_interface_nnzs01local_interface_nnzs01local_interface_nnzs01local_interface_nnzs01local_interface_nnzs01local_interface_nnzs01local_interface_nnzs01local_interface_nnzs01local_interface_nnzs01local_interface_nnzs01local_interface_nnzs01local_interface_nnzs01local_interface_nnzs01local_interface_nnzs01local_interface_nnzs01local_interface_nnzs01local_interface_nnzs01local_interface_nnzs01local_interface_nnzs01local_interface_nnzs01local_interface_nnzs01local_interface_nnzs01local_interface_nnzs01local_interface_nnzs01 local_interface_nnzs01local_interface_nnzs01local_interface_nnzs01local_interface_nnzs01local_interface_nnzs01local_interface_nnzs01local_interface_nnzs01local_interface_nnzs01local_interface_nnzs01local_interface_nnzs01local_interface_nnzs01local_interface_nnzs01local_interface_nnzs01local_interface_nnzs01local_interface_nnzs01local_interface_nnzs01local_interface_nnzs01local_interface_nnzs01local_interface_nnzs01local_interface_nnzs01local_interface_nnzs01local_interface_nnzs01local_interface_nnzs01local_interface_nnzs01local_interface_nnzs01local_interface_nnzs01local_interface_nnzs01local_interface_nnzs01local_interface_nnzs01local_interface_nnzs01local_interface_nnzs01local_interface_nnzs01local_interface_nnzs01local_interface_nnzs01local_interface_nnzs01local_interface_nnzs01local_interface_nnzs01local_interface_nnzs01local_interface_nnzs01local_interface_nnzs01 local_interface_nnzs01local_interface_nnzs01local_interface_nnzs01local_interface_nnzs01local_interface_nnzs01local_interface_nnzs01local_interface_nnzs01local_interface_nnzs01local_interface_nnzs01local_interface_nnzs01local_interface_nnzs01local_interface_nnzs01local_interface_nnzs01local_interface_nnzs01local_interface_nnzs01local_interface_nnzs01local_interface_nnzs01local_interface_nnzs01local_interface_nnzs01local_interface_nnzs01local_interface_nnzs01local_interface_nnzs01local_interface_nnzs01local_interface_nnzs01local_interface_nnzs01local_interface_nnzs01local_interface_nnzs01local_interface_nnzs01local_interface_nnzs01local_interface_nnzs01local_interface_nnzs01local_interface_nnzs01local_interface_nnzs01local_interface_nnzs01local_interface_nnzs01local_interface_nnzs01local_interface_nnzs01local_interface_nnzs01local_interface_nnzs01local_interface_nnzs01 local_interface_nnzs01local_interface_nnzs01local_interface_nnzs01local_interface_nnzs01local_interface_nnzs01local_interface_nnzs01local_interface_nnzs01local_interface_nnzs01local_interface_nnzs01local_interface_nnzs01local_interface_nnzs01local_interface_nnzs01local_interface_nnzs01local_interface_nnzs01local_interface_nnzs01local_interface_nnzs01local_interface_nnzs01local_interface_nnzs01local_interface_nnzs01local_interface_nnzs01local_interface_nnzs01local_interface_nnzs01local_interface_nnzs01local_interface_nnzs01local_interface_nnzs01local_interface_nnzs01local_interface_nnzs01local_interface_nnzs01local_interface_nnzs01local_interface_nnzs01local_interface_nnzs01local_interface_nnzs01local_interface_nnzs01local_interface_nnzs01local_interface_nnzs01local_interface_nnzs01local_interface_nnzs01local_interface_nnzs01local_interface_nnzs01local_interface_nnzs01 local_interface_nnzs01local_interface_nnzs01local_interface_nnzs01local_interface_nnzs01local_interface_nnzs01local_interface_nnzs01local_interface_nnzs01local_interface_nnzs01local_interface_nnzs01local_interface_nnzs01local_interface_nnzs01local_interface_nnzs01local_interface_nnzs01local_interface_nnzs01local_interface_nnzs01local_interface_nnzs01local_interface_nnzs01local_interface_nnzs01local_interface_nnzs01local_interface_nnzs01local_interface_nnzs01local_interface_nnzs01local_interface_nnzs01local_interface_nnzs01local_interface_nnzs01local_interface_nnzs01local_interface_nnzs01local_interface_nnzs01local_interface_nnzs01local_interface_nnzs01local_interface_nnzs01local_interface_nnzs01local_interface_nnzs01local_interface_nnzs01local_interface_nnzs01local_interface_nnzs01local_interface_nnzs01local_interface_nnzs01local_interface_nnzs01local_interface_nnzs01 local_interface_nnzs01local_interface_nnzs01local_interface_nnzs01local_interface_nnzs01local_interface_nnzs01local_interface_nnzs01local_interface_nnzs01local_interface_nnzs01local_interface_nnzs01local_interface_nnzs01local_interface_nnzs01local_interface_nnzs01local_interface_nnzs01local_interface_nnzs01local_interface_nnzs01local_interface_nnzs01local_interface_nnzs01local_interface_nnzs01local_interface_nnzs01local_interface_nnzs01local_interface_nnzs01local_interface_nnzs01local_interface_nnzs01local_interface_nnzs01local_interface_nnzs01local_interface_nnzs01local_interface_nnzs01local_interface_nnzs01local_interface_nnzs01local_interface_nnzs01local_interface_nnzs01local_interface_nnzs01local_interface_nnzs01local_interface_nnzs01local_interface_nnzs01local_interface_nnzs01local_interface_nnzs01local_interface_nnzs01local_interface_nnzs01local_interface_nnzs01 local_interface_nnzs01local_interface_nnzs01local_interface_nnzs01local_interface_nnzs01local_interface_nnzs01local_interface_nnzs01local_interface_nnzs01local_interface_nnzs01local_interface_nnzs01local_interface_nnzs01local_interface_nnzs01local_interface_nnzs01local_interface_nnzs01local_interface_nnzs01local_interface_nnzs01local_interface_nnzs01local_interface_nnzs01local_interface_nnzs01local_interface_nnzs01local_interface_nnzs01local_interface_nnzs01local_interface_nnzs01local_interface_nnzs01local_interface_nnzs01local_interface_nnzs01local_interface_nnzs01local_interface_nnzs01local_interface_nnzs01local_interface_nnzs01local_interface_nnzs01local_interface_nnzs01local_interface_nnzs01local_interface_nnzs01local_interface_nnzs01local_interface_nnzs01local_interface_nnzs01local_interface_nnzs01local_interface_nnzs01local_interface_nnzs01local_interface_nnzs01 local_interface_nnzs01local_interface_nnzs01local_interface_nnzs01local_interface_nnzs01local_interface_nnzs01local_interface_nnzs01local_interface_nnzs01local_interface_nnzs01local_interface_nnzs01local_interface_nnzs01local_interface_nnzs01local_interface_nnzs01local_interface_nnzs01local_interface_nnzs01local_interface_nnzs01local_interface_nnzs01local_interface_nnzs01local_interface_nnzs01local_interface_nnzs01local_interface_nnzs01local_interface_nnzs01local_interface_nnzs01local_interface_nnzs01local_interface_nnzs01local_interface_nnzs01local_interface_nnzs01local_interface_nnzs01local_interface_nnzs01local_interface_nnzs01local_interface_nnzs01local_interface_nnzs01local_interface_nnzs01local_interface_nnzs01local_interface_nnzs01local_interface_nnzs01local_interface_nnzs01local_interface_nnzs01local_interface_nnzs01local_interface_nnzs01local_interface_nnzs01 local_interface_nnzs01local_interface_nnzs01local_interface_nnzs01local_interface_nnzs01local_interface_nnzs01local_interface_nnzs01local_interface_nnzs01local_interface_nnzs01local_interface_nnzs01local_interface_nnzs01local_interface_nnzs01local_interface_nnzs01local_interface_nnzs01local_interface_nnzs01local_interface_nnzs01local_interface_nnzs01local_interface_nnzs01local_interface_nnzs01local_interface_nnzs01local_interface_nnzs01local_interface_nnzs01local_interface_nnzs01local_interface_nnzs01local_interface_nnzs01local_interface_nnzs01local_interface_nnzs01local_interface_nnzs01local_interface_nnzs01local_interface_nnzs01local_interface_nnzs01local_interface_nnzs01local_interface_nnzs01local_interface_nnzs01local_interface_nnzs01local_interface_nnzs01local_interface_nnzs01local_interface_nnzs01local_interface_nnzs01local_interface_nnzs01local_interface_nnzs01 local_interface_nnzs01local_interface_nnzs01local_interface_nnzs01local_interface_nnzs01local_interface_nnzs01local_interface_nnzs01local_interface_nnzs01local_interface_nnzs01local_interface_nnzs01local_interface_nnzs01local_interface_nnzs01local_interface_nnzs01local_interface_nnzs01local_interface_nnzs01local_interface_nnzs01local_interface_nnzs01local_interface_nnzs01local_interface_nnzs01local_interface_nnzs01local_interface_nnzs01local_interface_nnzs01local_interface_nnzs01local_interface_nnzs01local_interface_nnzs01local_interface_nnzs01local_interface_nnzs01local_interface_nnzs01local_interface_nnzs01local_interface_nnzs01local_interface_nnzs01local_interface_nnzs01local_interface_nnzs01local_interface_nnzs01local_interface_nnzs01local_interface_nnzs01local_interface_nnzs01local_interface_nnzs01local_interface_nnzs01local_interface_nnzs01local_interface_nnzs01 local_interface_nnzs01local_interface_nnzs01local_interface_nnzs01local_interface_nnzs01local_interface_nnzs01local_interface_nnzs01local_interface_nnzs01local_interface_nnzs01local_interface_nnzs01local_interface_nnzs01local_interface_nnzs01local_interface_nnzs01local_interface_nnzs01local_interface_nnzs01local_interface_nnzs01local_interface_nnzs01local_interface_nnzs01local_interface_nnzs01local_interface_nnzs01local_interface_nnzs01local_interface_nnzs01local_interface_nnzs01local_interface_nnzs01local_interface_nnzs01local_interface_nnzs01local_interface_nnzs01local_interface_nnzs01local_interface_nnzs01local_interface_nnzs01local_interface_nnzs01local_interface_nnzs01local_interface_nnzs01local_interface_nnzs01local_interface_nnzs01local_interface_nnzs01local_interface_nnzs01local_interface_nnzs01local_interface_nnzs01local_interface_nnzs01local_interface_nnzs01 local_interface_nnzs01local_interface_nnzs01local_interface_nnzs01local_interface_nnzs01local_interface_nnzs01local_interface_nnzs01local_interface_nnzs01local_interface_nnzs01local_interface_nnzs01local_interface_nnzs01local_interface_nnzs01local_interface_nnzs01local_interface_nnzs01local_interface_nnzs01local_interface_nnzs01local_interface_nnzs01local_interface_nnzs01local_interface_nnzs01local_interface_nnzs01local_interface_nnzs01local_interface_nnzs01local_interface_nnzs01local_interface_nnzs01local_interface_nnzs01local_interface_nnzs01local_interface_nnzs01local_interface_nnzs01local_interface_nnzs01local_interface_nnzs01local_interface_nnzs01local_interface_nnzs01local_interface_nnzs01local_interface_nnzs01local_interface_nnzs01local_interface_nnzs01local_interface_nnzs01local_interface_nnzs01local_interface_nnzs01local_interface_nnzs01local_interface_nnzs01 local_interface_nnzs01local_interface_nnzs01local_interface_nnzs01local_interface_nnzs01local_interface_nnzs01local_interface_nnzs01local_interface_nnzs01local_interface_nnzs01local_interface_nnzs01local_interface_nnzs01local_interface_nnzs01local_interface_nnzs01local_interface_nnzs01local_interface_nnzs01local_interface_nnzs01local_interface_nnzs01local_interface_nnzs01local_interface_nnzs01local_interface_nnzs01local_interface_nnzs01local_interface_nnzs01local_interface_nnzs01local_interface_nnzs01local_interface_nnzs01local_interface_nnzs01local_interface_nnzs01local_interface_nnzs01local_interface_nnzs01local_interface_nnzs01local_interface_nnzs01local_interface_nnzs01local_interface_nnzs01local_interface_nnzs01local_interface_nnzs01local_interface_nnzs01local_interface_nnzs01local_interface_nnzs01local_interface_nnzs01local_interface_nnzs01local_interface_nnzs01 local_interface_nnzs01local_interface_nnzs01local_interface_nnzs01local_interface_nnzs01local_interface_nnzs01local_interface_nnzs01local_interface_nnzs01local_interface_nnzs01local_interface_nnzs01local_interface_nnzs01local_interface_nnzs01local_interface_nnzs01local_interface_nnzs01local_interface_nnzs01local_interface_nnzs01local_interface_nnzs01local_interface_nnzs01local_interface_nnzs01local_interface_nnzs01local_interface_nnzs01local_interface_nnzs01local_interface_nnzs01local_interface_nnzs01local_interface_nnzs01local_interface_nnzs01local_interface_nnzs01local_interface_nnzs01local_interface_nnzs01local_interface_nnzs01local_interface_nnzs01local_interface_nnzs01local_interface_nnzs01local_interface_nnzs01local_interface_nnzs01local_interface_nnzs01local_interface_nnzs01local_interface_nnzs01local_interface_nnzs01local_interface_nnzs01local_interface_nnzs01 local_interface_nnzs01local_interface_nnzs01local_interface_nnzs01local_interface_nnzs01local_interface_nnzs01local_interface_nnzs01local_interface_nnzs01local_interface_nnzs01local_interface_nnzs01local_interface_nnzs01local_interface_nnzs01local_interface_nnzs01local_interface_nnzs01local_interface_nnzs01local_interface_nnzs01local_interface_nnzs01local_interface_nnzs01local_interface_nnzs01local_interface_nnzs01local_interface_nnzs01local_interface_nnzs01local_interface_nnzs01local_interface_nnzs01local_interface_nnzs01local_interface_nnzs01local_interface_nnzs01local_interface_nnzs01local_interface_nnzs01local_interface_nnzs01local_interface_nnzs01local_interface_nnzs01local_interface_nnzs01local_interface_nnzs01local_interface_nnzs01local_interface_nnzs01local_interface_nnzs01local_interface_nnzs01local_interface_nnzs01local_interface_nnzs01local_interface_nnzs01 local_interface_nnzs01local_interface_nnzs01local_interface_nnzs01local_interface_nnzs01local_interface_nnzs01local_interface_nnzs01local_interface_nnzs01local_interface_nnzs01local_interface_nnzs01local_interface_nnzs01local_interface_nnzs01local_interface_nnzs01local_interface_nnzs01local_interface_nnzs01local_interface_nnzs01local_interface_nnzs01local_interface_nnzs01local_interface_nnzs01local_interface_nnzs01local_interface_nnzs01local_interface_nnzs01local_interface_nnzs01local_interface_nnzs01local_interface_nnzs01local_interface_nnzs01local_interface_nnzs01local_interface_nnzs01local_interface_nnzs01local_interface_nnzs01local_interface_nnzs01local_interface_nnzs01local_interface_nnzs01local_interface_nnzs01local_interface_nnzs01local_interface_nnzs01local_interface_nnzs01local_interface_nnzs01local_interface_nnzs01local_interface_nnzs01local_interface_nnzs01 local_interface_nnzs01local_interface_nnzs01local_interface_nnzs01local_interface_nnzs01local_interface_nnzs01local_interface_nnzs01local_interface_nnzs01local_interface_nnzs01local_interface_nnzs01local_interface_nnzs01local_interface_nnzs01local_interface_nnzs01local_interface_nnzs01local_interface_nnzs01local_interface_nnzs01local_interface_nnzs01local_interface_nnzs01local_interface_nnzs01local_interface_nnzs01local_interface_nnzs01local_interface_nnzs01local_interface_nnzs01local_interface_nnzs01local_interface_nnzs01local_interface_nnzs01local_interface_nnzs01local_interface_nnzs01local_interface_nnzs01local_interface_nnzs01local_interface_nnzs01local_interface_nnzs01local_interface_nnzs01local_interface_nnzs01local_interface_nnzs01local_interface_nnzs01local_interface_nnzs01local_interface_nnzs01local_interface_nnzs01local_interface_nnzs01local_interface_nnzs01