/*---------------------------------------------------------------------------*\
| =========                 |                                                 |
| \\      /  F ield         | OpenFOAM: The Open Source CFD Toolbox           |
|  \\    /   O peration     | Version:  2306                                  |
|   \\  /    A nd           | Website:  www.openfoam.com                      |
|    \\/     M anipulation  |                                                 |
\*---------------------------------------------------------------------------*/
Build  : c423ebec-20231012 OPENFOAM=2306 version=v2306
Arch   : "LSB;label=32;scalar=64"
Exec   : icoFoam -parallel -case /hkfs/work/workspace/scratch/eq4036-l3d/workspace/0526930ff7459c955fa560c17beb66be/case
Date   : Dec 30 2023
Time   : 09:52:43
Host   : hkn0808.localdomain
PID    : 4145036
I/O    : uncollated
Case   : /hkfs/work/workspace/scratch/eq4036-l3d/workspace/0526930ff7459c955fa560c17beb66be/case
nProcs : 16
Hosts  :
(
    (hkn0808.localdomain 16)
)
Pstream initialized with:
    floatTransfer      : false
    nProcsSimpleSum    : 0
    nonBlockingExchange: 0 (tuning: 0)
    exchange algorithm : -1
    commsType          : nonBlocking
    polling iterations : 0
trapFpe: Floating point exception trapping enabled (FOAM_SIGFPE).
fileModificationChecking : Monitoring run-time modified files using timeStampMaster (fileModificationSkew 5, maxFileModificationPolls 20)
allowSystemOperations : Allowing user-supplied system call operations

// * * * * * * * * * * * * * * * * * * * * * * * * * * * * * * * * * * * * * //
Create time

--> FOAM Warning : 
    From void* Foam::dlLibraryTable::openLibrary(const Foam::fileName&, bool)
    in file db/dynamicLibrary/dlLibraryTable/dlLibraryTable.C at line 188
    Could not load "libpetscFoam.so"
libpetscFoam.so: cannot open shared object file: No such file or directory
Create mesh for time = 0


PISO: Operating solver in PISO mode

Reading transportProperties

Reading field p

Reading field U

Reading/calculating face flux field phi


Starting time loop

Time = 0.0005

Courant Number mean: 8.62851e-18 max: 8.67362e-15
[INFO] MatrixAssemblyU: 17.916 [ms]
DILUPBiCGStab:  Solving for Ux, Initial residual = 1, Final residual = 0.00283431, No Iterations 5
DILUPBiCGStab:  Solving for Uy:  solution singularity
DILUPBiCGStab:  Solving for Uz:  solution singularity
[INFO] MomentumPredictor: 50.654 [ms]
[INFO] MatrixAssemblyPI: 12.992 [ms]
[INFO] AdjustPhi: 0.576 [ms]
[INFO] ConstrainPressure: 0.005 [ms]
[INFO] MatrixAssemblyPII: 4.165 [ms]
[OGL LOG][lduLduBase.H:119] Initialising OGL
	OGL commit:  a2fc0ff+
	Branch: feat/on_device_permute 
	Build type: Release
	Ginkgo version: 1.7.0 ( develop)
	Ginkgo commit: sparse-communicator
	MPI is GPU aware: 1
	Forces host buffer based communication: 0
	CPU ranks per GPU: 1
	Matrix format: Ell
	End OGL_INFO
[OGL LOG][Proc: 0]: global_index_init: 2.152 [ms]
[OGL LOG][Proc: 0]p_local_cols: call_init: 1.27 [ms]
[OGL LOG][Proc: 0]p_local_rows: call_init: 1.224 [ms]
[OGL LOG][Proc: 0]p_local_ldu_map: call_init: 0.743 [ms]
[OGL LOG][Proc: 0]p_local_coeffs: call_init: 4.741 [ms]
[OGL LOG][Proc: 0]p_non_local_cols: call_init: 0.252 [ms]
[OGL LOG][Proc: 0]p_non_local_rows: call_init: 0.298 [ms]
[OGL LOG][Proc: 0]p_non_local_ldu_map: call_init: 0.272 [ms]
[OGL LOG][Proc: 0]p_non_local_coeffs: call_init: 0.465 [ms]
[OGL LOG][Proc: 0]p: init_local_sparsity_pattern: 19.487 [ms]
[OGL LOG][Proc: 0]p: init_non_local_sparsity_pattern: 0.407 [ms]
[OGL LOG][Proc: 0]p: update_local_matrix_data: 84.48 [ms]
[OGL LOG][Proc: 0]p: update_non_local_matrix_data: 0.067 [ms]
[OGL LOG][Proc: 0]device_partition: call_init: 0.078 [ms]
[OGL LOG][Proc: 0]p_matrix: call_init: 13.034 [ms]
[OGL LOG][Proc: 0]p_rhs: call_init: 0.437 [ms]
[OGL LOG][Proc: 0]p_solution: call_init: 1.552 [ms]
[OGL LOG][Preconditioner.H:121] Generate preconditioner BJ MaxBlockSize 1
[OGL LOG][Proc: 0]p: init_precond: 23.869 [ms]
[OGL LOG][StoppingCriterion.H:237] Creating stopping criterion with minIter 0 frequency 1
[OGL LOG][Proc: 0]p: generate_solver: 0.063 [ms]
[OGL LOG][Proc: 0]p: solve: 8248.56 [ms]
[OGL LOG][Proc: 0]p: copy_x_back: 0.414 [ms]
[OGL LOG][lduLduBase.H:330] 
Statistics:
	Time per iteration: 10561 [mu s]
	Time per residual norm calculation: 4865.000000 [mu s]
	Time per iteration and DOF: 10.561000 [ns]
	Retrieve results bandwidth 1.207000 [GByte/s]
[OGL LOG][Proc: 0]p: solve_multi_gpu: 8288.97 [ms]
BJcudaGKOCG:  Solving for p, Initial residual = 1, Final residual = 9.8364e-05, No Iterations 781
[INFO] SolveP: 11436.3 [ms]
time step continuity errors : sum local = 2.11349e-08, global = 1.06249e-21, cumulative = 1.06249e-21
[INFO] ContinuityError: 1.996 [ms]
[INFO] CorrectBoundary: 0.243 [ms]
[INFO] PISOStep: 11463.4 [ms]
[INFO] MatrixAssemblyPI: 13.698 [ms]
[INFO] AdjustPhi: 0.5 [ms]
[INFO] ConstrainPressure: 0.001 [ms]
[INFO] MatrixAssemblyPII: 4.673 [ms]
[OGL LOG][Proc: 0]: global_index_init: 0.012 [ms]
[OGL LOG][Proc: 0]p_local_coeffs: call_update: 0.001 [ms]
[OGL LOG][Proc: 0]p_non_local_coeffs: call_update: 0 [ms]
[OGL LOG][Proc: 0]p: update_local_matrix_data: 6.071 [ms]
[OGL LOG][Proc: 0]p: update_non_local_matrix_data: 0.051 [ms]
[OGL LOG][Proc: 0]p: regenerate_distributed_matrix: 12.441 [ms]
[OGL LOG][Proc: 0]p_matrix: call_update: 13.8 [ms]
[OGL LOG][Proc: 0]p_rhs: call_update: 1.01 [ms]
[OGL LOG][Preconditioner.H:121] Generate preconditioner BJ MaxBlockSize 1
[OGL LOG][Proc: 0]p: init_precond: 0.557 [ms]
[OGL LOG][StoppingCriterion.H:237] Creating stopping criterion with minIter 468 frequency 12
[OGL LOG][Proc: 0]p: generate_solver: 0.001 [ms]
[OGL LOG][Proc: 0]p: solve: 6203.99 [ms]
[OGL LOG][Proc: 0]p: copy_x_back: 0.397 [ms]
[OGL LOG][lduLduBase.H:330] 
Statistics:
	Time per iteration: 8067 [mu s]
	Time per residual norm calculation: 2170.000000 [mu s]
	Time per iteration and DOF: 8.067000 [ns]
	Retrieve results bandwidth 1.259000 [GByte/s]
[OGL LOG][Proc: 0]p: solve_multi_gpu: 6220.98 [ms]
BJcudaGKOCG:  Solving for p, Initial residual = 0.731149, Final residual = 9.80831e-05, No Iterations 769
[INFO] SolveP: 6228.39 [ms]
time step continuity errors : sum local = 2.78264e-08, global = 3.65965e-21, cumulative = 4.72214e-21
[INFO] ContinuityError: 3.395 [ms]
[INFO] CorrectBoundary: 0.09 [ms]
[INFO] PISOStep: 6261.53 [ms]
[INFO] TimeStep: 17796 [ms]
ExecutionTime = 15.85 s  ClockTime = 18 s

Time = 0.001

Courant Number mean: 0.0215183 max: 0.377124
[INFO] MatrixAssemblyU: 14.019 [ms]
DILUPBiCGStab:  Solving for Ux, Initial residual = 0.150306, Final residual = 0.00127595, No Iterations 5
DILUPBiCGStab:  Solving for Uy, Initial residual = 0.368268, Final residual = 0.00250957, No Iterations 5
DILUPBiCGStab:  Solving for Uz, Initial residual = 0.986403, Final residual = 0.00613241, No Iterations 5
[INFO] MomentumPredictor: 92.199 [ms]
[INFO] MatrixAssemblyPI: 12.515 [ms]
[INFO] AdjustPhi: 1.102 [ms]
[INFO] ConstrainPressure: 0.002 [ms]
[INFO] MatrixAssemblyPII: 3.976 [ms]
[OGL LOG][Proc: 0]: global_index_init: 0.011 [ms]
[OGL LOG][Proc: 0]p_local_coeffs: call_update: 0 [ms]
[OGL LOG][Proc: 0]p_non_local_coeffs: call_update: 0 [ms]
[OGL LOG][Proc: 0]p: update_local_matrix_data: 5.88 [ms]
[OGL LOG][Proc: 0]p: update_non_local_matrix_data: 0.054 [ms]
[OGL LOG][Proc: 0]p: regenerate_distributed_matrix: 12.235 [ms]
[OGL LOG][Proc: 0]p_matrix: call_update: 14.81 [ms]
[OGL LOG][Proc: 0]p_rhs: call_update: 5.476 [ms]
[OGL LOG][Preconditioner.H:121] Generate preconditioner BJ MaxBlockSize 1
[OGL LOG][Proc: 0]p: init_precond: 0.7 [ms]
[OGL LOG][StoppingCriterion.H:237] Creating stopping criterion with minIter 461 frequency 10
[OGL LOG][Proc: 0]p: generate_solver: 0.001 [ms]
[OGL LOG][Proc: 0]p: solve: 6234.55 [ms]
[OGL LOG][Proc: 0]p: copy_x_back: 0.401 [ms]
[OGL LOG][lduLduBase.H:330] 
Statistics:
	Time per iteration: 8086 [mu s]
	Time per residual norm calculation: 2468.000000 [mu s]
	Time per iteration and DOF: 8.086000 [ns]
	Retrieve results bandwidth 1.246000 [GByte/s]
[OGL LOG][Proc: 0]p: solve_multi_gpu: 6258.15 [ms]
BJcudaGKOCG:  Solving for p, Initial residual = 0.691536, Final residual = 7.00442e-05, No Iterations 771
[INFO] SolveP: 6264.99 [ms]
time step continuity errors : sum local = 2.22915e-08, global = -5.88637e-21, cumulative = -1.16423e-21
[INFO] ContinuityError: 1.613 [ms]
[INFO] CorrectBoundary: 0.081 [ms]
[INFO] PISOStep: 6291.75 [ms]
[INFO] MatrixAssemblyPI: 13.574 [ms]
[INFO] AdjustPhi: 0.515 [ms]
[INFO] ConstrainPressure: 0.002 [ms]
[INFO] MatrixAssemblyPII: 4.473 [ms]
[OGL LOG][Proc: 0]: global_index_init: 0.024 [ms]
[OGL LOG][Proc: 0]p_local_coeffs: call_update: 0 [ms]
[OGL LOG][Proc: 0]p_non_local_coeffs: call_update: 0 [ms]
[OGL LOG][Proc: 0]p: update_local_matrix_data: 4.05 [ms]
[OGL LOG][Proc: 0]p: update_non_local_matrix_data: 0.053 [ms]
[OGL LOG][Proc: 0]p: regenerate_distributed_matrix: 12.042 [ms]
[OGL LOG][Proc: 0]p_matrix: call_update: 13.358 [ms]
[OGL LOG][Proc: 0]p_rhs: call_update: 0.114 [ms]
[OGL LOG][Preconditioner.H:121] Generate preconditioner BJ MaxBlockSize 1
[OGL LOG][Proc: 0]p: init_precond: 0.554 [ms]
[OGL LOG][StoppingCriterion.H:237] Creating stopping criterion with minIter 462 frequency 10
[OGL LOG][Proc: 0]p: generate_solver: 0.001 [ms]
[OGL LOG][Proc: 0]p: solve: 6231.44 [ms]
[OGL LOG][Proc: 0]p: copy_x_back: 0.368 [ms]
[OGL LOG][lduLduBase.H:330] 
Statistics:
	Time per iteration: 8082 [mu s]
	Time per residual norm calculation: 2751.000000 [mu s]
	Time per iteration and DOF: 8.082000 [ns]
	Retrieve results bandwidth 1.358000 [GByte/s]
[OGL LOG][Proc: 0]p: solve_multi_gpu: 6249.04 [ms]
BJcudaGKOCG:  Solving for p, Initial residual = 0.620725, Final residual = 6.1996e-05, No Iterations 771
[INFO] SolveP: 6254.06 [ms]
time step continuity errors : sum local = 2.01234e-08, global = -2.75149e-21, cumulative = -3.91572e-21
[INFO] ContinuityError: 2.398 [ms]
[INFO] CorrectBoundary: 0.277 [ms]
[INFO] PISOStep: 6282.24 [ms]
[INFO] TimeStep: 12682.1 [ms]
ExecutionTime = 28.5 s  ClockTime = 31 s

Time = 0.0015

Courant Number mean: 0.0324765 max: 0.441237
[INFO] MatrixAssemblyU: 13.829 [ms]
DILUPBiCGStab:  Solving for Ux, Initial residual = 0.053124, Final residual = 0.000379605, No Iterations 5
DILUPBiCGStab:  Solving for Uy, Initial residual = 0.124771, Final residual = 0.000649553, No Iterations 5
DILUPBiCGStab:  Solving for Uz, Initial residual = 0.580141, Final residual = 0.00342255, No Iterations 5
[INFO] MomentumPredictor: 91.694 [ms]
[INFO] MatrixAssemblyPI: 12.975 [ms]
[INFO] AdjustPhi: 0.527 [ms]
[INFO] ConstrainPressure: 0.002 [ms]
[INFO] MatrixAssemblyPII: 4.021 [ms]
[OGL LOG][Proc: 0]: global_index_init: 0.012 [ms]
[OGL LOG][Proc: 0]p_local_coeffs: call_update: 0 [ms]
[OGL LOG][Proc: 0]p_non_local_coeffs: call_update: 0 [ms]
[OGL LOG][Proc: 0]p: update_local_matrix_data: 5.304 [ms]
[OGL LOG][Proc: 0]p: update_non_local_matrix_data: 0.059 [ms]
[OGL LOG][Proc: 0]p: regenerate_distributed_matrix: 13.932 [ms]
[OGL LOG][Proc: 0]p_matrix: call_update: 15.029 [ms]
[OGL LOG][Proc: 0]p_rhs: call_update: 0.201 [ms]
[OGL LOG][Preconditioner.H:121] Generate preconditioner BJ MaxBlockSize 1
[OGL LOG][Proc: 0]p: init_precond: 0.56 [ms]
[OGL LOG][StoppingCriterion.H:237] Creating stopping criterion with minIter 462 frequency 12
[OGL LOG][Proc: 0]p: generate_solver: 0.001 [ms]
[OGL LOG][Proc: 0]p: solve: 6207.88 [ms]
[OGL LOG][Proc: 0]p: copy_x_back: 0.181 [ms]
[OGL LOG][lduLduBase.H:330] 
Statistics:
	Time per iteration: 8072 [mu s]
	Time per residual norm calculation: 2458.000000 [mu s]
	Time per iteration and DOF: 8.072000 [ns]
	Retrieve results bandwidth 2.762000 [GByte/s]
[OGL LOG][Proc: 0]p: solve_multi_gpu: 6225.2 [ms]
BJcudaGKOCG:  Solving for p, Initial residual = 0.633172, Final residual = 5.21965e-05, No Iterations 769
[INFO] SolveP: 6231.77 [ms]
time step continuity errors : sum local = 1.19772e-08, global = -4.97235e-21, cumulative = -8.88807e-21
[INFO] ContinuityError: 3.014 [ms]
[INFO] CorrectBoundary: 0.792 [ms]
[INFO] PISOStep: 6258.39 [ms]
[INFO] MatrixAssemblyPI: 13.213 [ms]
[INFO] AdjustPhi: 1.45 [ms]
[INFO] ConstrainPressure: 0.003 [ms]
[INFO] MatrixAssemblyPII: 3.604 [ms]
[OGL LOG][Proc: 0]: global_index_init: 0.015 [ms]
[OGL LOG][Proc: 0]p_local_coeffs: call_update: 0 [ms]
[OGL LOG][Proc: 0]p_non_local_coeffs: call_update: 0 [ms]
[OGL LOG][Proc: 0]p: update_local_matrix_data: 3.707 [ms]
[OGL LOG][Proc: 0]p: update_non_local_matrix_data: 0.045 [ms]
[OGL LOG][Proc: 0]p: regenerate_distributed_matrix: 13.182 [ms]
[OGL LOG][Proc: 0]p_matrix: call_update: 14.32 [ms]
[OGL LOG][Proc: 0]p_rhs: call_update: 0.071 [ms]
[OGL LOG][Preconditioner.H:121] Generate preconditioner BJ MaxBlockSize 1
[OGL LOG][Proc: 0]p: init_precond: 0.554 [ms]
[OGL LOG][StoppingCriterion.H:237] Creating stopping criterion with minIter 461 frequency 10
[OGL LOG][Proc: 0]p: generate_solver: 0.001 [ms]
[OGL LOG][Proc: 0]p: solve: 6145.24 [ms]
[OGL LOG][Proc: 0]p: copy_x_back: 0.182 [ms]
[OGL LOG][lduLduBase.H:330] 
Statistics:
	Time per iteration: 8075 [mu s]
	Time per residual norm calculation: 2755.000000 [mu s]
	Time per iteration and DOF: 8.075000 [ns]
	Retrieve results bandwidth 2.747000 [GByte/s]
[OGL LOG][Proc: 0]p: solve_multi_gpu: 6163.57 [ms]
BJcudaGKOCG:  Solving for p, Initial residual = 0.58049, Final residual = 7.40394e-05, No Iterations 761
[INFO] SolveP: 6168.27 [ms]
time step continuity errors : sum local = 1.65381e-08, global = 5.06673e-21, cumulative = -3.82134e-21
[INFO] ContinuityError: 3.582 [ms]
[INFO] CorrectBoundary: 0.435 [ms]
[INFO] PISOStep: 6196.84 [ms]
[INFO] TimeStep: 12562.7 [ms]
ExecutionTime = 41.05 s  ClockTime = 44 s

Time = 0.002

Courant Number mean: 0.0388747 max: 0.452918
[INFO] MatrixAssemblyU: 11.073 [ms]
DILUPBiCGStab:  Solving for Ux, Initial residual = 0.0319116, Final residual = 0.000197598, No Iterations 5
DILUPBiCGStab:  Solving for Uy, Initial residual = 0.0814134, Final residual = 0.000429159, No Iterations 5
DILUPBiCGStab:  Solving for Uz, Initial residual = 0.278776, Final residual = 0.00129845, No Iterations 5
[INFO] MomentumPredictor: 93.901 [ms]
[INFO] MatrixAssemblyPI: 12.989 [ms]
[INFO] AdjustPhi: 3.524 [ms]
[INFO] ConstrainPressure: 0.002 [ms]
[INFO] MatrixAssemblyPII: 3.911 [ms]
[OGL LOG][Proc: 0]: global_index_init: 0.019 [ms]
[OGL LOG][Proc: 0]p_local_coeffs: call_update: 0 [ms]
[OGL LOG][Proc: 0]p_non_local_coeffs: call_update: 0 [ms]
[OGL LOG][Proc: 0]p: update_local_matrix_data: 3.844 [ms]
[OGL LOG][Proc: 0]p: update_non_local_matrix_data: 0.039 [ms]
[OGL LOG][Proc: 0]p: regenerate_distributed_matrix: 13.434 [ms]
[OGL LOG][Proc: 0]p_matrix: call_update: 14.811 [ms]
[OGL LOG][Proc: 0]p_rhs: call_update: 0.519 [ms]
[OGL LOG][Preconditioner.H:121] Generate preconditioner BJ MaxBlockSize 1
[OGL LOG][Proc: 0]p: init_precond: 0.369 [ms]
[OGL LOG][StoppingCriterion.H:237] Creating stopping criterion with minIter 456 frequency 12
[OGL LOG][Proc: 0]p: generate_solver: 0.001 [ms]
[OGL LOG][Proc: 0]p: solve: 6105.83 [ms]
[OGL LOG][Proc: 0]p: copy_x_back: 0.402 [ms]
[OGL LOG][lduLduBase.H:330] 
Statistics:
	Time per iteration: 8065 [mu s]
	Time per residual norm calculation: 2463.000000 [mu s]
	Time per iteration and DOF: 8.065000 [ns]
	Retrieve results bandwidth 1.243000 [GByte/s]
[OGL LOG][Proc: 0]p: solve_multi_gpu: 6124.74 [ms]
BJcudaGKOCG:  Solving for p, Initial residual = 0.413265, Final residual = 7.82603e-05, No Iterations 757
[INFO] SolveP: 6129.54 [ms]
time step continuity errors : sum local = 1.53266e-08, global = -5.18827e-21, cumulative = -9.00961e-21
[INFO] ContinuityError: 2.337 [ms]
[INFO] CorrectBoundary: 0.097 [ms]
[INFO] PISOStep: 6161.29 [ms]
[INFO] MatrixAssemblyPI: 13.063 [ms]
[INFO] AdjustPhi: 0.682 [ms]
[INFO] ConstrainPressure: 0.002 [ms]
[INFO] MatrixAssemblyPII: 4.492 [ms]
[OGL LOG][Proc: 0]: global_index_init: 0.012 [ms]
[OGL LOG][Proc: 0]p_local_coeffs: call_update: 0 [ms]
[OGL LOG][Proc: 0]p_non_local_coeffs: call_update: 0 [ms]
[OGL LOG][Proc: 0]p: update_local_matrix_data: 5.015 [ms]
[OGL LOG][Proc: 0]p: update_non_local_matrix_data: 0.052 [ms]
[OGL LOG][Proc: 0]p: regenerate_distributed_matrix: 13.449 [ms]
[OGL LOG][Proc: 0]p_matrix: call_update: 14.323 [ms]
[OGL LOG][Proc: 0]p_rhs: call_update: 0.624 [ms]
[OGL LOG][Preconditioner.H:121] Generate preconditioner BJ MaxBlockSize 1
[OGL LOG][Proc: 0]p: init_precond: 0.551 [ms]
[OGL LOG][StoppingCriterion.H:237] Creating stopping criterion with minIter 454 frequency 10
[OGL LOG][Proc: 0]p: generate_solver: 0.001 [ms]
[OGL LOG][Proc: 0]p: solve: 6147.24 [ms]
[OGL LOG][Proc: 0]p: copy_x_back: 0.405 [ms]
[OGL LOG][lduLduBase.H:330] 
Statistics:
	Time per iteration: 8077 [mu s]
	Time per residual norm calculation: 2461.000000 [mu s]
	Time per iteration and DOF: 8.077000 [ns]
	Retrieve results bandwidth 1.234000 [GByte/s]
[OGL LOG][Proc: 0]p: solve_multi_gpu: 6164.61 [ms]
BJcudaGKOCG:  Solving for p, Initial residual = 0.351366, Final residual = 4.56394e-05, No Iterations 761
[INFO] SolveP: 6170.65 [ms]
time step continuity errors : sum local = 9.02664e-09, global = 3.82177e-21, cumulative = -5.18784e-21
[INFO] ContinuityError: 1.533 [ms]
[INFO] CorrectBoundary: 0.09 [ms]
[INFO] PISOStep: 6199.68 [ms]
[INFO] TimeStep: 12469.9 [ms]
ExecutionTime = 53.51 s  ClockTime = 56 s

Time = 0.0025

Courant Number mean: 0.0439264 max: 0.459604
[INFO] MatrixAssemblyU: 13.679 [ms]
DILUPBiCGStab:  Solving for Ux, Initial residual = 0.0235188, Final residual = 0.000127017, No Iterations 5
DILUPBiCGStab:  Solving for Uy, Initial residual = 0.0515594, Final residual = 0.000259188, No Iterations 5
DILUPBiCGStab:  Solving for Uz, Initial residual = 0.100035, Final residual = 0.000510329, No Iterations 5
[INFO] MomentumPredictor: 91.714 [ms]
[INFO] MatrixAssemblyPI: 12.615 [ms]
[INFO] AdjustPhi: 0.576 [ms]
[INFO] ConstrainPressure: 0.002 [ms]
[INFO] MatrixAssemblyPII: 3.974 [ms]
[OGL LOG][Proc: 0]: global_index_init: 0.012 [ms]
[OGL LOG][Proc: 0]p_local_coeffs: call_update: 0 [ms]
[OGL LOG][Proc: 0]p_non_local_coeffs: call_update: 0 [ms]
[OGL LOG][Proc: 0]p: update_local_matrix_data: 5.381 [ms]
[OGL LOG][Proc: 0]p: update_non_local_matrix_data: 0.055 [ms]
[OGL LOG][Proc: 0]p: regenerate_distributed_matrix: 15.402 [ms]
[OGL LOG][Proc: 0]p_matrix: call_update: 15.83 [ms]
[OGL LOG][Proc: 0]p_rhs: call_update: 0.128 [ms]
[OGL LOG][Preconditioner.H:121] Generate preconditioner BJ MaxBlockSize 1
[OGL LOG][Proc: 0]p: init_precond: 0.711 [ms]
[OGL LOG][StoppingCriterion.H:237] Creating stopping criterion with minIter 456 frequency 10
[OGL LOG][Proc: 0]p: generate_solver: 0.001 [ms]
[OGL LOG][Proc: 0]p: solve: 5824.77 [ms]
[OGL LOG][Proc: 0]p: copy_x_back: 0.191 [ms]
[OGL LOG][lduLduBase.H:330] 
Statistics:
	Time per iteration: 8078 [mu s]
	Time per residual norm calculation: 2165.000000 [mu s]
	Time per iteration and DOF: 8.078000 [ns]
	Retrieve results bandwidth 2.617000 [GByte/s]
[OGL LOG][Proc: 0]p: solve_multi_gpu: 5842.37 [ms]
BJcudaGKOCG:  Solving for p, Initial residual = 0.315386, Final residual = 8.24085e-05, No Iterations 721
[INFO] SolveP: 5849.49 [ms]
time step continuity errors : sum local = 1.33193e-08, global = -1.21142e-21, cumulative = -6.39926e-21
[INFO] ContinuityError: 2.787 [ms]
[INFO] CorrectBoundary: 0.414 [ms]
[INFO] PISOStep: 5875.54 [ms]
[INFO] MatrixAssemblyPI: 12.736 [ms]
[INFO] AdjustPhi: 1.08 [ms]
[INFO] ConstrainPressure: 0.001 [ms]
[INFO] MatrixAssemblyPII: 3.681 [ms]
[OGL LOG][Proc: 0]: global_index_init: 0.017 [ms]
[OGL LOG][Proc: 0]p_local_coeffs: call_update: 0 [ms]
[OGL LOG][Proc: 0]p_non_local_coeffs: call_update: 0 [ms]
[OGL LOG][Proc: 0]p: update_local_matrix_data: 3.878 [ms]
[OGL LOG][Proc: 0]p: update_non_local_matrix_data: 0.036 [ms]
[OGL LOG][Proc: 0]p: regenerate_distributed_matrix: 11.444 [ms]
[OGL LOG][Proc: 0]p_matrix: call_update: 12.396 [ms]
[OGL LOG][Proc: 0]p_rhs: call_update: 0.599 [ms]
[OGL LOG][Preconditioner.H:121] Generate preconditioner BJ MaxBlockSize 1
[OGL LOG][Proc: 0]p: init_precond: 0.715 [ms]
[OGL LOG][StoppingCriterion.H:237] Creating stopping criterion with minIter 432 frequency 9
[OGL LOG][Proc: 0]p: generate_solver: 0.001 [ms]
[OGL LOG][Proc: 0]p: solve: 5759.35 [ms]
[OGL LOG][Proc: 0]p: copy_x_back: 0.396 [ms]
[OGL LOG][lduLduBase.H:330] 
Statistics:
	Time per iteration: 8088 [mu s]
	Time per residual norm calculation: 2467.000000 [mu s]
	Time per iteration and DOF: 8.088000 [ns]
	Retrieve results bandwidth 1.262000 [GByte/s]
[OGL LOG][Proc: 0]p: solve_multi_gpu: 5775.86 [ms]
BJcudaGKOCG:  Solving for p, Initial residual = 0.269814, Final residual = 9.41468e-05, No Iterations 712
[INFO] SolveP: 5780.64 [ms]
time step continuity errors : sum local = 1.51033e-08, global = 8.77238e-22, cumulative = -5.52202e-21
[INFO] ContinuityError: 1.684 [ms]
[INFO] CorrectBoundary: 0.083 [ms]
[INFO] PISOStep: 5809.82 [ms]
[INFO] TimeStep: 11795.5 [ms]
ExecutionTime = 65.28 s  ClockTime = 68 s

Time = 0.003

Courant Number mean: 0.0479663 max: 0.463843
[INFO] MatrixAssemblyU: 13.847 [ms]
DILUPBiCGStab:  Solving for Ux, Initial residual = 0.0178993, Final residual = 9.39215e-05, No Iterations 5
DILUPBiCGStab:  Solving for Uy, Initial residual = 0.0401558, Final residual = 0.000138743, No Iterations 5
DILUPBiCGStab:  Solving for Uz, Initial residual = 0.086732, Final residual = 0.000417612, No Iterations 5
[INFO] MomentumPredictor: 91.482 [ms]
[INFO] MatrixAssemblyPI: 12.742 [ms]
[INFO] AdjustPhi: 0.536 [ms]
[INFO] ConstrainPressure: 0.002 [ms]
[INFO] MatrixAssemblyPII: 3.875 [ms]
[OGL LOG][Proc: 0]: global_index_init: 0.013 [ms]
[OGL LOG][Proc: 0]p_local_coeffs: call_update: 0 [ms]
[OGL LOG][Proc: 0]p_non_local_coeffs: call_update: 0 [ms]
[OGL LOG][Proc: 0]p: update_local_matrix_data: 5.125 [ms]
[OGL LOG][Proc: 0]p: update_non_local_matrix_data: 0.054 [ms]
[OGL LOG][Proc: 0]p: regenerate_distributed_matrix: 12.99 [ms]
[OGL LOG][Proc: 0]p_matrix: call_update: 14.199 [ms]
[OGL LOG][Proc: 0]p_rhs: call_update: 0.164 [ms]
[OGL LOG][Preconditioner.H:121] Generate preconditioner BJ MaxBlockSize 1
[OGL LOG][Proc: 0]p: init_precond: 0.716 [ms]
[OGL LOG][StoppingCriterion.H:237] Creating stopping criterion with minIter 427 frequency 9
[OGL LOG][Proc: 0]p: generate_solver: 0.001 [ms]
[OGL LOG][Proc: 0]p: solve: 5758.52 [ms]
[OGL LOG][Proc: 0]p: copy_x_back: 0.172 [ms]
[OGL LOG][lduLduBase.H:330] 
Statistics:
	Time per iteration: 8087 [mu s]
	Time per residual norm calculation: 2751.000000 [mu s]
	Time per iteration and DOF: 8.087000 [ns]
	Retrieve results bandwidth 2.906000 [GByte/s]
[OGL LOG][Proc: 0]p: solve_multi_gpu: 5775.27 [ms]
BJcudaGKOCG:  Solving for p, Initial residual = 0.197215, Final residual = 9.6936e-05, No Iterations 712
[INFO] SolveP: 5781.43 [ms]
time step continuity errors : sum local = 1.51221e-08, global = -8.55957e-21, cumulative = -1.40816e-20
[INFO] ContinuityError: 2.586 [ms]
[INFO] CorrectBoundary: 0.431 [ms]
[INFO] PISOStep: 5807.24 [ms]
[INFO] MatrixAssemblyPI: 12.501 [ms]
[INFO] AdjustPhi: 1.269 [ms]
[INFO] ConstrainPressure: 0.002 [ms]
[INFO] MatrixAssemblyPII: 4.269 [ms]
[OGL LOG][Proc: 0]: global_index_init: 0.008 [ms]
[OGL LOG][Proc: 0]p_local_coeffs: call_update: 0 [ms]
[OGL LOG][Proc: 0]p_non_local_coeffs: call_update: 0 [ms]
[OGL LOG][Proc: 0]p: update_local_matrix_data: 4.79 [ms]
[OGL LOG][Proc: 0]p: update_non_local_matrix_data: 0.036 [ms]
[OGL LOG][Proc: 0]p: regenerate_distributed_matrix: 11.738 [ms]
[OGL LOG][Proc: 0]p_matrix: call_update: 12.803 [ms]
[OGL LOG][Proc: 0]p_rhs: call_update: 0.391 [ms]
[OGL LOG][Preconditioner.H:121] Generate preconditioner BJ MaxBlockSize 1
[OGL LOG][Proc: 0]p: init_precond: 0.548 [ms]
[OGL LOG][StoppingCriterion.H:237] Creating stopping criterion with minIter 427 frequency 11
[OGL LOG][Proc: 0]p: generate_solver: 0.001 [ms]
[OGL LOG][Proc: 0]p: solve: 5875.66 [ms]
[OGL LOG][Proc: 0]p: copy_x_back: 0.405 [ms]
[OGL LOG][lduLduBase.H:330] 
Statistics:
	Time per iteration: 8082 [mu s]
	Time per residual norm calculation: 2166.000000 [mu s]
	Time per iteration and DOF: 8.082000 [ns]
	Retrieve results bandwidth 1.234000 [GByte/s]
[OGL LOG][Proc: 0]p: solve_multi_gpu: 5891.68 [ms]
BJcudaGKOCG:  Solving for p, Initial residual = 0.163972, Final residual = 6.4737e-05, No Iterations 727
[INFO] SolveP: 5897.39 [ms]
time step continuity errors : sum local = 1.01094e-08, global = -4.2516e-21, cumulative = -1.83332e-20
[INFO] ContinuityError: 3.362 [ms]
[INFO] CorrectBoundary: 0.091 [ms]
[INFO] PISOStep: 5926.9 [ms]
[INFO] TimeStep: 11843.5 [ms]
ExecutionTime = 77.1 s  ClockTime = 80 s

Time = 0.0035

Courant Number mean: 0.0513755 max: 0.466723
[INFO] MatrixAssemblyU: 14.335 [ms]
DILUPBiCGStab:  Solving for Ux, Initial residual = 0.0146426, Final residual = 6.72252e-05, No Iterations 5
DILUPBiCGStab:  Solving for Uy, Initial residual = 0.0317845, Final residual = 0.000119678, No Iterations 5
DILUPBiCGStab:  Solving for Uz, Initial residual = 0.0573468, Final residual = 0.000253197, No Iterations 5
[INFO] MomentumPredictor: 90.923 [ms]
[INFO] MatrixAssemblyPI: 12.861 [ms]
[INFO] AdjustPhi: 0.512 [ms]
[INFO] ConstrainPressure: 0.002 [ms]
[INFO] MatrixAssemblyPII: 3.882 [ms]
[OGL LOG][Proc: 0]: global_index_init: 0.013 [ms]
[OGL LOG][Proc: 0]p_local_coeffs: call_update: 0 [ms]
[OGL LOG][Proc: 0]p_non_local_coeffs: call_update: 0 [ms]
[OGL LOG][Proc: 0]p: update_local_matrix_data: 4.548 [ms]
[OGL LOG][Proc: 0]p: update_non_local_matrix_data: 0.053 [ms]
[OGL LOG][Proc: 0]p: regenerate_distributed_matrix: 13.301 [ms]
[OGL LOG][Proc: 0]p_matrix: call_update: 13.732 [ms]
[OGL LOG][Proc: 0]p_rhs: call_update: 1.261 [ms]
[OGL LOG][Preconditioner.H:121] Generate preconditioner BJ MaxBlockSize 1
[OGL LOG][Proc: 0]p: init_precond: 0.715 [ms]
[OGL LOG][StoppingCriterion.H:237] Creating stopping criterion with minIter 436 frequency 9
[OGL LOG][Proc: 0]p: generate_solver: 0.001 [ms]
[OGL LOG][Proc: 0]p: solve: 3614.56 [ms]
[OGL LOG][Proc: 0]p: copy_x_back: 0.18 [ms]
[OGL LOG][lduLduBase.H:330] 
Statistics:
	Time per iteration: 8014 [mu s]
	Time per residual norm calculation: 2169.000000 [mu s]
	Time per iteration and DOF: 8.014000 [ns]
	Retrieve results bandwidth 2.777000 [GByte/s]
[OGL LOG][Proc: 0]p: solve_multi_gpu: 3631.95 [ms]
BJcudaGKOCG:  Solving for p, Initial residual = 0.139431, Final residual = 9.75079e-05, No Iterations 451
[INFO] SolveP: 3638 [ms]
time step continuity errors : sum local = 1.57458e-08, global = -1.10615e-21, cumulative = -1.94393e-20
[INFO] ContinuityError: 2.438 [ms]
[INFO] CorrectBoundary: 0.448 [ms]
[INFO] PISOStep: 3663.82 [ms]
[INFO] MatrixAssemblyPI: 12.682 [ms]
[INFO] AdjustPhi: 0.759 [ms]
[INFO] ConstrainPressure: 0.002 [ms]
[INFO] MatrixAssemblyPII: 3.871 [ms]
[OGL LOG][Proc: 0]: global_index_init: 0.009 [ms]
[OGL LOG][Proc: 0]p_local_coeffs: call_update: 0 [ms]
[OGL LOG][Proc: 0]p_non_local_coeffs: call_update: 0 [ms]
[OGL LOG][Proc: 0]p: update_local_matrix_data: 4.805 [ms]
[OGL LOG][Proc: 0]p: update_non_local_matrix_data: 0.039 [ms]
[OGL LOG][Proc: 0]p: regenerate_distributed_matrix: 12.017 [ms]
[OGL LOG][Proc: 0]p_matrix: call_update: 13.184 [ms]
[OGL LOG][Proc: 0]p_rhs: call_update: 0.195 [ms]
[OGL LOG][Preconditioner.H:121] Generate preconditioner BJ MaxBlockSize 1
[OGL LOG][Proc: 0]p: init_precond: 0.39 [ms]
[OGL LOG][StoppingCriterion.H:237] Creating stopping criterion with minIter 270 frequency 7
[OGL LOG][Proc: 0]p: generate_solver: 0.001 [ms]
[OGL LOG][Proc: 0]p: solve: 2668.16 [ms]
[OGL LOG][Proc: 0]p: copy_x_back: 0.186 [ms]
[OGL LOG][lduLduBase.H:330] 
Statistics:
	Time per iteration: 8085 [mu s]
	Time per residual norm calculation: 2461.000000 [mu s]
	Time per iteration and DOF: 8.085000 [ns]
	Retrieve results bandwidth 2.688000 [GByte/s]
[OGL LOG][Proc: 0]p: solve_multi_gpu: 2683.83 [ms]
BJcudaGKOCG:  Solving for p, Initial residual = 0.116547, Final residual = 9.17989e-05, No Iterations 330
[INFO] SolveP: 2689.37 [ms]
time step continuity errors : sum local = 1.39765e-08, global = 2.5319e-21, cumulative = -1.69074e-20
[INFO] ContinuityError: 4.975 [ms]
[INFO] CorrectBoundary: 0.066 [ms]
[INFO] PISOStep: 2717.56 [ms]
[INFO] TimeStep: 6488.55 [ms]
ExecutionTime = 83.59 s  ClockTime = 86 s

Time = 0.004

Courant Number mean: 0.0543148 max: 0.468931
[INFO] MatrixAssemblyU: 13.915 [ms]
DILUPBiCGStab:  Solving for Ux, Initial residual = 0.0122829, Final residual = 5.12859e-05, No Iterations 5
DILUPBiCGStab:  Solving for Uy, Initial residual = 0.0265446, Final residual = 7.80275e-05, No Iterations 5
DILUPBiCGStab:  Solving for Uz, Initial residual = 0.0518681, Final residual = 0.000176874, No Iterations 5
[INFO] MomentumPredictor: 94.346 [ms]
[INFO] MatrixAssemblyPI: 12.577 [ms]
[INFO] AdjustPhi: 0.984 [ms]
[INFO] ConstrainPressure: 0.002 [ms]
[INFO] MatrixAssemblyPII: 3.962 [ms]
[OGL LOG][Proc: 0]: global_index_init: 0.019 [ms]
[OGL LOG][Proc: 0]p_local_coeffs: call_update: 0 [ms]
[OGL LOG][Proc: 0]p_non_local_coeffs: call_update: 0 [ms]
[OGL LOG][Proc: 0]p: update_local_matrix_data: 4.816 [ms]
[OGL LOG][Proc: 0]p: update_non_local_matrix_data: 0.036 [ms]
[OGL LOG][Proc: 0]p: regenerate_distributed_matrix: 12.978 [ms]
[OGL LOG][Proc: 0]p_matrix: call_update: 14.254 [ms]
[OGL LOG][Proc: 0]p_rhs: call_update: 1.153 [ms]
[OGL LOG][Preconditioner.H:121] Generate preconditioner BJ MaxBlockSize 1
[OGL LOG][Proc: 0]p: init_precond: 0.393 [ms]
[OGL LOG][StoppingCriterion.H:237] Creating stopping criterion with minIter 198 frequency 6
[OGL LOG][Proc: 0]p: generate_solver: 0.001 [ms]
[OGL LOG][Proc: 0]p: solve: 2658.95 [ms]
[OGL LOG][Proc: 0]p: copy_x_back: 0.212 [ms]
[OGL LOG][lduLduBase.H:330] 
Statistics:
	Time per iteration: 8181 [mu s]
	Time per residual norm calculation: 2459.000000 [mu s]
	Time per iteration and DOF: 8.181000 [ns]
	Retrieve results bandwidth 2.358000 [GByte/s]
[OGL LOG][Proc: 0]p: solve_multi_gpu: 2676.32 [ms]
BJcudaGKOCG:  Solving for p, Initial residual = 0.0907562, Final residual = 8.59203e-05, No Iterations 325
[INFO] SolveP: 2681.9 [ms]
time step continuity errors : sum local = 1.25092e-08, global = 5.95844e-21, cumulative = -1.0949e-20
[INFO] ContinuityError: 3.012 [ms]
[INFO] CorrectBoundary: 0.615 [ms]
[INFO] PISOStep: 2708.3 [ms]
[INFO] MatrixAssemblyPI: 12.182 [ms]
[INFO] AdjustPhi: 1.814 [ms]
[INFO] ConstrainPressure: 0.002 [ms]
[INFO] MatrixAssemblyPII: 3.931 [ms]
[OGL LOG][Proc: 0]: global_index_init: 0.013 [ms]
[OGL LOG][Proc: 0]p_local_coeffs: call_update: 0 [ms]
[OGL LOG][Proc: 0]p_non_local_coeffs: call_update: 0 [ms]
[OGL LOG][Proc: 0]p: update_local_matrix_data: 4.502 [ms]
[OGL LOG][Proc: 0]p: update_non_local_matrix_data: 0.036 [ms]
[OGL LOG][Proc: 0]p: regenerate_distributed_matrix: 11.253 [ms]
[OGL LOG][Proc: 0]p_matrix: call_update: 12.492 [ms]
[OGL LOG][Proc: 0]p_rhs: call_update: 0.248 [ms]
[OGL LOG][Preconditioner.H:121] Generate preconditioner BJ MaxBlockSize 1
[OGL LOG][Proc: 0]p: init_precond: 0.714 [ms]
[OGL LOG][StoppingCriterion.H:237] Creating stopping criterion with minIter 195 frequency 6
[OGL LOG][Proc: 0]p: generate_solver: 0.001 [ms]
[OGL LOG][Proc: 0]p: solve: 2609.53 [ms]
[OGL LOG][Proc: 0]p: copy_x_back: 0.195 [ms]
[OGL LOG][lduLduBase.H:330] 
Statistics:
	Time per iteration: 8180 [mu s]
	Time per residual norm calculation: 2164.000000 [mu s]
	Time per iteration and DOF: 8.180000 [ns]
	Retrieve results bandwidth 2.564000 [GByte/s]
[OGL LOG][Proc: 0]p: solve_multi_gpu: 2624.28 [ms]
BJcudaGKOCG:  Solving for p, Initial residual = 0.075056, Final residual = 9.37321e-05, No Iterations 319
[INFO] SolveP: 2629.74 [ms]
time step continuity errors : sum local = 1.36352e-08, global = 6.3879e-22, cumulative = -1.03102e-20
[INFO] ContinuityError: 3.816 [ms]
[INFO] CorrectBoundary: 0.061 [ms]
[INFO] PISOStep: 2657.22 [ms]
[INFO] TimeStep: 5475.73 [ms]
ExecutionTime = 89.06 s  ClockTime = 92 s

Time = 0.0045

Courant Number mean: 0.0568923 max: 0.470635
[INFO] MatrixAssemblyU: 13.228 [ms]
DILUPBiCGStab:  Solving for Ux, Initial residual = 0.0105347, Final residual = 3.97965e-05, No Iterations 5
DILUPBiCGStab:  Solving for Uy, Initial residual = 0.0226906, Final residual = 6.80727e-05, No Iterations 5
DILUPBiCGStab:  Solving for Uz, Initial residual = 0.0434076, Final residual = 0.00012917, No Iterations 5
[INFO] MomentumPredictor: 91.131 [ms]
[INFO] MatrixAssemblyPI: 12.647 [ms]
[INFO] AdjustPhi: 0.573 [ms]
[INFO] ConstrainPressure: 0.002 [ms]
[INFO] MatrixAssemblyPII: 3.98 [ms]
[OGL LOG][Proc: 0]: global_index_init: 0.022 [ms]
[OGL LOG][Proc: 0]p_local_coeffs: call_update: 0 [ms]
[OGL LOG][Proc: 0]p_non_local_coeffs: call_update: 0 [ms]
[OGL LOG][Proc: 0]p: update_local_matrix_data: 4.753 [ms]
[OGL LOG][Proc: 0]p: update_non_local_matrix_data: 0.037 [ms]
[OGL LOG][Proc: 0]p: regenerate_distributed_matrix: 12.874 [ms]
[OGL LOG][Proc: 0]p_matrix: call_update: 14.286 [ms]
[OGL LOG][Proc: 0]p_rhs: call_update: 0.139 [ms]
[OGL LOG][Preconditioner.H:121] Generate preconditioner BJ MaxBlockSize 1
[OGL LOG][Proc: 0]p: init_precond: 0.388 [ms]
[OGL LOG][StoppingCriterion.H:237] Creating stopping criterion with minIter 191 frequency 6
[OGL LOG][Proc: 0]p: generate_solver: 0.001 [ms]
[OGL LOG][Proc: 0]p: solve: 2662.2 [ms]
[OGL LOG][Proc: 0]p: copy_x_back: 0.182 [ms]
[OGL LOG][lduLduBase.H:330] 
Statistics:
	Time per iteration: 8191 [mu s]
	Time per residual norm calculation: 2172.000000 [mu s]
	Time per iteration and DOF: 8.191000 [ns]
	Retrieve results bandwidth 2.747000 [GByte/s]
[OGL LOG][Proc: 0]p: solve_multi_gpu: 2678.41 [ms]
BJcudaGKOCG:  Solving for p, Initial residual = 0.0666768, Final residual = 9.55162e-05, No Iterations 325
[INFO] SolveP: 2684.57 [ms]
time step continuity errors : sum local = 1.53541e-08, global = -2.92863e-21, cumulative = -1.32388e-20
[INFO] ContinuityError: 3.021 [ms]
[INFO] CorrectBoundary: 0.452 [ms]
[INFO] PISOStep: 2711.24 [ms]
[INFO] MatrixAssemblyPI: 13.164 [ms]
[INFO] AdjustPhi: 2.023 [ms]
[INFO] ConstrainPressure: 0.002 [ms]
[INFO] MatrixAssemblyPII: 3.819 [ms]
[OGL LOG][Proc: 0]: global_index_init: 0.008 [ms]
[OGL LOG][Proc: 0]p_local_coeffs: call_update: 0 [ms]
[OGL LOG][Proc: 0]p_non_local_coeffs: call_update: 0 [ms]
[OGL LOG][Proc: 0]p: update_local_matrix_data: 4.079 [ms]
[OGL LOG][Proc: 0]p: update_non_local_matrix_data: 0.035 [ms]
[OGL LOG][Proc: 0]p: regenerate_distributed_matrix: 12.566 [ms]
[OGL LOG][Proc: 0]p_matrix: call_update: 13.396 [ms]
[OGL LOG][Proc: 0]p_rhs: call_update: 0.714 [ms]
[OGL LOG][Preconditioner.H:121] Generate preconditioner BJ MaxBlockSize 1
[OGL LOG][Proc: 0]p: init_precond: 0.55 [ms]
[OGL LOG][StoppingCriterion.H:237] Creating stopping criterion with minIter 195 frequency 6
[OGL LOG][Proc: 0]p: generate_solver: 0.001 [ms]
[OGL LOG][Proc: 0]p: solve: 2608.75 [ms]
[OGL LOG][Proc: 0]p: copy_x_back: 0.384 [ms]
[OGL LOG][lduLduBase.H:330] 
Statistics:
	Time per iteration: 8177 [mu s]
	Time per residual norm calculation: 2168.000000 [mu s]
	Time per iteration and DOF: 8.177000 [ns]
	Retrieve results bandwidth 1.302000 [GByte/s]
[OGL LOG][Proc: 0]p: solve_multi_gpu: 2626.34 [ms]
BJcudaGKOCG:  Solving for p, Initial residual = 0.0556095, Final residual = 8.27086e-05, No Iterations 319
[INFO] SolveP: 2631.43 [ms]
time step continuity errors : sum local = 1.2417e-08, global = -3.54757e-21, cumulative = -1.67864e-20
[INFO] ContinuityError: 2.378 [ms]
[INFO] CorrectBoundary: 0.749 [ms]
[INFO] PISOStep: 2661.24 [ms]
[INFO] TimeStep: 5479.53 [ms]
ExecutionTime = 94.53 s  ClockTime = 97 s

Time = 0.005

Courant Number mean: 0.059188 max: 0.47203
[INFO] MatrixAssemblyU: 14.747 [ms]
DILUPBiCGStab:  Solving for Ux, Initial residual = 0.00921632, Final residual = 3.3218e-05, No Iterations 5
DILUPBiCGStab:  Solving for Uy, Initial residual = 0.0197566, Final residual = 5.13602e-05, No Iterations 5
DILUPBiCGStab:  Solving for Uz, Initial residual = 0.0386029, Final residual = 0.000104595, No Iterations 5
[INFO] MomentumPredictor: 90.436 [ms]
[INFO] MatrixAssemblyPI: 12.745 [ms]
[INFO] AdjustPhi: 0.495 [ms]
[INFO] ConstrainPressure: 0.002 [ms]
[INFO] MatrixAssemblyPII: 3.955 [ms]
[OGL LOG][Proc: 0]: global_index_init: 0.011 [ms]
[OGL LOG][Proc: 0]p_local_coeffs: call_update: 0 [ms]
[OGL LOG][Proc: 0]p_non_local_coeffs: call_update: 0 [ms]
[OGL LOG][Proc: 0]p: update_local_matrix_data: 5.05 [ms]
[OGL LOG][Proc: 0]p: update_non_local_matrix_data: 0.052 [ms]
[OGL LOG][Proc: 0]p: regenerate_distributed_matrix: 12.887 [ms]
[OGL LOG][Proc: 0]p_matrix: call_update: 14.175 [ms]
[OGL LOG][Proc: 0]p_rhs: call_update: 0.113 [ms]
[OGL LOG][Preconditioner.H:121] Generate preconditioner BJ MaxBlockSize 1
[OGL LOG][Proc: 0]p: init_precond: 0.549 [ms]
[OGL LOG][StoppingCriterion.H:237] Creating stopping criterion with minIter 191 frequency 6
[OGL LOG][Proc: 0]p: generate_solver: 0.001 [ms]
[OGL LOG][Proc: 0]p: solve: 2610.62 [ms]
[OGL LOG][Proc: 0]p: copy_x_back: 0.181 [ms]
[OGL LOG][lduLduBase.H:330] 
Statistics:
	Time per iteration: 8183 [mu s]
	Time per residual norm calculation: 2166.000000 [mu s]
	Time per iteration and DOF: 8.183000 [ns]
	Retrieve results bandwidth 2.762000 [GByte/s]
[OGL LOG][Proc: 0]p: solve_multi_gpu: 2626.5 [ms]
BJcudaGKOCG:  Solving for p, Initial residual = 0.0445769, Final residual = 9.08666e-05, No Iterations 319
[INFO] SolveP: 2632.73 [ms]
time step continuity errors : sum local = 1.35628e-08, global = 5.55245e-23, cumulative = -1.67309e-20
[INFO] ContinuityError: 3.318 [ms]
[INFO] CorrectBoundary: 0.516 [ms]
[INFO] PISOStep: 2659.26 [ms]
[INFO] MatrixAssemblyPI: 12.605 [ms]
[INFO] AdjustPhi: 2.833 [ms]
[INFO] ConstrainPressure: 0.002 [ms]
[INFO] MatrixAssemblyPII: 3.856 [ms]
[OGL LOG][Proc: 0]: global_index_init: 0.008 [ms]
[OGL LOG][Proc: 0]p_local_coeffs: call_update: 0 [ms]
[OGL LOG][Proc: 0]p_non_local_coeffs: call_update: 0 [ms]
[OGL LOG][Proc: 0]p: update_local_matrix_data: 4.197 [ms]
[OGL LOG][Proc: 0]p: update_non_local_matrix_data: 0.038 [ms]
[OGL LOG][Proc: 0]p: regenerate_distributed_matrix: 12.727 [ms]
[OGL LOG][Proc: 0]p_matrix: call_update: 13.963 [ms]
[OGL LOG][Proc: 0]p_rhs: call_update: 0.176 [ms]
[OGL LOG][Preconditioner.H:121] Generate preconditioner BJ MaxBlockSize 1
[OGL LOG][Proc: 0]p: init_precond: 0.714 [ms]
[OGL LOG][StoppingCriterion.H:237] Creating stopping criterion with minIter 191 frequency 6
[OGL LOG][Proc: 0]p: generate_solver: 0.001 [ms]
[OGL LOG][Proc: 0]p: solve: 2560.98 [ms]
[OGL LOG][Proc: 0]p: copy_x_back: 0.17 [ms]
[OGL LOG][lduLduBase.H:330] 
Statistics:
	Time per iteration: 8182 [mu s]
	Time per residual norm calculation: 2738.000000 [mu s]
	Time per iteration and DOF: 8.182000 [ns]
	Retrieve results bandwidth 2.941000 [GByte/s]
[OGL LOG][Proc: 0]p: solve_multi_gpu: 2578.23 [ms]
BJcudaGKOCG:  Solving for p, Initial residual = 0.0376276, Final residual = 9.79583e-05, No Iterations 313
[INFO] SolveP: 2583.13 [ms]
time step continuity errors : sum local = 1.39415e-08, global = -1.64345e-21, cumulative = -1.83743e-20
[INFO] ContinuityError: 4.495 [ms]
[INFO] CorrectBoundary: 0.082 [ms]
[INFO] PISOStep: 2612.98 [ms]
[INFO] TimeStep: 5379.3 [ms]
ExecutionTime = 99.91 s  ClockTime = 103 s

Time = 0.0055

Courant Number mean: 0.061248 max: 0.473178
[INFO] MatrixAssemblyU: 13.389 [ms]
DILUPBiCGStab:  Solving for Ux, Initial residual = 0.00814513, Final residual = 2.76013e-05, No Iterations 5
DILUPBiCGStab:  Solving for Uy, Initial residual = 0.0174603, Final residual = 4.5769e-05, No Iterations 5
DILUPBiCGStab:  Solving for Uz, Initial residual = 0.0347127, Final residual = 8.87362e-05, No Iterations 5
[INFO] MomentumPredictor: 91.43 [ms]
[INFO] MatrixAssemblyPI: 12.66 [ms]
[INFO] AdjustPhi: 0.64 [ms]
[INFO] ConstrainPressure: 0.002 [ms]
[INFO] MatrixAssemblyPII: 4.012 [ms]
[OGL LOG][Proc: 0]: global_index_init: 0.025 [ms]
[OGL LOG][Proc: 0]p_local_coeffs: call_update: 0 [ms]
[OGL LOG][Proc: 0]p_non_local_coeffs: call_update: 0 [ms]
[OGL LOG][Proc: 0]p: update_local_matrix_data: 4.117 [ms]
[OGL LOG][Proc: 0]p: update_non_local_matrix_data: 0.036 [ms]
[OGL LOG][Proc: 0]p: regenerate_distributed_matrix: 13.766 [ms]
[OGL LOG][Proc: 0]p_matrix: call_update: 14.142 [ms]
[OGL LOG][Proc: 0]p_rhs: call_update: 0.532 [ms]
[OGL LOG][Preconditioner.H:121] Generate preconditioner BJ MaxBlockSize 1
[OGL LOG][Proc: 0]p: init_precond: 0.548 [ms]
[OGL LOG][StoppingCriterion.H:237] Creating stopping criterion with minIter 187 frequency 7
[OGL LOG][Proc: 0]p: generate_solver: 0.001 [ms]
[OGL LOG][Proc: 0]p: solve: 2754.07 [ms]
[OGL LOG][Proc: 0]p: copy_x_back: 0.17 [ms]
[OGL LOG][lduLduBase.H:330] 
Statistics:
	Time per iteration: 8172 [mu s]
	Time per residual norm calculation: 2752.000000 [mu s]
	Time per iteration and DOF: 8.172000 [ns]
	Retrieve results bandwidth 2.941000 [GByte/s]
[OGL LOG][Proc: 0]p: solve_multi_gpu: 2772.16 [ms]
BJcudaGKOCG:  Solving for p, Initial residual = 0.034997, Final residual = 9.90395e-05, No Iterations 337
[INFO] SolveP: 2776.98 [ms]
time step continuity errors : sum local = 1.63697e-08, global = 3.77422e-21, cumulative = -1.46001e-20
[INFO] ContinuityError: 2.615 [ms]
[INFO] CorrectBoundary: 0.505 [ms]
[INFO] PISOStep: 2803.11 [ms]
[INFO] MatrixAssemblyPI: 12.787 [ms]
[INFO] AdjustPhi: 0.807 [ms]
[INFO] ConstrainPressure: 0.002 [ms]
[INFO] MatrixAssemblyPII: 3.87 [ms]
[OGL LOG][Proc: 0]: global_index_init: 0.024 [ms]
[OGL LOG][Proc: 0]p_local_coeffs: call_update: 0 [ms]
[OGL LOG][Proc: 0]p_non_local_coeffs: call_update: 0 [ms]
[OGL LOG][Proc: 0]p: update_local_matrix_data: 4.109 [ms]
[OGL LOG][Proc: 0]p: update_non_local_matrix_data: 0.035 [ms]
[OGL LOG][Proc: 0]p: regenerate_distributed_matrix: 12.071 [ms]
[OGL LOG][Proc: 0]p_matrix: call_update: 13.127 [ms]
[OGL LOG][Proc: 0]p_rhs: call_update: 0.193 [ms]
[OGL LOG][Preconditioner.H:121] Generate preconditioner BJ MaxBlockSize 1
[OGL LOG][Proc: 0]p: init_precond: 0.705 [ms]
[OGL LOG][StoppingCriterion.H:237] Creating stopping criterion with minIter 202 frequency 8
[OGL LOG][Proc: 0]p: generate_solver: 0.001 [ms]
[OGL LOG][Proc: 0]p: solve: 2544.71 [ms]
[OGL LOG][Proc: 0]p: copy_x_back: 0.178 [ms]
[OGL LOG][lduLduBase.H:330] 
Statistics:
	Time per iteration: 8130 [mu s]
	Time per residual norm calculation: 2165.000000 [mu s]
	Time per iteration and DOF: 8.130000 [ns]
	Retrieve results bandwidth 2.808000 [GByte/s]
[OGL LOG][Proc: 0]p: solve_multi_gpu: 2561 [ms]
BJcudaGKOCG:  Solving for p, Initial residual = 0.0297367, Final residual = 9.55439e-05, No Iterations 313
[INFO] SolveP: 2565.94 [ms]
time step continuity errors : sum local = 1.43287e-08, global = 7.09638e-21, cumulative = -7.50374e-21
[INFO] ContinuityError: 3.01 [ms]
[INFO] CorrectBoundary: 0.065 [ms]
[INFO] PISOStep: 2594.05 [ms]
[INFO] TimeStep: 5504.8 [ms]
ExecutionTime = 105.4 s  ClockTime = 108 s

Time = 0.006

Courant Number mean: 0.06312 max: 0.474157
[INFO] MatrixAssemblyU: 11.419 [ms]
DILUPBiCGStab:  Solving for Ux, Initial residual = 0.00728558, Final residual = 2.41103e-05, No Iterations 5
DILUPBiCGStab:  Solving for Uy, Initial residual = 0.0156073, Final residual = 3.93886e-05, No Iterations 5
DILUPBiCGStab:  Solving for Uz, Initial residual = 0.0313462, Final residual = 8.49973e-05, No Iterations 5
[INFO] MomentumPredictor: 93.615 [ms]
[INFO] MatrixAssemblyPI: 12.636 [ms]
[INFO] AdjustPhi: 0.477 [ms]
[INFO] ConstrainPressure: 0.002 [ms]
[INFO] MatrixAssemblyPII: 3.999 [ms]
[OGL LOG][Proc: 0]: global_index_init: 0.01 [ms]
[OGL LOG][Proc: 0]p_local_coeffs: call_update: 0 [ms]
[OGL LOG][Proc: 0]p_non_local_coeffs: call_update: 0 [ms]
[OGL LOG][Proc: 0]p: update_local_matrix_data: 5.079 [ms]
[OGL LOG][Proc: 0]p: update_non_local_matrix_data: 0.037 [ms]
[OGL LOG][Proc: 0]p: regenerate_distributed_matrix: 12.023 [ms]
[OGL LOG][Proc: 0]p_matrix: call_update: 12.846 [ms]
[OGL LOG][Proc: 0]p_rhs: call_update: 1.936 [ms]
[OGL LOG][Preconditioner.H:121] Generate preconditioner BJ MaxBlockSize 1
[OGL LOG][Proc: 0]p: init_precond: 0.39 [ms]
[OGL LOG][StoppingCriterion.H:237] Creating stopping criterion with minIter 187 frequency 6
[OGL LOG][Proc: 0]p: generate_solver: 0.001 [ms]
[OGL LOG][Proc: 0]p: solve: 2609.36 [ms]
[OGL LOG][Proc: 0]p: copy_x_back: 0.194 [ms]
[OGL LOG][lduLduBase.H:330] 
Statistics:
	Time per iteration: 8179 [mu s]
	Time per residual norm calculation: 2164.000000 [mu s]
	Time per iteration and DOF: 8.179000 [ns]
	Retrieve results bandwidth 2.577000 [GByte/s]
[OGL LOG][Proc: 0]p: solve_multi_gpu: 2625.8 [ms]
BJcudaGKOCG:  Solving for p, Initial residual = 0.025129, Final residual = 9.83699e-05, No Iterations 319
[INFO] SolveP: 2631.8 [ms]
time step continuity errors : sum local = 1.55642e-08, global = -2.16721e-22, cumulative = -7.72046e-21
[INFO] ContinuityError: 3.187 [ms]
[INFO] CorrectBoundary: 0.719 [ms]
[INFO] PISOStep: 2657.65 [ms]
[INFO] MatrixAssemblyPI: 12.672 [ms]
[INFO] AdjustPhi: 1.738 [ms]
[INFO] ConstrainPressure: 0.003 [ms]
[INFO] MatrixAssemblyPII: 3.798 [ms]
[OGL LOG][Proc: 0]: global_index_init: 0.01 [ms]
[OGL LOG][Proc: 0]p_local_coeffs: call_update: 0 [ms]
[OGL LOG][Proc: 0]p_non_local_coeffs: call_update: 0 [ms]
[OGL LOG][Proc: 0]p: update_local_matrix_data: 4.553 [ms]
[OGL LOG][Proc: 0]p: update_non_local_matrix_data: 0.038 [ms]
[OGL LOG][Proc: 0]p: regenerate_distributed_matrix: 12.878 [ms]
[OGL LOG][Proc: 0]p_matrix: call_update: 14.081 [ms]
[OGL LOG][Proc: 0]p_rhs: call_update: 0.228 [ms]
[OGL LOG][Preconditioner.H:121] Generate preconditioner BJ MaxBlockSize 1
[OGL LOG][Proc: 0]p: init_precond: 0.702 [ms]
[OGL LOG][StoppingCriterion.H:237] Creating stopping criterion with minIter 191 frequency 6
[OGL LOG][Proc: 0]p: generate_solver: 0.001 [ms]
[OGL LOG][Proc: 0]p: solve: 2560.52 [ms]
[OGL LOG][Proc: 0]p: copy_x_back: 0.169 [ms]
[OGL LOG][lduLduBase.H:330] 
Statistics:
	Time per iteration: 8180 [mu s]
	Time per residual norm calculation: 2164.000000 [mu s]
	Time per iteration and DOF: 8.180000 [ns]
	Retrieve results bandwidth 2.958000 [GByte/s]
[OGL LOG][Proc: 0]p: solve_multi_gpu: 2577.32 [ms]
BJcudaGKOCG:  Solving for p, Initial residual = 0.0219398, Final residual = 9.02866e-05, No Iterations 313
[INFO] SolveP: 2582.73 [ms]
time step continuity errors : sum local = 1.30057e-08, global = 3.8652e-21, cumulative = -3.85526e-21
[INFO] ContinuityError: 2.47 [ms]
[INFO] CorrectBoundary: 0.064 [ms]
[INFO] PISOStep: 2611.34 [ms]
[INFO] TimeStep: 5378.13 [ms]
ExecutionTime = 110.77 s  ClockTime = 114 s

Time = 0.0065

Courant Number mean: 0.0648242 max: 0.474993
[INFO] MatrixAssemblyU: 12.795 [ms]
DILUPBiCGStab:  Solving for Ux, Initial residual = 0.00656994, Final residual = 2.09507e-05, No Iterations 5
DILUPBiCGStab:  Solving for Uy, Initial residual = 0.0140611, Final residual = 3.55913e-05, No Iterations 5
DILUPBiCGStab:  Solving for Uz, Initial residual = 0.0290248, Final residual = 8.11884e-05, No Iterations 5
[INFO] MomentumPredictor: 92.192 [ms]
[INFO] MatrixAssemblyPI: 12.636 [ms]
[INFO] AdjustPhi: 0.618 [ms]
[INFO] ConstrainPressure: 0.002 [ms]
[INFO] MatrixAssemblyPII: 4.037 [ms]
[OGL LOG][Proc: 0]: global_index_init: 0.015 [ms]
[OGL LOG][Proc: 0]p_local_coeffs: call_update: 0 [ms]
[OGL LOG][Proc: 0]p_non_local_coeffs: call_update: 0 [ms]
[OGL LOG][Proc: 0]p: update_local_matrix_data: 4.807 [ms]
[OGL LOG][Proc: 0]p: update_non_local_matrix_data: 0.036 [ms]
[OGL LOG][Proc: 0]p: regenerate_distributed_matrix: 12.74 [ms]
[OGL LOG][Proc: 0]p_matrix: call_update: 13.925 [ms]
[OGL LOG][Proc: 0]p_rhs: call_update: 1.309 [ms]
[OGL LOG][Preconditioner.H:121] Generate preconditioner BJ MaxBlockSize 1
[OGL LOG][Proc: 0]p: init_precond: 0.709 [ms]
[OGL LOG][StoppingCriterion.H:237] Creating stopping criterion with minIter 187 frequency 6
[OGL LOG][Proc: 0]p: generate_solver: 0.001 [ms]
[OGL LOG][Proc: 0]p: solve: 5722.82 [ms]
[OGL LOG][Proc: 0]p: copy_x_back: 0.433 [ms]
[OGL LOG][lduLduBase.H:330] 
Statistics:
	Time per iteration: 8281 [mu s]
	Time per residual norm calculation: 2470.000000 [mu s]
	Time per iteration and DOF: 8.281000 [ns]
	Retrieve results bandwidth 1.154000 [GByte/s]
[OGL LOG][Proc: 0]p: solve_multi_gpu: 5741.13 [ms]
BJcudaGKOCG:  Solving for p, Initial residual = 0.0209436, Final residual = 8.39822e-05, No Iterations 691
[INFO] SolveP: 5747.03 [ms]
time step continuity errors : sum local = 1.17582e-08, global = -7.63055e-22, cumulative = -4.61832e-21
[INFO] ContinuityError: 1.455 [ms]
[INFO] CorrectBoundary: 0.084 [ms]
[INFO] PISOStep: 5773.33 [ms]
[INFO] MatrixAssemblyPI: 13.243 [ms]
[INFO] AdjustPhi: 0.549 [ms]
[INFO] ConstrainPressure: 0.003 [ms]
[INFO] MatrixAssemblyPII: 4.163 [ms]
[OGL LOG][Proc: 0]: global_index_init: 0.013 [ms]
[OGL LOG][Proc: 0]p_local_coeffs: call_update: 0 [ms]
[OGL LOG][Proc: 0]p_non_local_coeffs: call_update: 0 [ms]
[OGL LOG][Proc: 0]p: update_local_matrix_data: 4.85 [ms]
[OGL LOG][Proc: 0]p: update_non_local_matrix_data: 0.052 [ms]
[OGL LOG][Proc: 0]p: regenerate_distributed_matrix: 11.799 [ms]
[OGL LOG][Proc: 0]p_matrix: call_update: 12.935 [ms]
[OGL LOG][Proc: 0]p_rhs: call_update: 0.154 [ms]
[OGL LOG][Preconditioner.H:121] Generate preconditioner BJ MaxBlockSize 1
[OGL LOG][Proc: 0]p: init_precond: 0.546 [ms]
[OGL LOG][StoppingCriterion.H:237] Creating stopping criterion with minIter 414 frequency 9
[OGL LOG][Proc: 0]p: generate_solver: 0.001 [ms]
[OGL LOG][Proc: 0]p: solve: 5544.48 [ms]
[OGL LOG][Proc: 0]p: copy_x_back: 0.183 [ms]
[OGL LOG][lduLduBase.H:330] 
Statistics:
	Time per iteration: 8094 [mu s]
	Time per residual norm calculation: 2157.000000 [mu s]
	Time per iteration and DOF: 8.094000 [ns]
	Retrieve results bandwidth 2.732000 [GByte/s]
[OGL LOG][Proc: 0]p: solve_multi_gpu: 5559.45 [ms]
BJcudaGKOCG:  Solving for p, Initial residual = 0.0184708, Final residual = 8.82782e-05, No Iterations 685
[INFO] SolveP: 5565.23 [ms]
time step continuity errors : sum local = 1.23651e-08, global = 1.11404e-21, cumulative = -3.50427e-21
[INFO] ContinuityError: 2.714 [ms]
[INFO] CorrectBoundary: 0.066 [ms]
[INFO] PISOStep: 5593.72 [ms]
[INFO] TimeStep: 11475.3 [ms]
ExecutionTime = 122.23 s  ClockTime = 125 s

Time = 0.007

Courant Number mean: 0.0663921 max: 0.475725
[INFO] MatrixAssemblyU: 12.566 [ms]
DILUPBiCGStab:  Solving for Ux, Initial residual = 0.00596515, Final residual = 1.87194e-05, No Iterations 5
DILUPBiCGStab:  Solving for Uy, Initial residual = 0.0127664, Final residual = 3.18289e-05, No Iterations 5
DILUPBiCGStab:  Solving for Uz, Initial residual = 0.0258988, Final residual = 5.94564e-05, No Iterations 5
[INFO] MomentumPredictor: 91.951 [ms]
[INFO] MatrixAssemblyPI: 12.608 [ms]
[INFO] AdjustPhi: 0.563 [ms]
[INFO] ConstrainPressure: 0.002 [ms]
[INFO] MatrixAssemblyPII: 3.845 [ms]
[OGL LOG][Proc: 0]: global_index_init: 0.009 [ms]
[OGL LOG][Proc: 0]p_local_coeffs: call_update: 0 [ms]
[OGL LOG][Proc: 0]p_non_local_coeffs: call_update: 0 [ms]
[OGL LOG][Proc: 0]p: update_local_matrix_data: 4.645 [ms]
[OGL LOG][Proc: 0]p: update_non_local_matrix_data: 0.049 [ms]
[OGL LOG][Proc: 0]p: regenerate_distributed_matrix: 12.556 [ms]
[OGL LOG][Proc: 0]p_matrix: call_update: 13.277 [ms]
[OGL LOG][Proc: 0]p_rhs: call_update: 0.881 [ms]
[OGL LOG][Preconditioner.H:121] Generate preconditioner BJ MaxBlockSize 1
[OGL LOG][Proc: 0]p: init_precond: 0.545 [ms]
[OGL LOG][StoppingCriterion.H:237] Creating stopping criterion with minIter 411 frequency 9
[OGL LOG][Proc: 0]p: generate_solver: 0.001 [ms]
[OGL LOG][Proc: 0]p: solve: 5542.9 [ms]
[OGL LOG][Proc: 0]p: copy_x_back: 0.19 [ms]
[OGL LOG][lduLduBase.H:330] 
Statistics:
	Time per iteration: 8091 [mu s]
	Time per residual norm calculation: 2163.000000 [mu s]
	Time per iteration and DOF: 8.091000 [ns]
	Retrieve results bandwidth 2.631000 [GByte/s]
[OGL LOG][Proc: 0]p: solve_multi_gpu: 5558.72 [ms]
BJcudaGKOCG:  Solving for p, Initial residual = 0.0163317, Final residual = 8.67e-05, No Iterations 685
[INFO] SolveP: 5564.5 [ms]
time step continuity errors : sum local = 1.21296e-08, global = -8.42113e-21, cumulative = -1.19254e-20
[INFO] ContinuityError: 3.39 [ms]
[INFO] CorrectBoundary: 0.534 [ms]
[INFO] PISOStep: 5591.13 [ms]
[INFO] MatrixAssemblyPI: 12.864 [ms]
[INFO] AdjustPhi: 1.132 [ms]
[INFO] ConstrainPressure: 0.002 [ms]
[INFO] MatrixAssemblyPII: 3.809 [ms]
[OGL LOG][Proc: 0]: global_index_init: 0.009 [ms]
[OGL LOG][Proc: 0]p_local_coeffs: call_update: 0 [ms]
[OGL LOG][Proc: 0]p_non_local_coeffs: call_update: 0 [ms]
[OGL LOG][Proc: 0]p: update_local_matrix_data: 4.794 [ms]
[OGL LOG][Proc: 0]p: update_non_local_matrix_data: 0.036 [ms]
[OGL LOG][Proc: 0]p: regenerate_distributed_matrix: 11.335 [ms]
[OGL LOG][Proc: 0]p_matrix: call_update: 11.828 [ms]
[OGL LOG][Proc: 0]p_rhs: call_update: 1.556 [ms]
[OGL LOG][Preconditioner.H:121] Generate preconditioner BJ MaxBlockSize 1
[OGL LOG][Proc: 0]p: init_precond: 0.706 [ms]
[OGL LOG][StoppingCriterion.H:237] Creating stopping criterion with minIter 411 frequency 9
[OGL LOG][Proc: 0]p: generate_solver: 0.001 [ms]
[OGL LOG][Proc: 0]p: solve: 3321.05 [ms]
[OGL LOG][Proc: 0]p: copy_x_back: 0.174 [ms]
[OGL LOG][lduLduBase.H:330] 
Statistics:
	Time per iteration: 8002 [mu s]
	Time per residual norm calculation: 2459.000000 [mu s]
	Time per iteration and DOF: 8.002000 [ns]
	Retrieve results bandwidth 2.873000 [GByte/s]
[OGL LOG][Proc: 0]p: solve_multi_gpu: 3336.96 [ms]
BJcudaGKOCG:  Solving for p, Initial residual = 0.0147986, Final residual = 8.41493e-05, No Iterations 415
[INFO] SolveP: 3342.81 [ms]
time step continuity errors : sum local = 1.24931e-08, global = -5.37223e-21, cumulative = -1.72976e-20
[INFO] ContinuityError: 3.665 [ms]
[INFO] CorrectBoundary: 0.457 [ms]
[INFO] PISOStep: 3371.23 [ms]
[INFO] TimeStep: 9070.34 [ms]
ExecutionTime = 131.29 s  ClockTime = 134 s

Time = 0.0075

Courant Number mean: 0.0678393 max: 0.476365
[INFO] MatrixAssemblyU: 12.071 [ms]
DILUPBiCGStab:  Solving for Ux, Initial residual = 0.00544235, Final residual = 1.66706e-05, No Iterations 5
DILUPBiCGStab:  Solving for Uy, Initial residual = 0.011667, Final residual = 2.89123e-05, No Iterations 5
DILUPBiCGStab:  Solving for Uz, Initial residual = 0.0238604, Final residual = 5.71414e-05, No Iterations 5
[INFO] MomentumPredictor: 92.897 [ms]
[INFO] MatrixAssemblyPI: 12.903 [ms]
[INFO] AdjustPhi: 0.549 [ms]
[INFO] ConstrainPressure: 0.002 [ms]
[INFO] MatrixAssemblyPII: 4.148 [ms]
[OGL LOG][Proc: 0]: global_index_init: 0.024 [ms]
[OGL LOG][Proc: 0]p_local_coeffs: call_update: 0 [ms]
[OGL LOG][Proc: 0]p_non_local_coeffs: call_update: 0 [ms]
[OGL LOG][Proc: 0]p: update_local_matrix_data: 4.496 [ms]
[OGL LOG][Proc: 0]p: update_non_local_matrix_data: 0.036 [ms]
[OGL LOG][Proc: 0]p: regenerate_distributed_matrix: 13.613 [ms]
[OGL LOG][Proc: 0]p_matrix: call_update: 14.673 [ms]
[OGL LOG][Proc: 0]p_rhs: call_update: 0.187 [ms]
[OGL LOG][Preconditioner.H:121] Generate preconditioner BJ MaxBlockSize 1
[OGL LOG][Proc: 0]p: init_precond: 0.386 [ms]
[OGL LOG][StoppingCriterion.H:237] Creating stopping criterion with minIter 249 frequency 7
[OGL LOG][Proc: 0]p: generate_solver: 0.001 [ms]
[OGL LOG][Proc: 0]p: solve: 5639.81 [ms]
[OGL LOG][Proc: 0]p: copy_x_back: 0.18 [ms]
[OGL LOG][lduLduBase.H:330] 
Statistics:
	Time per iteration: 8209 [mu s]
	Time per residual norm calculation: 2754.000000 [mu s]
	Time per iteration and DOF: 8.209000 [ns]
	Retrieve results bandwidth 2.777000 [GByte/s]
[OGL LOG][Proc: 0]p: solve_multi_gpu: 5657.36 [ms]
BJcudaGKOCG:  Solving for p, Initial residual = 0.014032, Final residual = 7.10334e-05, No Iterations 687
[INFO] SolveP: 5662.55 [ms]
time step continuity errors : sum local = 9.9267e-09, global = 9.28046e-21, cumulative = -8.01718e-21
[INFO] ContinuityError: 3.088 [ms]
[INFO] CorrectBoundary: 1.195 [ms]
[INFO] PISOStep: 5689.22 [ms]
[INFO] MatrixAssemblyPI: 12.053 [ms]
[INFO] AdjustPhi: 2.052 [ms]
[INFO] ConstrainPressure: 0.004 [ms]
[INFO] MatrixAssemblyPII: 3.81 [ms]
[OGL LOG][Proc: 0]: global_index_init: 0.009 [ms]
[OGL LOG][Proc: 0]p_local_coeffs: call_update: 0 [ms]
[OGL LOG][Proc: 0]p_non_local_coeffs: call_update: 0 [ms]
[OGL LOG][Proc: 0]p: update_local_matrix_data: 4.154 [ms]
[OGL LOG][Proc: 0]p: update_non_local_matrix_data: 0.037 [ms]
[OGL LOG][Proc: 0]p: regenerate_distributed_matrix: 13.168 [ms]
[OGL LOG][Proc: 0]p_matrix: call_update: 13.571 [ms]
[OGL LOG][Proc: 0]p_rhs: call_update: 0.336 [ms]
[OGL LOG][Preconditioner.H:121] Generate preconditioner BJ MaxBlockSize 1
[OGL LOG][Proc: 0]p: init_precond: 0.689 [ms]
[OGL LOG][StoppingCriterion.H:237] Creating stopping criterion with minIter 412 frequency 11
[OGL LOG][Proc: 0]p: generate_solver: 0.001 [ms]
[OGL LOG][Proc: 0]p: solve: 5515.12 [ms]
[OGL LOG][Proc: 0]p: copy_x_back: 0.299 [ms]
[OGL LOG][lduLduBase.H:330] 
Statistics:
	Time per iteration: 8074 [mu s]
	Time per residual norm calculation: 2762.000000 [mu s]
	Time per iteration and DOF: 8.074000 [ns]
	Retrieve results bandwidth 1.672000 [GByte/s]
[OGL LOG][Proc: 0]p: solve_multi_gpu: 5532.61 [ms]
BJcudaGKOCG:  Solving for p, Initial residual = 0.0127971, Final residual = 8.00265e-05, No Iterations 683
[INFO] SolveP: 5537.75 [ms]
time step continuity errors : sum local = 1.11873e-08, global = -6.01651e-22, cumulative = -8.61883e-21
[INFO] ContinuityError: 2.851 [ms]
[INFO] CorrectBoundary: 0.087 [ms]
[INFO] PISOStep: 5566.08 [ms]
[INFO] TimeStep: 11362.1 [ms]
ExecutionTime = 142.63 s  ClockTime = 145 s

Time = 0.008

Courant Number mean: 0.0691766 max: 0.476935
[INFO] MatrixAssemblyU: 13.665 [ms]
DILUPBiCGStab:  Solving for Ux, Initial residual = 0.00499544, Final residual = 1.50963e-05, No Iterations 5
DILUPBiCGStab:  Solving for Uy, Initial residual = 0.0107171, Final residual = 2.63959e-05, No Iterations 5
DILUPBiCGStab:  Solving for Uz, Initial residual = 0.0218164, Final residual = 4.77571e-05, No Iterations 5
[INFO] MomentumPredictor: 91.076 [ms]
[INFO] MatrixAssemblyPI: 12.809 [ms]
[INFO] AdjustPhi: 0.515 [ms]
[INFO] ConstrainPressure: 0.002 [ms]
[INFO] MatrixAssemblyPII: 3.885 [ms]
[OGL LOG][Proc: 0]: global_index_init: 0.011 [ms]
[OGL LOG][Proc: 0]p_local_coeffs: call_update: 0 [ms]
[OGL LOG][Proc: 0]p_non_local_coeffs: call_update: 0 [ms]
[OGL LOG][Proc: 0]p: update_local_matrix_data: 4.624 [ms]
[OGL LOG][Proc: 0]p: update_non_local_matrix_data: 0.052 [ms]
[OGL LOG][Proc: 0]p: regenerate_distributed_matrix: 12.8 [ms]
[OGL LOG][Proc: 0]p_matrix: call_update: 14.043 [ms]
[OGL LOG][Proc: 0]p_rhs: call_update: 0.132 [ms]
[OGL LOG][Preconditioner.H:121] Generate preconditioner BJ MaxBlockSize 1
[OGL LOG][Proc: 0]p: init_precond: 0.716 [ms]
[OGL LOG][StoppingCriterion.H:237] Creating stopping criterion with minIter 409 frequency 11
[OGL LOG][Proc: 0]p: generate_solver: 0.001 [ms]
[OGL LOG][Proc: 0]p: solve: 3355.76 [ms]
[OGL LOG][Proc: 0]p: copy_x_back: 0.182 [ms]
[OGL LOG][lduLduBase.H:330] 
Statistics:
	Time per iteration: 8008 [mu s]
	Time per residual norm calculation: 2461.000000 [mu s]
	Time per iteration and DOF: 8.008000 [ns]
	Retrieve results bandwidth 2.747000 [GByte/s]
[OGL LOG][Proc: 0]p: solve_multi_gpu: 3372.77 [ms]
BJcudaGKOCG:  Solving for p, Initial residual = 0.0120137, Final residual = 5.63378e-05, No Iterations 419
[INFO] SolveP: 3378.45 [ms]
time step continuity errors : sum local = 8.32597e-09, global = 5.24299e-21, cumulative = -3.37583e-21
[INFO] ContinuityError: 2.449 [ms]
[INFO] CorrectBoundary: 0.531 [ms]
[INFO] PISOStep: 3404.3 [ms]
[INFO] MatrixAssemblyPI: 12.371 [ms]
[INFO] AdjustPhi: 0.639 [ms]
[INFO] ConstrainPressure: 0.002 [ms]
[INFO] MatrixAssemblyPII: 3.795 [ms]
[OGL LOG][Proc: 0]: global_index_init: 0.008 [ms]
[OGL LOG][Proc: 0]p_local_coeffs: call_update: 0 [ms]
[OGL LOG][Proc: 0]p_non_local_coeffs: call_update: 0 [ms]
[OGL LOG][Proc: 0]p: update_local_matrix_data: 5.068 [ms]
[OGL LOG][Proc: 0]p: update_non_local_matrix_data: 0.035 [ms]
[OGL LOG][Proc: 0]p: regenerate_distributed_matrix: 11.1 [ms]
[OGL LOG][Proc: 0]p_matrix: call_update: 11.907 [ms]
[OGL LOG][Proc: 0]p_rhs: call_update: 1.361 [ms]
[OGL LOG][Preconditioner.H:121] Generate preconditioner BJ MaxBlockSize 1
[OGL LOG][Proc: 0]p: init_precond: 0.544 [ms]
[OGL LOG][StoppingCriterion.H:237] Creating stopping criterion with minIter 251 frequency 7
[OGL LOG][Proc: 0]p: generate_solver: 0.001 [ms]
[OGL LOG][Proc: 0]p: solve: 2324.26 [ms]
[OGL LOG][Proc: 0]p: copy_x_back: 0.22 [ms]
[OGL LOG][lduLduBase.H:330] 
Statistics:
	Time per iteration: 8070 [mu s]
	Time per residual norm calculation: 2168.000000 [mu s]
	Time per iteration and DOF: 8.070000 [ns]
	Retrieve results bandwidth 2.272000 [GByte/s]
[OGL LOG][Proc: 0]p: solve_multi_gpu: 2339.5 [ms]
BJcudaGKOCG:  Solving for p, Initial residual = 0.0111494, Final residual = 9.95005e-05, No Iterations 288
[INFO] SolveP: 2345.27 [ms]
time step continuity errors : sum local = 1.41313e-08, global = 6.05087e-21, cumulative = 2.67504e-21
[INFO] ContinuityError: 4.351 [ms]
[INFO] CorrectBoundary: 0.062 [ms]
[INFO] PISOStep: 2372.21 [ms]
[INFO] TimeStep: 5884.49 [ms]
ExecutionTime = 148.51 s  ClockTime = 151 s

Time = 0.0085

Courant Number mean: 0.0704222 max: 0.477443
[INFO] MatrixAssemblyU: 12.149 [ms]
DILUPBiCGStab:  Solving for Ux, Initial residual = 0.00460079, Final residual = 1.36618e-05, No Iterations 5
DILUPBiCGStab:  Solving for Uy, Initial residual = 0.00989475, Final residual = 2.42781e-05, No Iterations 5
DILUPBiCGStab:  Solving for Uz, Initial residual = 0.0201521, Final residual = 4.43581e-05, No Iterations 5
[INFO] MomentumPredictor: 93.337 [ms]
[INFO] MatrixAssemblyPI: 13.058 [ms]
[INFO] AdjustPhi: 0.505 [ms]
[INFO] ConstrainPressure: 0.002 [ms]
[INFO] MatrixAssemblyPII: 3.895 [ms]
[OGL LOG][Proc: 0]: global_index_init: 0.029 [ms]
[OGL LOG][Proc: 0]p_local_coeffs: call_update: 0 [ms]
[OGL LOG][Proc: 0]p_non_local_coeffs: call_update: 0 [ms]
[OGL LOG][Proc: 0]p: update_local_matrix_data: 4.905 [ms]
[OGL LOG][Proc: 0]p: update_non_local_matrix_data: 0.036 [ms]
[OGL LOG][Proc: 0]p: regenerate_distributed_matrix: 14.284 [ms]
[OGL LOG][Proc: 0]p_matrix: call_update: 14.714 [ms]
[OGL LOG][Proc: 0]p_rhs: call_update: 0.407 [ms]
[OGL LOG][Preconditioner.H:121] Generate preconditioner BJ MaxBlockSize 1
[OGL LOG][Proc: 0]p: init_precond: 0.381 [ms]
[OGL LOG][StoppingCriterion.H:237] Creating stopping criterion with minIter 172 frequency 6
[OGL LOG][Proc: 0]p: generate_solver: 0.001 [ms]
[OGL LOG][Proc: 0]p: solve: 2368.05 [ms]
[OGL LOG][Proc: 0]p: copy_x_back: 0.192 [ms]
[OGL LOG][lduLduBase.H:330] 
Statistics:
	Time per iteration: 8193 [mu s]
	Time per residual norm calculation: 2757.000000 [mu s]
	Time per iteration and DOF: 8.193000 [ns]
	Retrieve results bandwidth 2.604000 [GByte/s]
[OGL LOG][Proc: 0]p: solve_multi_gpu: 2385.61 [ms]
BJcudaGKOCG:  Solving for p, Initial residual = 0.0105329, Final residual = 9.64288e-05, No Iterations 289
[INFO] SolveP: 2391.22 [ms]
time step continuity errors : sum local = 1.4207e-08, global = -3.44159e-22, cumulative = 2.33088e-21
[INFO] ContinuityError: 1.295 [ms]
[INFO] CorrectBoundary: 0.098 [ms]
[INFO] PISOStep: 2415.25 [ms]
[INFO] MatrixAssemblyPI: 12.131 [ms]
[INFO] AdjustPhi: 0.55 [ms]
[INFO] ConstrainPressure: 0.002 [ms]
[INFO] MatrixAssemblyPII: 3.933 [ms]
[OGL LOG][Proc: 0]: global_index_init: 0.011 [ms]
[OGL LOG][Proc: 0]p_local_coeffs: call_update: 0 [ms]
[OGL LOG][Proc: 0]p_non_local_coeffs: call_update: 0 [ms]
[OGL LOG][Proc: 0]p: update_local_matrix_data: 4.861 [ms]
[OGL LOG][Proc: 0]p: update_non_local_matrix_data: 0.037 [ms]
[OGL LOG][Proc: 0]p: regenerate_distributed_matrix: 10.359 [ms]
[OGL LOG][Proc: 0]p_matrix: call_update: 11.497 [ms]
[OGL LOG][Proc: 0]p_rhs: call_update: 0.098 [ms]
[OGL LOG][Preconditioner.H:121] Generate preconditioner BJ MaxBlockSize 1
[OGL LOG][Proc: 0]p: init_precond: 0.541 [ms]
[OGL LOG][StoppingCriterion.H:237] Creating stopping criterion with minIter 173 frequency 7
[OGL LOG][Proc: 0]p: generate_solver: 0.001 [ms]
[OGL LOG][Proc: 0]p: solve: 2352.68 [ms]
[OGL LOG][Proc: 0]p: copy_x_back: 0.177 [ms]
[OGL LOG][lduLduBase.H:330] 
Statistics:
	Time per iteration: 8169 [mu s]
	Time per residual norm calculation: 2152.000000 [mu s]
	Time per iteration and DOF: 8.169000 [ns]
	Retrieve results bandwidth 2.824000 [GByte/s]
[OGL LOG][Proc: 0]p: solve_multi_gpu: 2366.24 [ms]
BJcudaGKOCG:  Solving for p, Initial residual = 0.00983784, Final residual = 8.47658e-05, No Iterations 288
[INFO] SolveP: 2371.93 [ms]
time step continuity errors : sum local = 1.19931e-08, global = -1.20994e-20, cumulative = -9.76855e-21
[INFO] ContinuityError: 4.654 [ms]
[INFO] CorrectBoundary: 0.066 [ms]
[INFO] PISOStep: 2398.17 [ms]
[INFO] TimeStep: 4922.14 [ms]
ExecutionTime = 153.42 s  ClockTime = 156 s

Time = 0.009

Courant Number mean: 0.0715857 max: 0.477902
[INFO] MatrixAssemblyU: 12.699 [ms]
DILUPBiCGStab:  Solving for Ux, Initial residual = 0.00425643, Final residual = 1.24952e-05, No Iterations 5
DILUPBiCGStab:  Solving for Uy, Initial residual = 0.00917267, Final residual = 2.2449e-05, No Iterations 5
DILUPBiCGStab:  Solving for Uz, Initial residual = 0.0187181, Final residual = 4.29798e-05, No Iterations 5
[INFO] MomentumPredictor: 92.597 [ms]
[INFO] MatrixAssemblyPI: 12.894 [ms]
[INFO] AdjustPhi: 0.574 [ms]
[INFO] ConstrainPressure: 0.002 [ms]
[INFO] MatrixAssemblyPII: 3.991 [ms]
[OGL LOG][Proc: 0]: global_index_init: 0.02 [ms]
[OGL LOG][Proc: 0]p_local_coeffs: call_update: 0 [ms]
[OGL LOG][Proc: 0]p_non_local_coeffs: call_update: 0 [ms]
[OGL LOG][Proc: 0]p: update_local_matrix_data: 4.976 [ms]
[OGL LOG][Proc: 0]p: update_non_local_matrix_data: 0.036 [ms]
[OGL LOG][Proc: 0]p: regenerate_distributed_matrix: 13.562 [ms]
[OGL LOG][Proc: 0]p_matrix: call_update: 14.848 [ms]
[OGL LOG][Proc: 0]p_rhs: call_update: 0.216 [ms]
[OGL LOG][Preconditioner.H:121] Generate preconditioner BJ MaxBlockSize 1
[OGL LOG][Proc: 0]p: init_precond: 0.549 [ms]
[OGL LOG][StoppingCriterion.H:237] Creating stopping criterion with minIter 172 frequency 6
[OGL LOG][Proc: 0]p: generate_solver: 0.001 [ms]
[OGL LOG][Proc: 0]p: solve: 2318.17 [ms]
[OGL LOG][Proc: 0]p: copy_x_back: 0.168 [ms]
[OGL LOG][lduLduBase.H:330] 
Statistics:
	Time per iteration: 8191 [mu s]
	Time per residual norm calculation: 2460.000000 [mu s]
	Time per iteration and DOF: 8.191000 [ns]
	Retrieve results bandwidth 2.976000 [GByte/s]
[OGL LOG][Proc: 0]p: solve_multi_gpu: 2334.83 [ms]
BJcudaGKOCG:  Solving for p, Initial residual = 0.00956753, Final residual = 9.93592e-05, No Iterations 283
[INFO] SolveP: 2341.01 [ms]
time step continuity errors : sum local = 1.4685e-08, global = 1.35817e-20, cumulative = 3.81313e-21
[INFO] ContinuityError: 3.18 [ms]
[INFO] CorrectBoundary: 0.548 [ms]
[INFO] PISOStep: 2368.03 [ms]
[INFO] MatrixAssemblyPI: 12.7 [ms]
[INFO] AdjustPhi: 0.95 [ms]
[INFO] ConstrainPressure: 0.002 [ms]
[INFO] MatrixAssemblyPII: 3.785 [ms]
[OGL LOG][Proc: 0]: global_index_init: 0.008 [ms]
[OGL LOG][Proc: 0]p_local_coeffs: call_update: 0 [ms]
[OGL LOG][Proc: 0]p_non_local_coeffs: call_update: 0 [ms]
[OGL LOG][Proc: 0]p: update_local_matrix_data: 4.955 [ms]
[OGL LOG][Proc: 0]p: update_non_local_matrix_data: 0.037 [ms]
[OGL LOG][Proc: 0]p: regenerate_distributed_matrix: 10.831 [ms]
[OGL LOG][Proc: 0]p_matrix: call_update: 11.316 [ms]
[OGL LOG][Proc: 0]p_rhs: call_update: 1.616 [ms]
[OGL LOG][Preconditioner.H:121] Generate preconditioner BJ MaxBlockSize 1
[OGL LOG][Proc: 0]p: init_precond: 0.552 [ms]
[OGL LOG][StoppingCriterion.H:237] Creating stopping criterion with minIter 169 frequency 6
[OGL LOG][Proc: 0]p: generate_solver: 0.001 [ms]
[OGL LOG][Proc: 0]p: solve: 2317.65 [ms]
[OGL LOG][Proc: 0]p: copy_x_back: 0.171 [ms]
[OGL LOG][lduLduBase.H:330] 
Statistics:
	Time per iteration: 8189 [mu s]
	Time per residual norm calculation: 2446.000000 [mu s]
	Time per iteration and DOF: 8.189000 [ns]
	Retrieve results bandwidth 2.923000 [GByte/s]
[OGL LOG][Proc: 0]p: solve_multi_gpu: 2332.54 [ms]
BJcudaGKOCG:  Solving for p, Initial residual = 0.00900745, Final residual = 8.76284e-05, No Iterations 283
[INFO] SolveP: 2338.44 [ms]
time step continuity errors : sum local = 1.25494e-08, global = -7.23026e-21, cumulative = -3.41712e-21
[INFO] ContinuityError: 4.022 [ms]
[INFO] CorrectBoundary: 0.067 [ms]
[INFO] PISOStep: 2365.86 [ms]
[INFO] TimeStep: 4841.83 [ms]
ExecutionTime = 158.26 s  ClockTime = 161 s

Time = 0.0095

Courant Number mean: 0.0726727 max: 0.478315
[INFO] MatrixAssemblyU: 13.064 [ms]
DILUPBiCGStab:  Solving for Ux, Initial residual = 0.00395372, Final residual = 1.14484e-05, No Iterations 5
DILUPBiCGStab:  Solving for Uy, Initial residual = 0.0085233, Final residual = 2.08688e-05, No Iterations 5
DILUPBiCGStab:  Solving for Uz, Initial residual = 0.0176729, Final residual = 4.14521e-05, No Iterations 5
[INFO] MomentumPredictor: 91.496 [ms]
[INFO] MatrixAssemblyPI: 12.594 [ms]
[INFO] AdjustPhi: 0.487 [ms]
[INFO] ConstrainPressure: 0.002 [ms]
[INFO] MatrixAssemblyPII: 3.849 [ms]
[OGL LOG][Proc: 0]: global_index_init: 0.032 [ms]
[OGL LOG][Proc: 0]p_local_coeffs: call_update: 0 [ms]
[OGL LOG][Proc: 0]p_non_local_coeffs: call_update: 0 [ms]
[OGL LOG][Proc: 0]p: update_local_matrix_data: 5.131 [ms]
[OGL LOG][Proc: 0]p: update_non_local_matrix_data: 0.037 [ms]
[OGL LOG][Proc: 0]p: regenerate_distributed_matrix: 12.658 [ms]
[OGL LOG][Proc: 0]p_matrix: call_update: 13.994 [ms]
[OGL LOG][Proc: 0]p_rhs: call_update: 0.104 [ms]
[OGL LOG][Preconditioner.H:121] Generate preconditioner BJ MaxBlockSize 1
[OGL LOG][Proc: 0]p: init_precond: 0.54 [ms]
[OGL LOG][StoppingCriterion.H:237] Creating stopping criterion with minIter 169 frequency 6
[OGL LOG][Proc: 0]p: generate_solver: 0.001 [ms]
[OGL LOG][Proc: 0]p: solve: 2418.68 [ms]
[OGL LOG][Proc: 0]p: copy_x_back: 0.188 [ms]
[OGL LOG][lduLduBase.H:330] 
Statistics:
	Time per iteration: 8198 [mu s]
	Time per residual norm calculation: 2164.000000 [mu s]
	Time per iteration and DOF: 8.198000 [ns]
	Retrieve results bandwidth 2.659000 [GByte/s]
[OGL LOG][Proc: 0]p: solve_multi_gpu: 2434.52 [ms]
BJcudaGKOCG:  Solving for p, Initial residual = 0.00878093, Final residual = 9.92143e-05, No Iterations 295
[INFO] SolveP: 2440.72 [ms]
time step continuity errors : sum local = 1.51306e-08, global = -9.27942e-21, cumulative = -1.26965e-20
[INFO] ContinuityError: 2.708 [ms]
[INFO] CorrectBoundary: 0.354 [ms]
[INFO] PISOStep: 2465.83 [ms]
[INFO] MatrixAssemblyPI: 11.75 [ms]
[INFO] AdjustPhi: 1.964 [ms]
[INFO] ConstrainPressure: 0.002 [ms]
[INFO] MatrixAssemblyPII: 3.841 [ms]
[OGL LOG][Proc: 0]: global_index_init: 0.021 [ms]
[OGL LOG][Proc: 0]p_local_coeffs: call_update: 0 [ms]
[OGL LOG][Proc: 0]p_non_local_coeffs: call_update: 0 [ms]
[OGL LOG][Proc: 0]p: update_local_matrix_data: 3.798 [ms]
[OGL LOG][Proc: 0]p: update_non_local_matrix_data: 0.036 [ms]
[OGL LOG][Proc: 0]p: regenerate_distributed_matrix: 11.618 [ms]
[OGL LOG][Proc: 0]p_matrix: call_update: 12.404 [ms]
[OGL LOG][Proc: 0]p_rhs: call_update: 0.754 [ms]
[OGL LOG][Preconditioner.H:121] Generate preconditioner BJ MaxBlockSize 1
[OGL LOG][Proc: 0]p: init_precond: 0.695 [ms]
[OGL LOG][StoppingCriterion.H:237] Creating stopping criterion with minIter 177 frequency 6
[OGL LOG][Proc: 0]p: generate_solver: 0.001 [ms]
[OGL LOG][Proc: 0]p: solve: 2363.09 [ms]
[OGL LOG][Proc: 0]p: copy_x_back: 0.174 [ms]
[OGL LOG][lduLduBase.H:330] 
Statistics:
	Time per iteration: 8176 [mu s]
	Time per residual norm calculation: 2444.000000 [mu s]
	Time per iteration and DOF: 8.176000 [ns]
	Retrieve results bandwidth 2.873000 [GByte/s]
[OGL LOG][Proc: 0]p: solve_multi_gpu: 2379.7 [ms]
BJcudaGKOCG:  Solving for p, Initial residual = 0.00829601, Final residual = 9.15164e-05, No Iterations 289
[INFO] SolveP: 2384.54 [ms]
time step continuity errors : sum local = 1.31229e-08, global = -8.62336e-21, cumulative = -2.13199e-20
[INFO] ContinuityError: 4.35 [ms]
[INFO] CorrectBoundary: 0.501 [ms]
[INFO] PISOStep: 2413.43 [ms]
[INFO] TimeStep: 4985.68 [ms]
ExecutionTime = 163.24 s  ClockTime = 166 s

Time = 0.01

Courant Number mean: 0.0736902 max: 0.478693
[INFO] MatrixAssemblyU: 12.38 [ms]
DILUPBiCGStab:  Solving for Ux, Initial residual = 0.00367848, Final residual = 1.05654e-05, No Iterations 5
DILUPBiCGStab:  Solving for Uy, Initial residual = 0.00796295, Final residual = 1.95184e-05, No Iterations 5
DILUPBiCGStab:  Solving for Uz, Initial residual = 0.0165564, Final residual = 4.20418e-05, No Iterations 5
[INFO] MomentumPredictor: 92.636 [ms]
[INFO] MatrixAssemblyPI: 12.711 [ms]
[INFO] AdjustPhi: 0.558 [ms]
[INFO] ConstrainPressure: 0.002 [ms]
[INFO] MatrixAssemblyPII: 4.11 [ms]
[OGL LOG][Proc: 0]: global_index_init: 0.032 [ms]
[OGL LOG][Proc: 0]p_local_coeffs: call_update: 0 [ms]
[OGL LOG][Proc: 0]p_non_local_coeffs: call_update: 0 [ms]
[OGL LOG][Proc: 0]p: update_local_matrix_data: 4.656 [ms]
[OGL LOG][Proc: 0]p: update_non_local_matrix_data: 0.038 [ms]
[OGL LOG][Proc: 0]p: regenerate_distributed_matrix: 13.658 [ms]
[OGL LOG][Proc: 0]p_matrix: call_update: 14.76 [ms]
[OGL LOG][Proc: 0]p_rhs: call_update: 0.234 [ms]
[OGL LOG][Preconditioner.H:121] Generate preconditioner BJ MaxBlockSize 1
[OGL LOG][Proc: 0]p: init_precond: 0.712 [ms]
[OGL LOG][StoppingCriterion.H:237] Creating stopping criterion with minIter 173 frequency 6
[OGL LOG][Proc: 0]p: generate_solver: 0.001 [ms]
[OGL LOG][Proc: 0]p: solve: 2467.2 [ms]
[OGL LOG][Proc: 0]p: copy_x_back: 0.165 [ms]
[OGL LOG][lduLduBase.H:330] 
Statistics:
	Time per iteration: 8196 [mu s]
	Time per residual norm calculation: 2739.000000 [mu s]
	Time per iteration and DOF: 8.196000 [ns]
	Retrieve results bandwidth 3.030000 [GByte/s]
[OGL LOG][Proc: 0]p: solve_multi_gpu: 2485.56 [ms]
BJcudaGKOCG:  Solving for p, Initial residual = 0.00832233, Final residual = 9.10879e-05, No Iterations 301
[INFO] SolveP: 2491.77 [ms]
time step continuity errors : sum local = 1.42278e-08, global = -7.9551e-21, cumulative = -2.9275e-20
[INFO] ContinuityError: 3.038 [ms]
[INFO] CorrectBoundary: 0.078 [ms]
[INFO] PISOStep: 2517.02 [ms]
[INFO] MatrixAssemblyPI: 12.673 [ms]
[INFO] AdjustPhi: 0.814 [ms]
[INFO] ConstrainPressure: 0.002 [ms]
[INFO] MatrixAssemblyPII: 3.884 [ms]
[OGL LOG][Proc: 0]: global_index_init: 0.009 [ms]
[OGL LOG][Proc: 0]p_local_coeffs: call_update: 0 [ms]
[OGL LOG][Proc: 0]p_non_local_coeffs: call_update: 0 [ms]
[OGL LOG][Proc: 0]p: update_local_matrix_data: 6.291 [ms]
[OGL LOG][Proc: 0]p: update_non_local_matrix_data: 0.036 [ms]
[OGL LOG][Proc: 0]p: regenerate_distributed_matrix: 14.191 [ms]
[OGL LOG][Proc: 0]p_matrix: call_update: 15.456 [ms]
[OGL LOG][Proc: 0]p_rhs: call_update: 3.665 [ms]
[OGL LOG][Preconditioner.H:121] Generate preconditioner BJ MaxBlockSize 1
[OGL LOG][Proc: 0]p: init_precond: 0.386 [ms]
[OGL LOG][StoppingCriterion.H:237] Creating stopping criterion with minIter 180 frequency 7
[OGL LOG][Proc: 0]p: generate_solver: 0.001 [ms]
[OGL LOG][Proc: 0]p: solve: 2407.55 [ms]
[OGL LOG][Proc: 0]p: copy_x_back: 0.383 [ms]
[OGL LOG][lduLduBase.H:330] 
Statistics:
	Time per iteration: 8161 [mu s]
	Time per residual norm calculation: 2462.000000 [mu s]
	Time per iteration and DOF: 8.161000 [ns]
	Retrieve results bandwidth 1.305000 [GByte/s]
[OGL LOG][Proc: 0]p: solve_multi_gpu: 2429.81 [ms]
BJcudaGKOCG:  Solving for p, Initial residual = 0.007889, Final residual = 8.98582e-05, No Iterations 295
[INFO] SolveP: 2437.07 [ms]
time step continuity errors : sum local = 1.30493e-08, global = 6.26333e-21, cumulative = -2.30117e-20
[INFO] ContinuityError: 2.205 [ms]
[INFO] CorrectBoundary: 0.08 [ms]
[INFO] PISOStep: 2464.14 [ms]
[INFO] TimeStep: 5088.02 [ms]
ExecutionTime = 168.31 s  ClockTime = 171 s

End

Finalising parallel run
