/*---------------------------------------------------------------------------*\
| =========                 |                                                 |
| \\      /  F ield         | OpenFOAM: The Open Source CFD Toolbox           |
|  \\    /   O peration     | Version:  2306                                  |
|   \\  /    A nd           | Website:  www.openfoam.com                      |
|    \\/     M anipulation  |                                                 |
\*---------------------------------------------------------------------------*/
Build  : c423ebec-20231012 OPENFOAM=2306 version=v2306
Arch   : "LSB;label=32;scalar=64"
Exec   : icoFoam -parallel -case /hkfs/work/workspace/scratch/eq4036-l3d/workspace/4960b5bb806f99570d76154f06b910ff/case
Date   : Jan 10 2024
Time   : 21:59:56
Host   : hkn0415.localdomain
PID    : 2164631
I/O    : uncollated
Case   : /hkfs/work/workspace/scratch/eq4036-l3d/workspace/4960b5bb806f99570d76154f06b910ff/case
nProcs : 76
Hosts  :
(
    (hkn0415.localdomain 76)
)
Pstream initialized with:
    floatTransfer      : false
    nProcsSimpleSum    : 0
    nonBlockingExchange: 0 (tuning: 0)
    exchange algorithm : -1
    commsType          : nonBlocking
    polling iterations : 0
trapFpe: Floating point exception trapping enabled (FOAM_SIGFPE).
fileModificationChecking : Monitoring run-time modified files using timeStampMaster (fileModificationSkew 5, maxFileModificationPolls 20)
allowSystemOperations : Allowing user-supplied system call operations

// * * * * * * * * * * * * * * * * * * * * * * * * * * * * * * * * * * * * * //
Create time

--> FOAM Warning : 
    From void* Foam::dlLibraryTable::openLibrary(const Foam::fileName&, bool)
    in file db/dynamicLibrary/dlLibraryTable/dlLibraryTable.C at line 188
    Could not load "libpetscFoam.so"
libpetscFoam.so: cannot open shared object file: No such file or directory
Create mesh for time = 0


PISO: Operating solver in PISO mode

Reading transportProperties

Reading field p

Reading field U

Reading/calculating face flux field phi


Starting time loop

Time = 0.000125

Courant Number mean: 8.02505e-18 max: 4.85723e-14
[INFO] MatrixAssemblyU: 527.034 [ms]
DILUPBiCGStab:  Solving for Ux, Initial residual = 1, Final residual = 0.0261796, No Iterations 5
DILUPBiCGStab:  Solving for Uy:  solution singularity
DILUPBiCGStab:  Solving for Uz:  solution singularity
[INFO] MomentumPredictor: 1772.15 [ms]
[INFO] MatrixAssemblyPI: 571.312 [ms]
[INFO] AdjustPhi: 38.527 [ms]
[INFO] ConstrainPressure: 0.007 [ms]
[INFO] MatrixAssemblyPII: 132.264 [ms]
[OGL LOG][lduLduBase.H:119] Initialising OGL
	OGL commit:  e75313f+
	Branch: dev 
	Build type: Debug
	Ginkgo version: 1.8.0 ( develop)
	Ginkgo commit: sparse-communicator
	MPI is GPU aware: 1
	Forces host buffer based communication: 0
	CPU ranks per GPU: 1
	Matrix format: Ell
	End OGL_INFO
[OGL LOG][Proc: 0]: global_index_init: 22.868 [ms]
[OGL LOG][Proc: 0]p_local_cols: call_init: 1.62 [ms]
[OGL LOG][Proc: 0]p_local_rows: call_init: 0.815 [ms]
[OGL LOG][Proc: 0]p_local_ldu_map: call_init: 0.711 [ms]
[OGL LOG][Proc: 0]p_local_coeffs: call_init: 13.114 [ms]
[OGL LOG][Proc: 0]p_non_local_cols: call_init: 0.021 [ms]
[OGL LOG][Proc: 0]p_non_local_rows: call_init: 0.006 [ms]
[OGL LOG][Proc: 0]p_non_local_ldu_map: call_init: 0.005 [ms]
[OGL LOG][Proc: 0]p_non_local_coeffs: call_init: 0.013 [ms]
[OGL LOG][Proc: 0]p: init_local_sparsity_pattern: 24192.5 [ms]
[OGL LOG][Proc: 0]p: init_non_local_sparsity_pattern: 565.665 [ms]
[OGL LOG][Proc: 0]p: update_local_matrix_data: 71.113 [ms]
[OGL LOG][Proc: 0]p: update_non_local_matrix_data: 2.637 [ms]
[OGL LOG][Proc: 0]device_partition: call_init: 0.525 [ms]
[OGL LOG][Proc: 0]p_matrix: call_init: 320.965 [ms]
[OGL LOG][Proc: 0]p_rhs: call_init: 25.305 [ms]
[OGL LOG][Proc: 0]p_solution: call_init: 4.59 [ms]
[OGL LOG][Preconditioner.H:346] Generate preconditioner Multigrid MaxLevels 9 MinCoarseRows 10 ZeroGuess 1 Cycle v
[OGL LOG][Proc: 0]p: init_precond: 2649.82 [ms]
[OGL LOG][StoppingCriterion.H:239] Creating stopping criterion with minIter 0 frequency 1
[OGL LOG][Proc: 0]p: generate_solver: 0.028 [ms]
[OGL LOG][Proc: 0]p: solve: 63324.4 [ms]
[OGL LOG][Proc: 0]p: copy_x_back: 4.68 [ms]
[OGL LOG][lduLduBase.H:330] 
Statistics:
	Time per iteration: 87828 [mu s]
	Time per residual norm calculation: 13543.000000 [mu s]
	Time per iteration and DOF: 1.372313 [ns]
	Retrieve results bandwidth 1.473000 [GByte/s]
[OGL LOG][Proc: 0]p: solve_multi_gpu: 66904.1 [ms]
MultigridcudaGKOCG:  Solving for p, Initial residual = 1, Final residual = 9.79475e-05, No Iterations 721
[INFO] SolveP: 112949 [ms]
time step continuity errors : sum local = 3.40944e-09, global = 3.20008e-21, cumulative = 3.20008e-21
[INFO] ContinuityError: 62.876 [ms]
[INFO] CorrectBoundary: 9.029 [ms]
[INFO] PISOStep: 113959 [ms]
[INFO] MatrixAssemblyPI: 537.798 [ms]
[INFO] AdjustPhi: 19.492 [ms]
[INFO] ConstrainPressure: 0.004 [ms]
[INFO] MatrixAssemblyPII: 138.753 [ms]
[OGL LOG][Proc: 0]: global_index_init: 0.139 [ms]
[OGL LOG][Proc: 0]p_local_coeffs: call_update: 0.002 [ms]
[OGL LOG][Proc: 0]p_non_local_coeffs: call_update: 0 [ms]
[OGL LOG][Proc: 0]p: update_local_matrix_data: 104.308 [ms]
[OGL LOG][Proc: 0]p: update_non_local_matrix_data: 2.653 [ms]
[OGL LOG][Proc: 0]p: regenerate_distributed_matrix: 333.424 [ms]
[OGL LOG][Proc: 0]p_matrix: call_update: 338.489 [ms]
[OGL LOG][Proc: 0]p_rhs: call_update: 8.295 [ms]
[OGL LOG][Preconditioner.H:346] Generate preconditioner Multigrid MaxLevels 9 MinCoarseRows 10 ZeroGuess 1 Cycle v
[OGL LOG][Proc: 0]p: init_precond: 2652.98 [ms]
[OGL LOG][StoppingCriterion.H:239] Creating stopping criterion with minIter 432 frequency 6
[OGL LOG][Proc: 0]p: generate_solver: 0.016 [ms]
[OGL LOG][Proc: 0]p: solve: 55884.9 [ms]
[OGL LOG][Proc: 0]p: copy_x_back: 4.189 [ms]
[OGL LOG][lduLduBase.H:330] 
Statistics:
	Time per iteration: 77510 [mu s]
	Time per residual norm calculation: 12605.000000 [mu s]
	Time per iteration and DOF: 1.211094 [ns]
	Retrieve results bandwidth 1.646000 [GByte/s]
[OGL LOG][Proc: 0]p: solve_multi_gpu: 59166.9 [ms]
MultigridcudaGKOCG:  Solving for p, Initial residual = 0.814194, Final residual = 8.19199e-05, No Iterations 721
[INFO] SolveP: 59297.8 [ms]
time step continuity errors : sum local = 3.36006e-09, global = 2.09927e-21, cumulative = 5.29935e-21
[INFO] ContinuityError: 53.675 [ms]
[INFO] CorrectBoundary: 9.074 [ms]
[INFO] PISOStep: 60247.7 [ms]
[INFO] TimeStep: 176573 [ms]
ExecutionTime = 160.08 s  ClockTime = 179 s

Time = 0.00025

Courant Number mean: 0.0105485 max: 0.436449
[INFO] MatrixAssemblyU: 427.755 [ms]
DILUPBiCGStab:  Solving for Ux, Initial residual = 0.108664, Final residual = 0.0159862, No Iterations 5
DILUPBiCGStab:  Solving for Uy, Initial residual = 0.487285, Final residual = 0.0585795, No Iterations 5
DILUPBiCGStab:  Solving for Uz, Initial residual = 0.986303, Final residual = 0.139207, No Iterations 5
[INFO] MomentumPredictor: 3384.11 [ms]
[INFO] MatrixAssemblyPI: 555.175 [ms]
[INFO] AdjustPhi: 19.683 [ms]
[INFO] ConstrainPressure: 0.004 [ms]
[INFO] MatrixAssemblyPII: 131.016 [ms]
[OGL LOG][Proc: 0]: global_index_init: 0.065 [ms]
[OGL LOG][Proc: 0]p_local_coeffs: call_update: 0 [ms]
[OGL LOG][Proc: 0]p_non_local_coeffs: call_update: 0 [ms]
[OGL LOG][Proc: 0]p: update_local_matrix_data: 107.405 [ms]
[OGL LOG][Proc: 0]p: update_non_local_matrix_data: 3.071 [ms]
[OGL LOG][Proc: 0]p: regenerate_distributed_matrix: 332.554 [ms]
[OGL LOG][Proc: 0]p_matrix: call_update: 334.973 [ms]
[OGL LOG][Proc: 0]p_rhs: call_update: 7.296 [ms]
[OGL LOG][Preconditioner.H:346] Generate preconditioner Multigrid MaxLevels 9 MinCoarseRows 10 ZeroGuess 1 Cycle v
[OGL LOG][Proc: 0]p: init_precond: 3147.26 [ms]
[OGL LOG][StoppingCriterion.H:239] Creating stopping criterion with minIter 432 frequency 6
[OGL LOG][Proc: 0]p: generate_solver: 0.01 [ms]
[OGL LOG][Proc: 0]p: solve: 51722.4 [ms]
[OGL LOG][Proc: 0]p: copy_x_back: 6.133 [ms]
[OGL LOG][lduLduBase.H:330] 
Statistics:
	Time per iteration: 76174 [mu s]
	Time per residual norm calculation: 11241.000000 [mu s]
	Time per iteration and DOF: 1.190219 [ns]
	Retrieve results bandwidth 1.124000 [GByte/s]
[OGL LOG][Proc: 0]p: solve_multi_gpu: 55476.4 [ms]
MultigridcudaGKOCG:  Solving for p, Initial residual = 0.92228, Final residual = 8.00933e-05, No Iterations 679
[INFO] SolveP: 55610.5 [ms]
time step continuity errors : sum local = 6.86939e-09, global = 4.57976e-21, cumulative = 9.87911e-21
[INFO] ContinuityError: 74.835 [ms]
[INFO] CorrectBoundary: 6.137 [ms]
[INFO] PISOStep: 56585.6 [ms]
[INFO] MatrixAssemblyPI: 542.057 [ms]
[INFO] AdjustPhi: 20.403 [ms]
[INFO] ConstrainPressure: 0.003 [ms]
[INFO] MatrixAssemblyPII: 136.672 [ms]
[OGL LOG][Proc: 0]: global_index_init: 0.066 [ms]
[OGL LOG][Proc: 0]p_local_coeffs: call_update: 0 [ms]
[OGL LOG][Proc: 0]p_non_local_coeffs: call_update: 0 [ms]
[OGL LOG][Proc: 0]p: update_local_matrix_data: 108.218 [ms]
[OGL LOG][Proc: 0]p: update_non_local_matrix_data: 2.88 [ms]
[OGL LOG][Proc: 0]p: regenerate_distributed_matrix: 339.34 [ms]
[OGL LOG][Proc: 0]p_matrix: call_update: 343.254 [ms]
[OGL LOG][Proc: 0]p_rhs: call_update: 7.242 [ms]
[OGL LOG][Preconditioner.H:346] Generate preconditioner Multigrid MaxLevels 9 MinCoarseRows 10 ZeroGuess 1 Cycle v
[OGL LOG][Proc: 0]p: init_precond: 2402.35 [ms]
[OGL LOG][StoppingCriterion.H:239] Creating stopping criterion with minIter 407 frequency 6
[OGL LOG][Proc: 0]p: generate_solver: 0.011 [ms]
[OGL LOG][Proc: 0]p: solve: 31732 [ms]
[OGL LOG][Proc: 0]p: copy_x_back: 4.586 [ms]
[OGL LOG][lduLduBase.H:330] 
Statistics:
	Time per iteration: 77584 [mu s]
	Time per residual norm calculation: 13232.000000 [mu s]
	Time per iteration and DOF: 1.212250 [ns]
	Retrieve results bandwidth 1.503000 [GByte/s]
[OGL LOG][Proc: 0]p: solve_multi_gpu: 34752.1 [ms]
MultigridcudaGKOCG:  Solving for p, Initial residual = 0.840566, Final residual = 6.98713e-05, No Iterations 409
[INFO] SolveP: 34886.8 [ms]
time step continuity errors : sum local = 6.79284e-09, global = 2.64905e-21, cumulative = 1.25282e-20
[INFO] ContinuityError: 59.252 [ms]
[INFO] CorrectBoundary: 7.351 [ms]
[INFO] PISOStep: 35843.8 [ms]
[INFO] TimeStep: 96302.6 [ms]
ExecutionTime = 255.94 s  ClockTime = 275 s

Time = 0.000375

Courant Number mean: 0.0166097 max: 0.50938
[INFO] MatrixAssemblyU: 426.62 [ms]
DILUPBiCGStab:  Solving for Ux, Initial residual = 0.0535951, Final residual = 0.00656946, No Iterations 5
DILUPBiCGStab:  Solving for Uy, Initial residual = 0.260685, Final residual = 0.0300722, No Iterations 5
DILUPBiCGStab:  Solving for Uz, Initial residual = 0.868268, Final residual = 0.10434, No Iterations 5
[INFO] MomentumPredictor: 3446.83 [ms]
[INFO] MatrixAssemblyPI: 553.876 [ms]
[INFO] AdjustPhi: 20.442 [ms]
[INFO] ConstrainPressure: 0.005 [ms]
[INFO] MatrixAssemblyPII: 131.673 [ms]
[OGL LOG][Proc: 0]: global_index_init: 0.059 [ms]
[OGL LOG][Proc: 0]p_local_coeffs: call_update: 0 [ms]
[OGL LOG][Proc: 0]p_non_local_coeffs: call_update: 0 [ms]
[OGL LOG][Proc: 0]p: update_local_matrix_data: 108.689 [ms]
[OGL LOG][Proc: 0]p: update_non_local_matrix_data: 2.46 [ms]
[OGL LOG][Proc: 0]p: regenerate_distributed_matrix: 328.348 [ms]
[OGL LOG][Proc: 0]p_matrix: call_update: 332.334 [ms]
[OGL LOG][Proc: 0]p_rhs: call_update: 13.606 [ms]
[OGL LOG][Preconditioner.H:346] Generate preconditioner Multigrid MaxLevels 9 MinCoarseRows 10 ZeroGuess 1 Cycle v
[OGL LOG][Proc: 0]p: init_precond: 3126.57 [ms]
[OGL LOG][StoppingCriterion.H:239] Creating stopping criterion with minIter 245 frequency 5
[OGL LOG][Proc: 0]p: generate_solver: 0.012 [ms]
[OGL LOG][Proc: 0]p: solve: 47534.4 [ms]
[OGL LOG][Proc: 0]p: copy_x_back: 4.286 [ms]
[OGL LOG][lduLduBase.H:330] 
Statistics:
	Time per iteration: 77166 [mu s]
	Time per residual norm calculation: 12905.000000 [mu s]
	Time per iteration and DOF: 1.205719 [ns]
	Retrieve results bandwidth 1.609000 [GByte/s]
[OGL LOG][Proc: 0]p: solve_multi_gpu: 51274.1 [ms]
MultigridcudaGKOCG:  Solving for p, Initial residual = 0.948742, Final residual = 9.75712e-05, No Iterations 616
[INFO] SolveP: 51412.2 [ms]
time step continuity errors : sum local = 1.01476e-08, global = 3.94037e-21, cumulative = 1.64685e-20
[INFO] ContinuityError: 55.751 [ms]
[INFO] CorrectBoundary: 5.812 [ms]
[INFO] PISOStep: 52373.5 [ms]
[INFO] MatrixAssemblyPI: 542.82 [ms]
[INFO] AdjustPhi: 21.613 [ms]
[INFO] ConstrainPressure: 0.003 [ms]
[INFO] MatrixAssemblyPII: 133.791 [ms]
[OGL LOG][Proc: 0]: global_index_init: 0.12 [ms]
[OGL LOG][Proc: 0]p_local_coeffs: call_update: 0 [ms]
[OGL LOG][Proc: 0]p_non_local_coeffs: call_update: 0 [ms]
[OGL LOG][Proc: 0]p: update_local_matrix_data: 108.704 [ms]
[OGL LOG][Proc: 0]p: update_non_local_matrix_data: 2.595 [ms]
[OGL LOG][Proc: 0]p: regenerate_distributed_matrix: 329.041 [ms]
[OGL LOG][Proc: 0]p_matrix: call_update: 335.628 [ms]
[OGL LOG][Proc: 0]p_rhs: call_update: 12.174 [ms]
[OGL LOG][Preconditioner.H:346] Generate preconditioner Multigrid MaxLevels 9 MinCoarseRows 10 ZeroGuess 1 Cycle v
[OGL LOG][Proc: 0]p: init_precond: 2346.19 [ms]
[OGL LOG][StoppingCriterion.H:239] Creating stopping criterion with minIter 369 frequency 7
[OGL LOG][Proc: 0]p: generate_solver: 0.01 [ms]
[OGL LOG][Proc: 0]p: solve: 47901.7 [ms]
[OGL LOG][Proc: 0]p: copy_x_back: 6.018 [ms]
[OGL LOG][lduLduBase.H:330] 
Statistics:
	Time per iteration: 77636 [mu s]
	Time per residual norm calculation: 11697.000000 [mu s]
	Time per iteration and DOF: 1.213062 [ns]
	Retrieve results bandwidth 1.145000 [GByte/s]
[OGL LOG][Proc: 0]p: solve_multi_gpu: 50864.1 [ms]
MultigridcudaGKOCG:  Solving for p, Initial residual = 0.88914, Final residual = 9.26887e-05, No Iterations 617
[INFO] SolveP: 51001 [ms]
time step continuity errors : sum local = 9.55604e-09, global = 3.09118e-21, cumulative = 1.95597e-20
[INFO] ContinuityError: 65.127 [ms]
[INFO] CorrectBoundary: 2.026 [ms]
[INFO] PISOStep: 51969.8 [ms]
[INFO] TimeStep: 108279 [ms]
ExecutionTime = 363.72 s  ClockTime = 384 s

Time = 0.0005

Courant Number mean: 0.0202124 max: 0.476376
[INFO] MatrixAssemblyU: 442.018 [ms]
DILUPBiCGStab:  Solving for Ux, Initial residual = 0.0415006, Final residual = 0.00616284, No Iterations 5
DILUPBiCGStab:  Solving for Uy, Initial residual = 0.211184, Final residual = 0.0273871, No Iterations 5
DILUPBiCGStab:  Solving for Uz, Initial residual = 0.77065, Final residual = 0.0766644, No Iterations 5
[INFO] MomentumPredictor: 3438.1 [ms]
[INFO] MatrixAssemblyPI: 554.278 [ms]
[INFO] AdjustPhi: 18.734 [ms]
[INFO] ConstrainPressure: 0.003 [ms]
[INFO] MatrixAssemblyPII: 131.902 [ms]
[OGL LOG][Proc: 0]: global_index_init: 0.076 [ms]
[OGL LOG][Proc: 0]p_local_coeffs: call_update: 0 [ms]
[OGL LOG][Proc: 0]p_non_local_coeffs: call_update: 0 [ms]
[OGL LOG][Proc: 0]p: update_local_matrix_data: 108.578 [ms]
[OGL LOG][Proc: 0]p: update_non_local_matrix_data: 2.705 [ms]
[OGL LOG][Proc: 0]p: regenerate_distributed_matrix: 322.901 [ms]
[OGL LOG][Proc: 0]p_matrix: call_update: 333.698 [ms]
[OGL LOG][Proc: 0]p_rhs: call_update: 11.537 [ms]
[OGL LOG][Preconditioner.H:346] Generate preconditioner Multigrid MaxLevels 9 MinCoarseRows 10 ZeroGuess 1 Cycle v
[OGL LOG][Proc: 0]p: init_precond: 3078.84 [ms]
[OGL LOG][StoppingCriterion.H:239] Creating stopping criterion with minIter 370 frequency 6
[OGL LOG][Proc: 0]p: generate_solver: 0.009 [ms]
[OGL LOG][Proc: 0]p: solve: 50357.8 [ms]
[OGL LOG][Proc: 0]p: copy_x_back: 4.157 [ms]
[OGL LOG][lduLduBase.H:330] 
Statistics:
	Time per iteration: 76184 [mu s]
	Time per residual norm calculation: 12331.000000 [mu s]
	Time per iteration and DOF: 1.190375 [ns]
	Retrieve results bandwidth 1.658000 [GByte/s]
[OGL LOG][Proc: 0]p: solve_multi_gpu: 53982.3 [ms]
MultigridcudaGKOCG:  Solving for p, Initial residual = 0.945499, Final residual = 7.52209e-05, No Iterations 661
[INFO] SolveP: 54246.8 [ms]
time step continuity errors : sum local = 9.38248e-09, global = 2.69312e-21, cumulative = 2.22528e-20
[INFO] ContinuityError: 66.861 [ms]
[INFO] CorrectBoundary: 7.203 [ms]
[INFO] PISOStep: 55210.6 [ms]
[INFO] MatrixAssemblyPI: 543.146 [ms]
[INFO] AdjustPhi: 35.35 [ms]
[INFO] ConstrainPressure: 0.003 [ms]
[INFO] MatrixAssemblyPII: 135.971 [ms]
[OGL LOG][Proc: 0]: global_index_init: 0.523 [ms]
[OGL LOG][Proc: 0]p_local_coeffs: call_update: 0 [ms]
[OGL LOG][Proc: 0]p_non_local_coeffs: call_update: 0 [ms]
[OGL LOG][Proc: 0]p: update_local_matrix_data: 107.42 [ms]
[OGL LOG][Proc: 0]p: update_non_local_matrix_data: 2.526 [ms]
[OGL LOG][Proc: 0]p: regenerate_distributed_matrix: 336.151 [ms]
[OGL LOG][Proc: 0]p_matrix: call_update: 344.497 [ms]
[OGL LOG][Proc: 0]p_rhs: call_update: 8.08 [ms]
[OGL LOG][Preconditioner.H:346] Generate preconditioner Multigrid MaxLevels 9 MinCoarseRows 10 ZeroGuess 1 Cycle v
[OGL LOG][Proc: 0]p: init_precond: 3122.89 [ms]
[OGL LOG][StoppingCriterion.H:239] Creating stopping criterion with minIter 396 frequency 6
[OGL LOG][Proc: 0]p: generate_solver: 0.011 [ms]
[OGL LOG][Proc: 0]p: solve: 49825.8 [ms]
[OGL LOG][Proc: 0]p: copy_x_back: 6.548 [ms]
[OGL LOG][lduLduBase.H:330] 
Statistics:
	Time per iteration: 76069 [mu s]
	Time per residual norm calculation: 10777.000000 [mu s]
	Time per iteration and DOF: 1.188578 [ns]
	Retrieve results bandwidth 1.053000 [GByte/s]
[OGL LOG][Proc: 0]p: solve_multi_gpu: 53563.7 [ms]
MultigridcudaGKOCG:  Solving for p, Initial residual = 0.867093, Final residual = 9.77732e-05, No Iterations 655
[INFO] SolveP: 53703.6 [ms]
time step continuity errors : sum local = 1.24079e-08, global = 3.42559e-21, cumulative = 2.56784e-20
[INFO] ContinuityError: 59.316 [ms]
[INFO] CorrectBoundary: 4.219 [ms]
[INFO] PISOStep: 54679.9 [ms]
[INFO] TimeStep: 113827 [ms]
ExecutionTime = 476.93 s  ClockTime = 497 s

Time = 0.000625

Courant Number mean: 0.0232266 max: 0.551959
[INFO] MatrixAssemblyU: 437.455 [ms]
DILUPBiCGStab:  Solving for Ux, Initial residual = 0.0372823, Final residual = 0.00564076, No Iterations 5
DILUPBiCGStab:  Solving for Uy, Initial residual = 0.181148, Final residual = 0.02248, No Iterations 5
DILUPBiCGStab:  Solving for Uz, Initial residual = 0.734567, Final residual = 0.063946, No Iterations 5
[INFO] MomentumPredictor: 3370.42 [ms]
[INFO] MatrixAssemblyPI: 556.268 [ms]
[INFO] AdjustPhi: 19.668 [ms]
[INFO] ConstrainPressure: 0.004 [ms]
[INFO] MatrixAssemblyPII: 129.774 [ms]
[OGL LOG][Proc: 0]: global_index_init: 0.057 [ms]
[OGL LOG][Proc: 0]p_local_coeffs: call_update: 0 [ms]
[OGL LOG][Proc: 0]p_non_local_coeffs: call_update: 0 [ms]
[OGL LOG][Proc: 0]p: update_local_matrix_data: 110.018 [ms]
[OGL LOG][Proc: 0]p: update_non_local_matrix_data: 2.68 [ms]
[OGL LOG][Proc: 0]p: regenerate_distributed_matrix: 337.373 [ms]
[OGL LOG][Proc: 0]p_matrix: call_update: 339.568 [ms]
[OGL LOG][Proc: 0]p_rhs: call_update: 22.543 [ms]
[OGL LOG][Preconditioner.H:346] Generate preconditioner Multigrid MaxLevels 9 MinCoarseRows 10 ZeroGuess 1 Cycle v
[OGL LOG][Proc: 0]p: init_precond: 3136.71 [ms]
[OGL LOG][StoppingCriterion.H:239] Creating stopping criterion with minIter 393 frequency 6
[OGL LOG][Proc: 0]p: generate_solver: 0.01 [ms]
[OGL LOG][Proc: 0]p: solve: 45783.7 [ms]
[OGL LOG][Proc: 0]p: copy_x_back: 4.861 [ms]
[OGL LOG][lduLduBase.H:330] 
Statistics:
	Time per iteration: 76179 [mu s]
	Time per residual norm calculation: 11226.000000 [mu s]
	Time per iteration and DOF: 1.190297 [ns]
	Retrieve results bandwidth 1.418000 [GByte/s]
[OGL LOG][Proc: 0]p: solve_multi_gpu: 49548.4 [ms]
MultigridcudaGKOCG:  Solving for p, Initial residual = 0.959233, Final residual = 7.85487e-05, No Iterations 601
[INFO] SolveP: 49683.9 [ms]
time step continuity errors : sum local = 1.10412e-08, global = 3.0207e-21, cumulative = 2.86991e-20
[INFO] ContinuityError: 64.495 [ms]
[INFO] CorrectBoundary: 9.693 [ms]
[INFO] PISOStep: 50653.8 [ms]
[INFO] MatrixAssemblyPI: 543.342 [ms]
[INFO] AdjustPhi: 18.297 [ms]
[INFO] ConstrainPressure: 0.004 [ms]
[INFO] MatrixAssemblyPII: 134.903 [ms]
[OGL LOG][Proc: 0]: global_index_init: 0.079 [ms]
[OGL LOG][Proc: 0]p_local_coeffs: call_update: 0 [ms]
[OGL LOG][Proc: 0]p_non_local_coeffs: call_update: 0 [ms]
[OGL LOG][Proc: 0]p: update_local_matrix_data: 108.847 [ms]
[OGL LOG][Proc: 0]p: update_non_local_matrix_data: 2.758 [ms]
[OGL LOG][Proc: 0]p: regenerate_distributed_matrix: 325.12 [ms]
[OGL LOG][Proc: 0]p_matrix: call_update: 334.667 [ms]
[OGL LOG][Proc: 0]p_rhs: call_update: 16.065 [ms]
[OGL LOG][Preconditioner.H:346] Generate preconditioner Multigrid MaxLevels 9 MinCoarseRows 10 ZeroGuess 1 Cycle v
[OGL LOG][Proc: 0]p: init_precond: 2460.05 [ms]
[OGL LOG][StoppingCriterion.H:239] Creating stopping criterion with minIter 360 frequency 6
[OGL LOG][Proc: 0]p: generate_solver: 0.011 [ms]
[OGL LOG][Proc: 0]p: solve: 46415.3 [ms]
[OGL LOG][Proc: 0]p: copy_x_back: 4.899 [ms]
[OGL LOG][lduLduBase.H:330] 
Statistics:
	Time per iteration: 77230 [mu s]
	Time per residual norm calculation: 10786.000000 [mu s]
	Time per iteration and DOF: 1.206719 [ns]
	Retrieve results bandwidth 1.407000 [GByte/s]
[OGL LOG][Proc: 0]p: solve_multi_gpu: 49489.5 [ms]
MultigridcudaGKOCG:  Solving for p, Initial residual = 0.899194, Final residual = 7.57582e-05, No Iterations 601
[INFO] SolveP: 49625.2 [ms]
time step continuity errors : sum local = 1.05932e-08, global = 3.94753e-21, cumulative = 3.26466e-20
[INFO] ContinuityError: 60.284 [ms]
[INFO] CorrectBoundary: 4.079 [ms]
[INFO] PISOStep: 50584.3 [ms]
[INFO] TimeStep: 105101 [ms]
ExecutionTime = 580.26 s  ClockTime = 603 s

Time = 0.00075

Courant Number mean: 0.0255279 max: 0.481971
[INFO] MatrixAssemblyU: 448.994 [ms]
DILUPBiCGStab:  Solving for Ux, Initial residual = 0.0349204, Final residual = 0.00525073, No Iterations 5
DILUPBiCGStab:  Solving for Uy, Initial residual = 0.166882, Final residual = 0.0192443, No Iterations 5
DILUPBiCGStab:  Solving for Uz, Initial residual = 0.676497, Final residual = 0.0544584, No Iterations 5
[INFO] MomentumPredictor: 3410.45 [ms]
[INFO] MatrixAssemblyPI: 539.77 [ms]
[INFO] AdjustPhi: 57.004 [ms]
[INFO] ConstrainPressure: 0.003 [ms]
[INFO] MatrixAssemblyPII: 130.571 [ms]
[OGL LOG][Proc: 0]: global_index_init: 0.507 [ms]
[OGL LOG][Proc: 0]p_local_coeffs: call_update: 0 [ms]
[OGL LOG][Proc: 0]p_non_local_coeffs: call_update: 0 [ms]
[OGL LOG][Proc: 0]p: update_local_matrix_data: 110.481 [ms]
[OGL LOG][Proc: 0]p: update_non_local_matrix_data: 2.52 [ms]
[OGL LOG][Proc: 0]p: regenerate_distributed_matrix: 335.217 [ms]
[OGL LOG][Proc: 0]p_matrix: call_update: 342.389 [ms]
[OGL LOG][Proc: 0]p_rhs: call_update: 5.839 [ms]
[OGL LOG][Preconditioner.H:346] Generate preconditioner Multigrid MaxLevels 9 MinCoarseRows 10 ZeroGuess 1 Cycle v
[OGL LOG][Proc: 0]p: init_precond: 3171.22 [ms]
[OGL LOG][StoppingCriterion.H:239] Creating stopping criterion with minIter 360 frequency 5
[OGL LOG][Proc: 0]p: generate_solver: 0.012 [ms]
[OGL LOG][Proc: 0]p: solve: 45812 [ms]
[OGL LOG][Proc: 0]p: copy_x_back: 6.113 [ms]
[OGL LOG][lduLduBase.H:330] 
Statistics:
	Time per iteration: 76226 [mu s]
	Time per residual norm calculation: 12474.000000 [mu s]
	Time per iteration and DOF: 1.191031 [ns]
	Retrieve results bandwidth 1.128000 [GByte/s]
[OGL LOG][Proc: 0]p: solve_multi_gpu: 49596.9 [ms]
MultigridcudaGKOCG:  Solving for p, Initial residual = 0.955845, Final residual = 8.55875e-05, No Iterations 601
[INFO] SolveP: 49736.1 [ms]
time step continuity errors : sum local = 1.37237e-08, global = 3.46578e-21, cumulative = 3.61124e-20
[INFO] ContinuityError: 56.483 [ms]
[INFO] CorrectBoundary: 5.892 [ms]
[INFO] PISOStep: 50731.5 [ms]
[INFO] MatrixAssemblyPI: 540.889 [ms]
[INFO] AdjustPhi: 21.545 [ms]
[INFO] ConstrainPressure: 0.004 [ms]
[INFO] MatrixAssemblyPII: 135.069 [ms]
[OGL LOG][Proc: 0]: global_index_init: 0.082 [ms]
[OGL LOG][Proc: 0]p_local_coeffs: call_update: 0 [ms]
[OGL LOG][Proc: 0]p_non_local_coeffs: call_update: 0 [ms]
[OGL LOG][Proc: 0]p: update_local_matrix_data: 110.856 [ms]
[OGL LOG][Proc: 0]p: update_non_local_matrix_data: 2.554 [ms]
[OGL LOG][Proc: 0]p: regenerate_distributed_matrix: 333.977 [ms]
[OGL LOG][Proc: 0]p_matrix: call_update: 339.657 [ms]
[OGL LOG][Proc: 0]p_rhs: call_update: 11.326 [ms]
[OGL LOG][Preconditioner.H:346] Generate preconditioner Multigrid MaxLevels 9 MinCoarseRows 10 ZeroGuess 1 Cycle v
[OGL LOG][Proc: 0]p: init_precond: 2639.28 [ms]
[OGL LOG][StoppingCriterion.H:239] Creating stopping criterion with minIter 360 frequency 6
[OGL LOG][Proc: 0]p: generate_solver: 0.01 [ms]
[OGL LOG][Proc: 0]p: solve: 46261.2 [ms]
[OGL LOG][Proc: 0]p: copy_x_back: 6.732 [ms]
[OGL LOG][lduLduBase.H:330] 
Statistics:
	Time per iteration: 76973 [mu s]
	Time per residual norm calculation: 11546.000000 [mu s]
	Time per iteration and DOF: 1.202703 [ns]
	Retrieve results bandwidth 1.024000 [GByte/s]
[OGL LOG][Proc: 0]p: solve_multi_gpu: 49518.4 [ms]
MultigridcudaGKOCG:  Solving for p, Initial residual = 0.879331, Final residual = 8.15481e-05, No Iterations 601
[INFO] SolveP: 49658.7 [ms]
time step continuity errors : sum local = 1.3266e-08, global = 4.1464e-21, cumulative = 4.02588e-20
[INFO] ContinuityError: 54.101 [ms]
[INFO] CorrectBoundary: 5.577 [ms]
[INFO] PISOStep: 50614.9 [ms]
[INFO] TimeStep: 105261 [ms]
ExecutionTime = 685.03 s  ClockTime = 708 s

Time = 0.000875

Courant Number mean: 0.0276753 max: 0.602672
[INFO] MatrixAssemblyU: 425.393 [ms]
DILUPBiCGStab:  Solving for Ux, Initial residual = 0.0342926, Final residual = 0.00497308, No Iterations 5
DILUPBiCGStab:  Solving for Uy, Initial residual = 0.170091, Final residual = 0.0182162, No Iterations 5
DILUPBiCGStab:  Solving for Uz, Initial residual = 0.678347, Final residual = 0.0519939, No Iterations 5
[INFO] MomentumPredictor: 3389.64 [ms]
[INFO] MatrixAssemblyPI: 554.19 [ms]
[INFO] AdjustPhi: 29.583 [ms]
[INFO] ConstrainPressure: 0.003 [ms]
[INFO] MatrixAssemblyPII: 131.083 [ms]
[OGL LOG][Proc: 0]: global_index_init: 0.824 [ms]
[OGL LOG][Proc: 0]p_local_coeffs: call_update: 0 [ms]
[OGL LOG][Proc: 0]p_non_local_coeffs: call_update: 0 [ms]
[OGL LOG][Proc: 0]p: update_local_matrix_data: 89.103 [ms]
[OGL LOG][Proc: 0]p: update_non_local_matrix_data: 2.72 [ms]
[OGL LOG][Proc: 0]p: regenerate_distributed_matrix: 314.958 [ms]
[OGL LOG][Proc: 0]p_matrix: call_update: 319.094 [ms]
[OGL LOG][Proc: 0]p_rhs: call_update: 39.21 [ms]
[OGL LOG][Preconditioner.H:346] Generate preconditioner Multigrid MaxLevels 9 MinCoarseRows 10 ZeroGuess 1 Cycle v
[OGL LOG][Proc: 0]p: init_precond: 3120.03 [ms]
[OGL LOG][StoppingCriterion.H:239] Creating stopping criterion with minIter 360 frequency 6
[OGL LOG][Proc: 0]p: generate_solver: 0.019 [ms]
[OGL LOG][Proc: 0]p: solve: 43295.8 [ms]
[OGL LOG][Proc: 0]p: copy_x_back: 7.422 [ms]
[OGL LOG][lduLduBase.H:330] 
Statistics:
	Time per iteration: 75824 [mu s]
	Time per residual norm calculation: 12336.000000 [mu s]
	Time per iteration and DOF: 1.184750 [ns]
	Retrieve results bandwidth 0.929000 [GByte/s]
[OGL LOG][Proc: 0]p: solve_multi_gpu: 47060.9 [ms]
MultigridcudaGKOCG:  Solving for p, Initial residual = 0.965566, Final residual = 8.14532e-05, No Iterations 571
[INFO] SolveP: 47187 [ms]
time step continuity errors : sum local = 1.45074e-08, global = 3.98321e-21, cumulative = 4.4242e-20
[INFO] ContinuityError: 56.957 [ms]
[INFO] CorrectBoundary: 4.774 [ms]
[INFO] PISOStep: 48166.2 [ms]
[INFO] MatrixAssemblyPI: 540.086 [ms]
[INFO] AdjustPhi: 23.154 [ms]
[INFO] ConstrainPressure: 0.003 [ms]
[INFO] MatrixAssemblyPII: 137.326 [ms]
[OGL LOG][Proc: 0]: global_index_init: 0.06 [ms]
[OGL LOG][Proc: 0]p_local_coeffs: call_update: 0 [ms]
[OGL LOG][Proc: 0]p_non_local_coeffs: call_update: 0 [ms]
[OGL LOG][Proc: 0]p: update_local_matrix_data: 110.589 [ms]
[OGL LOG][Proc: 0]p: update_non_local_matrix_data: 2.654 [ms]
[OGL LOG][Proc: 0]p: regenerate_distributed_matrix: 330.755 [ms]
[OGL LOG][Proc: 0]p_matrix: call_update: 336.544 [ms]
[OGL LOG][Proc: 0]p_rhs: call_update: 13.723 [ms]
[OGL LOG][Preconditioner.H:346] Generate preconditioner Multigrid MaxLevels 9 MinCoarseRows 10 ZeroGuess 1 Cycle v
[OGL LOG][Proc: 0]p: init_precond: 3135.61 [ms]
[OGL LOG][StoppingCriterion.H:239] Creating stopping criterion with minIter 342 frequency 6
[OGL LOG][Proc: 0]p: generate_solver: 0.015 [ms]
[OGL LOG][Proc: 0]p: solve: 43366.2 [ms]
[OGL LOG][Proc: 0]p: copy_x_back: 6.969 [ms]
[OGL LOG][lduLduBase.H:330] 
Statistics:
	Time per iteration: 75947 [mu s]
	Time per residual norm calculation: 11582.000000 [mu s]
	Time per iteration and DOF: 1.186672 [ns]
	Retrieve results bandwidth 0.989000 [GByte/s]
[OGL LOG][Proc: 0]p: solve_multi_gpu: 47107.3 [ms]
MultigridcudaGKOCG:  Solving for p, Initial residual = 0.903435, Final residual = 8.25831e-05, No Iterations 571
[INFO] SolveP: 47260.9 [ms]
time step continuity errors : sum local = 1.46608e-08, global = 3.78126e-21, cumulative = 4.80233e-20
[INFO] ContinuityError: 54.974 [ms]
[INFO] CorrectBoundary: 6.507 [ms]
[INFO] PISOStep: 48220.3 [ms]
[INFO] TimeStep: 100256 [ms]
ExecutionTime = 784.78 s  ClockTime = 808 s

Time = 0.001

Courant Number mean: 0.029399 max: 0.489492
[INFO] MatrixAssemblyU: 426.29 [ms]
DILUPBiCGStab:  Solving for Ux, Initial residual = 0.0351245, Final residual = 0.00478724, No Iterations 5
DILUPBiCGStab:  Solving for Uy, Initial residual = 0.162514, Final residual = 0.0158112, No Iterations 5
DILUPBiCGStab:  Solving for Uz, Initial residual = 0.659195, Final residual = 0.045191, No Iterations 5
[INFO] MomentumPredictor: 3392.21 [ms]
[INFO] MatrixAssemblyPI: 554.006 [ms]
[INFO] AdjustPhi: 18.512 [ms]
[INFO] ConstrainPressure: 0.003 [ms]
[INFO] MatrixAssemblyPII: 132.157 [ms]
[OGL LOG][Proc: 0]: global_index_init: 0.13 [ms]
[OGL LOG][Proc: 0]p_local_coeffs: call_update: 0 [ms]
[OGL LOG][Proc: 0]p_non_local_coeffs: call_update: 0 [ms]
[OGL LOG][Proc: 0]p: update_local_matrix_data: 109.568 [ms]
[OGL LOG][Proc: 0]p: update_non_local_matrix_data: 3.071 [ms]
[OGL LOG][Proc: 0]p: regenerate_distributed_matrix: 331.508 [ms]
[OGL LOG][Proc: 0]p_matrix: call_update: 333.783 [ms]
[OGL LOG][Proc: 0]p_rhs: call_update: 13.882 [ms]
[OGL LOG][Preconditioner.H:346] Generate preconditioner Multigrid MaxLevels 9 MinCoarseRows 10 ZeroGuess 1 Cycle v
[OGL LOG][Proc: 0]p: init_precond: 3130 [ms]
[OGL LOG][StoppingCriterion.H:239] Creating stopping criterion with minIter 342 frequency 6
[OGL LOG][Proc: 0]p: generate_solver: 0.01 [ms]
[OGL LOG][Proc: 0]p: solve: 45219.4 [ms]
[OGL LOG][Proc: 0]p: copy_x_back: 7.076 [ms]
[OGL LOG][lduLduBase.H:330] 
Statistics:
	Time per iteration: 75998 [mu s]
	Time per residual norm calculation: 11957.000000 [mu s]
	Time per iteration and DOF: 1.187469 [ns]
	Retrieve results bandwidth 0.974000 [GByte/s]
[OGL LOG][Proc: 0]p: solve_multi_gpu: 48970.6 [ms]
MultigridcudaGKOCG:  Solving for p, Initial residual = 0.963054, Final residual = 7.88924e-05, No Iterations 595
[INFO] SolveP: 49103.3 [ms]
time step continuity errors : sum local = 1.58987e-08, global = 3.75972e-21, cumulative = 5.1783e-20
[INFO] ContinuityError: 91.527 [ms]
[INFO] CorrectBoundary: 3.972 [ms]
[INFO] PISOStep: 50081.9 [ms]
[INFO] MatrixAssemblyPI: 537.562 [ms]
[INFO] AdjustPhi: 37.769 [ms]
[INFO] ConstrainPressure: 0.003 [ms]
[INFO] MatrixAssemblyPII: 134.16 [ms]
[OGL LOG][Proc: 0]: global_index_init: 1.135 [ms]
[OGL LOG][Proc: 0]p_local_coeffs: call_update: 0 [ms]
[OGL LOG][Proc: 0]p_non_local_coeffs: call_update: 0 [ms]
[OGL LOG][Proc: 0]p: update_local_matrix_data: 109.275 [ms]
[OGL LOG][Proc: 0]p: update_non_local_matrix_data: 2.491 [ms]
[OGL LOG][Proc: 0]p: regenerate_distributed_matrix: 342.802 [ms]
[OGL LOG][Proc: 0]p_matrix: call_update: 347.796 [ms]
[OGL LOG][Proc: 0]p_rhs: call_update: 9.79 [ms]
[OGL LOG][Preconditioner.H:346] Generate preconditioner Multigrid MaxLevels 9 MinCoarseRows 10 ZeroGuess 1 Cycle v
[OGL LOG][Proc: 0]p: init_precond: 3137.07 [ms]
[OGL LOG][StoppingCriterion.H:239] Creating stopping criterion with minIter 357 frequency 6
[OGL LOG][Proc: 0]p: generate_solver: 0.012 [ms]
[OGL LOG][Proc: 0]p: solve: 45239 [ms]
[OGL LOG][Proc: 0]p: copy_x_back: 5.421 [ms]
[OGL LOG][lduLduBase.H:330] 
Statistics:
	Time per iteration: 76031 [mu s]
	Time per residual norm calculation: 12008.000000 [mu s]
	Time per iteration and DOF: 1.187984 [ns]
	Retrieve results bandwidth 1.272000 [GByte/s]
[OGL LOG][Proc: 0]p: solve_multi_gpu: 48996.3 [ms]
MultigridcudaGKOCG:  Solving for p, Initial residual = 0.886643, Final residual = 7.41262e-05, No Iterations 595
[INFO] SolveP: 49136.7 [ms]
time step continuity errors : sum local = 1.51403e-08, global = 4.39555e-21, cumulative = 5.61786e-20
[INFO] ContinuityError: 61.392 [ms]
[INFO] CorrectBoundary: 6.313 [ms]
[INFO] PISOStep: 50113.8 [ms]
[INFO] TimeStep: 104071 [ms]
ExecutionTime = 888.33 s  ClockTime = 912 s

Time = 0.001125

Courant Number mean: 0.0311543 max: 0.675183
[INFO] MatrixAssemblyU: 448.233 [ms]
DILUPBiCGStab:  Solving for Ux, Initial residual = 0.0357884, Final residual = 0.00450636, No Iterations 5
DILUPBiCGStab:  Solving for Uy, Initial residual = 0.176784, Final residual = 0.0162777, No Iterations 5
DILUPBiCGStab:  Solving for Uz, Initial residual = 0.668922, Final residual = 0.0432027, No Iterations 5
[INFO] MomentumPredictor: 3403.45 [ms]
[INFO] MatrixAssemblyPI: 550.966 [ms]
[INFO] AdjustPhi: 50.738 [ms]
[INFO] ConstrainPressure: 0.003 [ms]
[INFO] MatrixAssemblyPII: 131.452 [ms]
[OGL LOG][Proc: 0]: global_index_init: 0.286 [ms]
[OGL LOG][Proc: 0]p_local_coeffs: call_update: 0 [ms]
[OGL LOG][Proc: 0]p_non_local_coeffs: call_update: 0 [ms]
[OGL LOG][Proc: 0]p: update_local_matrix_data: 109.396 [ms]
[OGL LOG][Proc: 0]p: update_non_local_matrix_data: 2.627 [ms]
[OGL LOG][Proc: 0]p: regenerate_distributed_matrix: 348.572 [ms]
[OGL LOG][Proc: 0]p_matrix: call_update: 352.392 [ms]
[OGL LOG][Proc: 0]p_rhs: call_update: 10.075 [ms]
[OGL LOG][Preconditioner.H:346] Generate preconditioner Multigrid MaxLevels 9 MinCoarseRows 10 ZeroGuess 1 Cycle v
[OGL LOG][Proc: 0]p: init_precond: 2455.75 [ms]
[OGL LOG][StoppingCriterion.H:239] Creating stopping criterion with minIter 357 frequency 6
[OGL LOG][Proc: 0]p: generate_solver: 0.01 [ms]
[OGL LOG][Proc: 0]p: solve: 44021 [ms]
[OGL LOG][Proc: 0]p: copy_x_back: 3.816 [ms]
[OGL LOG][lduLduBase.H:330] 
Statistics:
	Time per iteration: 77094 [mu s]
	Time per residual norm calculation: 12901.000000 [mu s]
	Time per iteration and DOF: 1.204594 [ns]
	Retrieve results bandwidth 1.807000 [GByte/s]
[OGL LOG][Proc: 0]p: solve_multi_gpu: 47103.6 [ms]
MultigridcudaGKOCG:  Solving for p, Initial residual = 0.970222, Final residual = 9.35348e-05, No Iterations 571
[INFO] SolveP: 47237.2 [ms]
time step continuity errors : sum local = 2.11789e-08, global = 3.67669e-21, cumulative = 5.98552e-20
[INFO] ContinuityError: 62.991 [ms]
[INFO] CorrectBoundary: 4.686 [ms]
[INFO] PISOStep: 48237.7 [ms]
[INFO] MatrixAssemblyPI: 541.163 [ms]
[INFO] AdjustPhi: 26.719 [ms]
[INFO] ConstrainPressure: 0.003 [ms]
[INFO] MatrixAssemblyPII: 133.543 [ms]
[OGL LOG][Proc: 0]: global_index_init: 0.388 [ms]
[OGL LOG][Proc: 0]p_local_coeffs: call_update: 0 [ms]
[OGL LOG][Proc: 0]p_non_local_coeffs: call_update: 0 [ms]
[OGL LOG][Proc: 0]p: update_local_matrix_data: 108.359 [ms]
[OGL LOG][Proc: 0]p: update_non_local_matrix_data: 2.422 [ms]
[OGL LOG][Proc: 0]p: regenerate_distributed_matrix: 340.912 [ms]
[OGL LOG][Proc: 0]p_matrix: call_update: 347.596 [ms]
[OGL LOG][Proc: 0]p_rhs: call_update: 8.441 [ms]
[OGL LOG][Preconditioner.H:346] Generate preconditioner Multigrid MaxLevels 9 MinCoarseRows 10 ZeroGuess 1 Cycle v
[OGL LOG][Proc: 0]p: init_precond: 3042.78 [ms]
[OGL LOG][StoppingCriterion.H:239] Creating stopping criterion with minIter 342 frequency 6
[OGL LOG][Proc: 0]p: generate_solver: 0.017 [ms]
[OGL LOG][Proc: 0]p: solve: 44859.6 [ms]
[OGL LOG][Proc: 0]p: copy_x_back: 4.752 [ms]
[OGL LOG][lduLduBase.H:330] 
Statistics:
	Time per iteration: 76162 [mu s]
	Time per residual norm calculation: 13505.000000 [mu s]
	Time per iteration and DOF: 1.190031 [ns]
	Retrieve results bandwidth 1.451000 [GByte/s]
[OGL LOG][Proc: 0]p: solve_multi_gpu: 48525.2 [ms]
MultigridcudaGKOCG:  Solving for p, Initial residual = 0.906324, Final residual = 9.48405e-05, No Iterations 589
[INFO] SolveP: 48658.8 [ms]
time step continuity errors : sum local = 2.14437e-08, global = 3.90992e-21, cumulative = 6.37652e-20
[INFO] ContinuityError: 58.773 [ms]
[INFO] CorrectBoundary: 8.288 [ms]
[INFO] PISOStep: 49626.2 [ms]
[INFO] TimeStep: 101771 [ms]
ExecutionTime = 989.61 s  ClockTime = 1014 s

Time = 0.00125

Courant Number mean: 0.0325501 max: 0.503089
[INFO] MatrixAssemblyU: 436.029 [ms]
DILUPBiCGStab:  Solving for Ux, Initial residual = 0.0384817, Final residual = 0.00457186, No Iterations 5
DILUPBiCGStab:  Solving for Uy, Initial residual = 0.174267, Final residual = 0.0145717, No Iterations 5
DILUPBiCGStab:  Solving for Uz, Initial residual = 0.67269, Final residual = 0.0445054, No Iterations 5
[INFO] MomentumPredictor: 3434.01 [ms]
[INFO] MatrixAssemblyPI: 555.3 [ms]
[INFO] AdjustPhi: 19.267 [ms]
[INFO] ConstrainPressure: 0.003 [ms]
[INFO] MatrixAssemblyPII: 131.303 [ms]
[OGL LOG][Proc: 0]: global_index_init: 0.117 [ms]
[OGL LOG][Proc: 0]p_local_coeffs: call_update: 0 [ms]
[OGL LOG][Proc: 0]p_non_local_coeffs: call_update: 0 [ms]
[OGL LOG][Proc: 0]p: update_local_matrix_data: 109.153 [ms]
[OGL LOG][Proc: 0]p: update_non_local_matrix_data: 2.559 [ms]
[OGL LOG][Proc: 0]p: regenerate_distributed_matrix: 328.895 [ms]
[OGL LOG][Proc: 0]p_matrix: call_update: 334.413 [ms]
[OGL LOG][Proc: 0]p_rhs: call_update: 10.909 [ms]
[OGL LOG][Preconditioner.H:346] Generate preconditioner Multigrid MaxLevels 9 MinCoarseRows 10 ZeroGuess 1 Cycle v
[OGL LOG][Proc: 0]p: init_precond: 3017.21 [ms]
[OGL LOG][StoppingCriterion.H:239] Creating stopping criterion with minIter 353 frequency 6
[OGL LOG][Proc: 0]p: generate_solver: 0.016 [ms]
[OGL LOG][Proc: 0]p: solve: 45949.6 [ms]
[OGL LOG][Proc: 0]p: copy_x_back: 7.794 [ms]
[OGL LOG][lduLduBase.H:330] 
Statistics:
	Time per iteration: 76455 [mu s]
	Time per residual norm calculation: 11272.000000 [mu s]
	Time per iteration and DOF: 1.194609 [ns]
	Retrieve results bandwidth 0.884000 [GByte/s]
[OGL LOG][Proc: 0]p: solve_multi_gpu: 49582.5 [ms]
MultigridcudaGKOCG:  Solving for p, Initial residual = 0.969279, Final residual = 6.34933e-05, No Iterations 601
[INFO] SolveP: 49720.2 [ms]
time step continuity errors : sum local = 1.64766e-08, global = 4.80395e-21, cumulative = 6.85691e-20
[INFO] ContinuityError: 57.374 [ms]
[INFO] CorrectBoundary: 4.899 [ms]
[INFO] PISOStep: 50687.4 [ms]
[INFO] MatrixAssemblyPI: 537.552 [ms]
[INFO] AdjustPhi: 24.384 [ms]
[INFO] ConstrainPressure: 0.003 [ms]
[INFO] MatrixAssemblyPII: 135.661 [ms]
[OGL LOG][Proc: 0]: global_index_init: 0.064 [ms]
[OGL LOG][Proc: 0]p_local_coeffs: call_update: 0 [ms]
[OGL LOG][Proc: 0]p_non_local_coeffs: call_update: 0 [ms]
[OGL LOG][Proc: 0]p: update_local_matrix_data: 109.092 [ms]
[OGL LOG][Proc: 0]p: update_non_local_matrix_data: 2.878 [ms]
[OGL LOG][Proc: 0]p: regenerate_distributed_matrix: 325.811 [ms]
[OGL LOG][Proc: 0]p_matrix: call_update: 333.937 [ms]
[OGL LOG][Proc: 0]p_rhs: call_update: 13.232 [ms]
[OGL LOG][Preconditioner.H:346] Generate preconditioner Multigrid MaxLevels 9 MinCoarseRows 10 ZeroGuess 1 Cycle v
[OGL LOG][Proc: 0]p: init_precond: 2968.24 [ms]
[OGL LOG][StoppingCriterion.H:239] Creating stopping criterion with minIter 360 frequency 6
[OGL LOG][Proc: 0]p: generate_solver: 0.009 [ms]
[OGL LOG][Proc: 0]p: solve: 45666.4 [ms]
[OGL LOG][Proc: 0]p: copy_x_back: 4.582 [ms]
[OGL LOG][lduLduBase.H:330] 
Statistics:
	Time per iteration: 76750 [mu s]
	Time per residual norm calculation: 13537.000000 [mu s]
	Time per iteration and DOF: 1.199219 [ns]
	Retrieve results bandwidth 1.505000 [GByte/s]
[OGL LOG][Proc: 0]p: solve_multi_gpu: 49248.5 [ms]
MultigridcudaGKOCG:  Solving for p, Initial residual = 0.89327, Final residual = 9.55782e-05, No Iterations 595
[INFO] SolveP: 49384.3 [ms]
time step continuity errors : sum local = 2.5111e-08, global = 5.13989e-21, cumulative = 7.3709e-20
[INFO] ContinuityError: 56.102 [ms]
[INFO] CorrectBoundary: 6.816 [ms]
[INFO] PISOStep: 50343 [ms]
[INFO] TimeStep: 104960 [ms]
ExecutionTime = 1093.68 s  ClockTime = 1119 s

Time = 0.001375

Courant Number mean: 0.0340903 max: 0.784387
[INFO] MatrixAssemblyU: 441.924 [ms]
DILUPBiCGStab:  Solving for Ux, Initial residual = 0.0404678, Final residual = 0.00436446, No Iterations 5
DILUPBiCGStab:  Solving for Uy, Initial residual = 0.194578, Final residual = 0.0155869, No Iterations 5
DILUPBiCGStab:  Solving for Uz, Initial residual = 0.68667, Final residual = 0.0417901, No Iterations 5
[INFO] MomentumPredictor: 3386.83 [ms]
[INFO] MatrixAssemblyPI: 553.965 [ms]
[INFO] AdjustPhi: 18.719 [ms]
[INFO] ConstrainPressure: 0.003 [ms]
[INFO] MatrixAssemblyPII: 132.251 [ms]
[OGL LOG][Proc: 0]: global_index_init: 0.176 [ms]
[OGL LOG][Proc: 0]p_local_coeffs: call_update: 0 [ms]
[OGL LOG][Proc: 0]p_non_local_coeffs: call_update: 0 [ms]
[OGL LOG][Proc: 0]p: update_local_matrix_data: 110.297 [ms]
[OGL LOG][Proc: 0]p: update_non_local_matrix_data: 2.512 [ms]
[OGL LOG][Proc: 0]p: regenerate_distributed_matrix: 335.568 [ms]
[OGL LOG][Proc: 0]p_matrix: call_update: 337.094 [ms]
[OGL LOG][Proc: 0]p_rhs: call_update: 10.364 [ms]
[OGL LOG][Preconditioner.H:346] Generate preconditioner Multigrid MaxLevels 9 MinCoarseRows 10 ZeroGuess 1 Cycle v
[OGL LOG][Proc: 0]p: init_precond: 2981.16 [ms]
[OGL LOG][StoppingCriterion.H:239] Creating stopping criterion with minIter 357 frequency 6
[OGL LOG][Proc: 0]p: generate_solver: 0.01 [ms]
[OGL LOG][Proc: 0]p: solve: 45473.7 [ms]
[OGL LOG][Proc: 0]p: copy_x_back: 6.366 [ms]
[OGL LOG][lduLduBase.H:330] 
Statistics:
	Time per iteration: 76426 [mu s]
	Time per residual norm calculation: 10958.000000 [mu s]
	Time per iteration and DOF: 1.194156 [ns]
	Retrieve results bandwidth 1.083000 [GByte/s]
[OGL LOG][Proc: 0]p: solve_multi_gpu: 49066.6 [ms]
MultigridcudaGKOCG:  Solving for p, Initial residual = 0.974525, Final residual = 8.93759e-05, No Iterations 595
[INFO] SolveP: 49204.4 [ms]
time step continuity errors : sum local = 2.64325e-08, global = 5.17943e-21, cumulative = 7.88884e-20
[INFO] ContinuityError: 62.841 [ms]
[INFO] CorrectBoundary: 5.256 [ms]
[INFO] PISOStep: 50175.3 [ms]
[INFO] MatrixAssemblyPI: 539.504 [ms]
[INFO] AdjustPhi: 20.043 [ms]
[INFO] ConstrainPressure: 0.003 [ms]
[INFO] MatrixAssemblyPII: 134.485 [ms]
[OGL LOG][Proc: 0]: global_index_init: 0.073 [ms]
[OGL LOG][Proc: 0]p_local_coeffs: call_update: 0 [ms]
[OGL LOG][Proc: 0]p_non_local_coeffs: call_update: 0 [ms]
[OGL LOG][Proc: 0]p: update_local_matrix_data: 108.936 [ms]
[OGL LOG][Proc: 0]p: update_non_local_matrix_data: 2.589 [ms]
[OGL LOG][Proc: 0]p: regenerate_distributed_matrix: 336.745 [ms]
[OGL LOG][Proc: 0]p_matrix: call_update: 338.674 [ms]
[OGL LOG][Proc: 0]p_rhs: call_update: 13.381 [ms]
[OGL LOG][Preconditioner.H:346] Generate preconditioner Multigrid MaxLevels 9 MinCoarseRows 10 ZeroGuess 1 Cycle v
[OGL LOG][Proc: 0]p: init_precond: 3093.77 [ms]
[OGL LOG][StoppingCriterion.H:239] Creating stopping criterion with minIter 357 frequency 6
[OGL LOG][Proc: 0]p: generate_solver: 0.01 [ms]
[OGL LOG][Proc: 0]p: solve: 45379.9 [ms]
[OGL LOG][Proc: 0]p: copy_x_back: 4.146 [ms]
[OGL LOG][lduLduBase.H:330] 
Statistics:
	Time per iteration: 76268 [mu s]
	Time per residual norm calculation: 11700.000000 [mu s]
	Time per iteration and DOF: 1.191688 [ns]
	Retrieve results bandwidth 1.663000 [GByte/s]
[OGL LOG][Proc: 0]p: solve_multi_gpu: 49143 [ms]
MultigridcudaGKOCG:  Solving for p, Initial residual = 0.909214, Final residual = 8.60401e-05, No Iterations 595
[INFO] SolveP: 49277.1 [ms]
time step continuity errors : sum local = 2.54528e-08, global = 4.65161e-21, cumulative = 8.35401e-20
[INFO] ContinuityError: 54.18 [ms]
[INFO] CorrectBoundary: 5.539 [ms]
[INFO] PISOStep: 50223.8 [ms]
[INFO] TimeStep: 104283 [ms]
ExecutionTime = 1197.25 s  ClockTime = 1223 s

Time = 0.0015

Courant Number mean: 0.035273 max: 0.541776
[INFO] MatrixAssemblyU: 435.551 [ms]
DILUPBiCGStab:  Solving for Ux, Initial residual = 0.0448433, Final residual = 0.00460373, No Iterations 5
DILUPBiCGStab:  Solving for Uy, Initial residual = 0.196645, Final residual = 0.0143935, No Iterations 5
DILUPBiCGStab:  Solving for Uz, Initial residual = 0.689938, Final residual = 0.0419546, No Iterations 5
[INFO] MomentumPredictor: 3461.23 [ms]
[INFO] MatrixAssemblyPI: 552.949 [ms]
[INFO] AdjustPhi: 25.675 [ms]
[INFO] ConstrainPressure: 0.003 [ms]
[INFO] MatrixAssemblyPII: 130.033 [ms]
[OGL LOG][Proc: 0]: global_index_init: 0.332 [ms]
[OGL LOG][Proc: 0]p_local_coeffs: call_update: 0 [ms]
[OGL LOG][Proc: 0]p_non_local_coeffs: call_update: 0 [ms]
[OGL LOG][Proc: 0]p: update_local_matrix_data: 107.478 [ms]
[OGL LOG][Proc: 0]p: update_non_local_matrix_data: 2.494 [ms]
[OGL LOG][Proc: 0]p: regenerate_distributed_matrix: 335.95 [ms]
[OGL LOG][Proc: 0]p_matrix: call_update: 341.935 [ms]
[OGL LOG][Proc: 0]p_rhs: call_update: 4.944 [ms]
[OGL LOG][Preconditioner.H:346] Generate preconditioner Multigrid MaxLevels 9 MinCoarseRows 10 ZeroGuess 1 Cycle v
[OGL LOG][Proc: 0]p: init_precond: 3007.3 [ms]
[OGL LOG][StoppingCriterion.H:239] Creating stopping criterion with minIter 357 frequency 6
[OGL LOG][Proc: 0]p: generate_solver: 0.01 [ms]
[OGL LOG][Proc: 0]p: solve: 45328.8 [ms]
[OGL LOG][Proc: 0]p: copy_x_back: 5.245 [ms]
[OGL LOG][lduLduBase.H:330] 
Statistics:
	Time per iteration: 76182 [mu s]
	Time per residual norm calculation: 12474.000000 [mu s]
	Time per iteration and DOF: 1.190344 [ns]
	Retrieve results bandwidth 1.314000 [GByte/s]
[OGL LOG][Proc: 0]p: solve_multi_gpu: 48952.4 [ms]
MultigridcudaGKOCG:  Solving for p, Initial residual = 0.97439, Final residual = 8.96908e-05, No Iterations 595
[INFO] SolveP: 49085 [ms]
time step continuity errors : sum local = 3.05909e-08, global = 6.62339e-21, cumulative = 9.01634e-20
[INFO] ContinuityError: 62.762 [ms]
[INFO] CorrectBoundary: 5.385 [ms]
[INFO] PISOStep: 50059.7 [ms]
[INFO] MatrixAssemblyPI: 543.236 [ms]
[INFO] AdjustPhi: 19.975 [ms]
[INFO] ConstrainPressure: 0.003 [ms]
[INFO] MatrixAssemblyPII: 137.622 [ms]
[OGL LOG][Proc: 0]: global_index_init: 0.354 [ms]
[OGL LOG][Proc: 0]p_local_coeffs: call_update: 0.001 [ms]
[OGL LOG][Proc: 0]p_non_local_coeffs: call_update: 0 [ms]
[OGL LOG][Proc: 0]p: update_local_matrix_data: 107.217 [ms]
[OGL LOG][Proc: 0]p: update_non_local_matrix_data: 2.718 [ms]
[OGL LOG][Proc: 0]p: regenerate_distributed_matrix: 338.314 [ms]
[OGL LOG][Proc: 0]p_matrix: call_update: 341.814 [ms]
[OGL LOG][Proc: 0]p_rhs: call_update: 8.238 [ms]
[OGL LOG][Preconditioner.H:346] Generate preconditioner Multigrid MaxLevels 9 MinCoarseRows 10 ZeroGuess 1 Cycle v
[OGL LOG][Proc: 0]p: init_precond: 3091.87 [ms]
[OGL LOG][StoppingCriterion.H:239] Creating stopping criterion with minIter 357 frequency 6
[OGL LOG][Proc: 0]p: generate_solver: 0.012 [ms]
[OGL LOG][Proc: 0]p: solve: 45282.9 [ms]
[OGL LOG][Proc: 0]p: copy_x_back: 5.236 [ms]
[OGL LOG][lduLduBase.H:330] 
Statistics:
	Time per iteration: 76105 [mu s]
	Time per residual norm calculation: 10911.000000 [mu s]
	Time per iteration and DOF: 1.189141 [ns]
	Retrieve results bandwidth 1.317000 [GByte/s]
[OGL LOG][Proc: 0]p: solve_multi_gpu: 48991.3 [ms]
MultigridcudaGKOCG:  Solving for p, Initial residual = 0.899617, Final residual = 8.59393e-05, No Iterations 595
[INFO] SolveP: 49123.9 [ms]
time step continuity errors : sum local = 2.96457e-08, global = 6.19357e-21, cumulative = 9.6357e-20
[INFO] ContinuityError: 64.219 [ms]
[INFO] CorrectBoundary: 7.189 [ms]
[INFO] PISOStep: 50086.3 [ms]
[INFO] TimeStep: 104105 [ms]
ExecutionTime = 1300.79 s  ClockTime = 1327 s

Time = 0.001625

Courant Number mean: 0.0366896 max: 1.04399
[INFO] MatrixAssemblyU: 423.429 [ms]
DILUPBiCGStab:  Solving for Ux, Initial residual = 0.0482562, Final residual = 0.00449416, No Iterations 5
DILUPBiCGStab:  Solving for Uy, Initial residual = 0.221305, Final residual = 0.0158114, No Iterations 5
DILUPBiCGStab:  Solving for Uz, Initial residual = 0.706325, Final residual = 0.0418303, No Iterations 5
[INFO] MomentumPredictor: 3392.64 [ms]
[INFO] MatrixAssemblyPI: 553.612 [ms]
[INFO] AdjustPhi: 18.909 [ms]
[INFO] ConstrainPressure: 0.003 [ms]
[INFO] MatrixAssemblyPII: 130.997 [ms]
[OGL LOG][Proc: 0]: global_index_init: 0.067 [ms]
[OGL LOG][Proc: 0]p_local_coeffs: call_update: 0 [ms]
[OGL LOG][Proc: 0]p_non_local_coeffs: call_update: 0 [ms]
[OGL LOG][Proc: 0]p: update_local_matrix_data: 106.917 [ms]
[OGL LOG][Proc: 0]p: update_non_local_matrix_data: 2.705 [ms]
[OGL LOG][Proc: 0]p: regenerate_distributed_matrix: 333.943 [ms]
[OGL LOG][Proc: 0]p_matrix: call_update: 337.151 [ms]
[OGL LOG][Proc: 0]p_rhs: call_update: 13.767 [ms]
[OGL LOG][Preconditioner.H:346] Generate preconditioner Multigrid MaxLevels 9 MinCoarseRows 10 ZeroGuess 1 Cycle v
[OGL LOG][Proc: 0]p: init_precond: 2643.9 [ms]
[OGL LOG][StoppingCriterion.H:239] Creating stopping criterion with minIter 357 frequency 6
[OGL LOG][Proc: 0]p: generate_solver: 0.01 [ms]
[OGL LOG][Proc: 0]p: solve: 45307.6 [ms]
[OGL LOG][Proc: 0]p: copy_x_back: 7.69 [ms]
[OGL LOG][lduLduBase.H:330] 
Statistics:
	Time per iteration: 76922 [mu s]
	Time per residual norm calculation: 11557.000000 [mu s]
	Time per iteration and DOF: 1.201906 [ns]
	Retrieve results bandwidth 0.896000 [GByte/s]
[OGL LOG][Proc: 0]p: solve_multi_gpu: 48561.9 [ms]
MultigridcudaGKOCG:  Solving for p, Initial residual = 0.978029, Final residual = 9.32037e-05, No Iterations 589
[INFO] SolveP: 48709.3 [ms]
time step continuity errors : sum local = 3.65701e-08, global = 4.82904e-21, cumulative = 1.01186e-19
[INFO] ContinuityError: 58.014 [ms]
[INFO] CorrectBoundary: 6.348 [ms]
[INFO] PISOStep: 49673.3 [ms]
[INFO] MatrixAssemblyPI: 543.302 [ms]
[INFO] AdjustPhi: 20.448 [ms]
[INFO] ConstrainPressure: 0.003 [ms]
[INFO] MatrixAssemblyPII: 136.779 [ms]
[OGL LOG][Proc: 0]: global_index_init: 0.061 [ms]
[OGL LOG][Proc: 0]p_local_coeffs: call_update: 0 [ms]
[OGL LOG][Proc: 0]p_non_local_coeffs: call_update: 0 [ms]
[OGL LOG][Proc: 0]p: update_local_matrix_data: 108.082 [ms]
[OGL LOG][Proc: 0]p: update_non_local_matrix_data: 2.474 [ms]
[OGL LOG][Proc: 0]p: regenerate_distributed_matrix: 335.962 [ms]
[OGL LOG][Proc: 0]p_matrix: call_update: 339.515 [ms]
[OGL LOG][Proc: 0]p_rhs: call_update: 11.447 [ms]
[OGL LOG][Preconditioner.H:346] Generate preconditioner Multigrid MaxLevels 9 MinCoarseRows 10 ZeroGuess 1 Cycle v
[OGL LOG][Proc: 0]p: init_precond: 2879.74 [ms]
[OGL LOG][StoppingCriterion.H:239] Creating stopping criterion with minIter 353 frequency 6
[OGL LOG][Proc: 0]p: generate_solver: 0.01 [ms]
[OGL LOG][Proc: 0]p: solve: 45164.7 [ms]
[OGL LOG][Proc: 0]p: copy_x_back: 6.432 [ms]
[OGL LOG][lduLduBase.H:330] 
Statistics:
	Time per iteration: 76680 [mu s]
	Time per residual norm calculation: 11249.000000 [mu s]
	Time per iteration and DOF: 1.198125 [ns]
	Retrieve results bandwidth 1.072000 [GByte/s]
[OGL LOG][Proc: 0]p: solve_multi_gpu: 48659.5 [ms]
MultigridcudaGKOCG:  Solving for p, Initial residual = 0.911903, Final residual = 9.68555e-05, No Iterations 589
[INFO] SolveP: 48791.8 [ms]
time step continuity errors : sum local = 3.80712e-08, global = 5.96732e-21, cumulative = 1.07153e-19
[INFO] ContinuityError: 66.27 [ms]
[INFO] CorrectBoundary: 7.226 [ms]
[INFO] PISOStep: 49758.3 [ms]
[INFO] TimeStep: 103306 [ms]
ExecutionTime = 1403.62 s  ClockTime = 1431 s

Time = 0.00175

Courant Number mean: 0.0377289 max: 0.866566
[INFO] MatrixAssemblyU: 428.3 [ms]
DILUPBiCGStab:  Solving for Ux, Initial residual = 0.0545943, Final residual = 0.00484096, No Iterations 5
DILUPBiCGStab:  Solving for Uy, Initial residual = 0.228891, Final residual = 0.015204, No Iterations 5
DILUPBiCGStab:  Solving for Uz, Initial residual = 0.710381, Final residual = 0.042292, No Iterations 5
[INFO] MomentumPredictor: 3455.59 [ms]
[INFO] MatrixAssemblyPI: 552.096 [ms]
[INFO] AdjustPhi: 31.771 [ms]
[INFO] ConstrainPressure: 0.003 [ms]
[INFO] MatrixAssemblyPII: 132.455 [ms]
[OGL LOG][Proc: 0]: global_index_init: 0.461 [ms]
[OGL LOG][Proc: 0]p_local_coeffs: call_update: 0 [ms]
[OGL LOG][Proc: 0]p_non_local_coeffs: call_update: 0 [ms]
[OGL LOG][Proc: 0]p: update_local_matrix_data: 111.412 [ms]
[OGL LOG][Proc: 0]p: update_non_local_matrix_data: 2.971 [ms]
[OGL LOG][Proc: 0]p: regenerate_distributed_matrix: 341.1 [ms]
[OGL LOG][Proc: 0]p_matrix: call_update: 348.599 [ms]
[OGL LOG][Proc: 0]p_rhs: call_update: 10.028 [ms]
[OGL LOG][Preconditioner.H:346] Generate preconditioner Multigrid MaxLevels 9 MinCoarseRows 10 ZeroGuess 1 Cycle v
[OGL LOG][Proc: 0]p: init_precond: 2788.24 [ms]
[OGL LOG][StoppingCriterion.H:239] Creating stopping criterion with minIter 353 frequency 6
[OGL LOG][Proc: 0]p: generate_solver: 0.01 [ms]
[OGL LOG][Proc: 0]p: solve: 45712.1 [ms]
[OGL LOG][Proc: 0]p: copy_x_back: 6.984 [ms]
[OGL LOG][lduLduBase.H:330] 
Statistics:
	Time per iteration: 76826 [mu s]
	Time per residual norm calculation: 11218.000000 [mu s]
	Time per iteration and DOF: 1.200406 [ns]
	Retrieve results bandwidth 0.987000 [GByte/s]
[OGL LOG][Proc: 0]p: solve_multi_gpu: 49121.2 [ms]
MultigridcudaGKOCG:  Solving for p, Initial residual = 0.978499, Final residual = 8.1759e-05, No Iterations 595
[INFO] SolveP: 49266.5 [ms]
time step continuity errors : sum local = 3.71935e-08, global = 6.58966e-21, cumulative = 1.13743e-19
[INFO] ContinuityError: 59.263 [ms]
[INFO] CorrectBoundary: 8.17 [ms]
[INFO] PISOStep: 50246 [ms]
[INFO] MatrixAssemblyPI: 544.456 [ms]
[INFO] AdjustPhi: 20.408 [ms]
[INFO] ConstrainPressure: 0.003 [ms]
[INFO] MatrixAssemblyPII: 130.886 [ms]
[OGL LOG][Proc: 0]: global_index_init: 0.298 [ms]
[OGL LOG][Proc: 0]p_local_coeffs: call_update: 0.001 [ms]
[OGL LOG][Proc: 0]p_non_local_coeffs: call_update: 0 [ms]
[OGL LOG][Proc: 0]p: update_local_matrix_data: 108.959 [ms]
[OGL LOG][Proc: 0]p: update_non_local_matrix_data: 2.412 [ms]
[OGL LOG][Proc: 0]p: regenerate_distributed_matrix: 346.915 [ms]
[OGL LOG][Proc: 0]p_matrix: call_update: 356.326 [ms]
[OGL LOG][Proc: 0]p_rhs: call_update: 5.05 [ms]
[OGL LOG][Preconditioner.H:346] Generate preconditioner Multigrid MaxLevels 9 MinCoarseRows 10 ZeroGuess 1 Cycle v
[OGL LOG][Proc: 0]p: init_precond: 3091.43 [ms]
[OGL LOG][StoppingCriterion.H:239] Creating stopping criterion with minIter 357 frequency 6
[OGL LOG][Proc: 0]p: generate_solver: 0.01 [ms]
[OGL LOG][Proc: 0]p: solve: 45417.9 [ms]
[OGL LOG][Proc: 0]p: copy_x_back: 4.957 [ms]
[OGL LOG][lduLduBase.H:330] 
Statistics:
	Time per iteration: 76332 [mu s]
	Time per residual norm calculation: 12900.000000 [mu s]
	Time per iteration and DOF: 1.192687 [ns]
	Retrieve results bandwidth 1.391000 [GByte/s]
[OGL LOG][Proc: 0]p: solve_multi_gpu: 49144.8 [ms]
MultigridcudaGKOCG:  Solving for p, Initial residual = 0.904768, Final residual = 8.01897e-05, No Iterations 595
[INFO] SolveP: 49277.3 [ms]
time step continuity errors : sum local = 3.68644e-08, global = 5.1788e-21, cumulative = 1.18922e-19
[INFO] ContinuityError: 58.573 [ms]
[INFO] CorrectBoundary: 6.911 [ms]
[INFO] PISOStep: 50242.4 [ms]
[INFO] TimeStep: 104436 [ms]
ExecutionTime = 1507.54 s  ClockTime = 1535 s

Time = 0.001875

Courant Number mean: 0.0390849 max: 1.48093
[INFO] MatrixAssemblyU: 427.049 [ms]
DILUPBiCGStab:  Solving for Ux, Initial residual = 0.0597859, Final residual = 0.0048884, No Iterations 5
DILUPBiCGStab:  Solving for Uy, Initial residual = 0.256518, Final residual = 0.0166927, No Iterations 5
DILUPBiCGStab:  Solving for Uz, Initial residual = 0.721916, Final residual = 0.041521, No Iterations 5
[INFO] MomentumPredictor: 3457.61 [ms]
[INFO] MatrixAssemblyPI: 552.412 [ms]
[INFO] AdjustPhi: 21.314 [ms]
[INFO] ConstrainPressure: 0.003 [ms]
[INFO] MatrixAssemblyPII: 132.636 [ms]
[OGL LOG][Proc: 0]: global_index_init: 0.09 [ms]
[OGL LOG][Proc: 0]p_local_coeffs: call_update: 0 [ms]
[OGL LOG][Proc: 0]p_non_local_coeffs: call_update: 0 [ms]
[OGL LOG][Proc: 0]p: update_local_matrix_data: 109.566 [ms]
[OGL LOG][Proc: 0]p: update_non_local_matrix_data: 3.068 [ms]
[OGL LOG][Proc: 0]p: regenerate_distributed_matrix: 325.814 [ms]
[OGL LOG][Proc: 0]p_matrix: call_update: 334.664 [ms]
[OGL LOG][Proc: 0]p_rhs: call_update: 9.5 [ms]
[OGL LOG][Preconditioner.H:346] Generate preconditioner Multigrid MaxLevels 9 MinCoarseRows 10 ZeroGuess 1 Cycle v
[OGL LOG][Proc: 0]p: init_precond: 2470.47 [ms]
[OGL LOG][StoppingCriterion.H:239] Creating stopping criterion with minIter 357 frequency 6
[OGL LOG][Proc: 0]p: generate_solver: 0.01 [ms]
[OGL LOG][Proc: 0]p: solve: 45398.5 [ms]
[OGL LOG][Proc: 0]p: copy_x_back: 4.891 [ms]
[OGL LOG][lduLduBase.H:330] 
Statistics:
	Time per iteration: 77077 [mu s]
	Time per residual norm calculation: 12743.000000 [mu s]
	Time per iteration and DOF: 1.204328 [ns]
	Retrieve results bandwidth 1.410000 [GByte/s]
[OGL LOG][Proc: 0]p: solve_multi_gpu: 48484.4 [ms]
MultigridcudaGKOCG:  Solving for p, Initial residual = 0.980785, Final residual = 9.96682e-05, No Iterations 589
[INFO] SolveP: 48617.5 [ms]
time step continuity errors : sum local = 5.2539e-08, global = 5.04827e-21, cumulative = 1.2397e-19
[INFO] ContinuityError: 58.419 [ms]
[INFO] CorrectBoundary: 6.728 [ms]
[INFO] PISOStep: 49584.4 [ms]
[INFO] MatrixAssemblyPI: 540.034 [ms]
[INFO] AdjustPhi: 19.21 [ms]
[INFO] ConstrainPressure: 0.002 [ms]
[INFO] MatrixAssemblyPII: 137.37 [ms]
[OGL LOG][Proc: 0]: global_index_init: 0.35 [ms]
[OGL LOG][Proc: 0]p_local_coeffs: call_update: 0 [ms]
[OGL LOG][Proc: 0]p_non_local_coeffs: call_update: 0 [ms]
[OGL LOG][Proc: 0]p: update_local_matrix_data: 109.675 [ms]
[OGL LOG][Proc: 0]p: update_non_local_matrix_data: 3.011 [ms]
[OGL LOG][Proc: 0]p: regenerate_distributed_matrix: 326.321 [ms]
[OGL LOG][Proc: 0]p_matrix: call_update: 328.657 [ms]
[OGL LOG][Proc: 0]p_rhs: call_update: 20.465 [ms]
[OGL LOG][Preconditioner.H:346] Generate preconditioner Multigrid MaxLevels 9 MinCoarseRows 10 ZeroGuess 1 Cycle v
[OGL LOG][Proc: 0]p: init_precond: 3028.83 [ms]
[OGL LOG][StoppingCriterion.H:239] Creating stopping criterion with minIter 353 frequency 6
[OGL LOG][Proc: 0]p: generate_solver: 0.01 [ms]
[OGL LOG][Proc: 0]p: solve: 45282.8 [ms]
[OGL LOG][Proc: 0]p: copy_x_back: 6.559 [ms]
[OGL LOG][lduLduBase.H:330] 
Statistics:
	Time per iteration: 76105 [mu s]
	Time per residual norm calculation: 11863.000000 [mu s]
	Time per iteration and DOF: 1.189141 [ns]
	Retrieve results bandwidth 1.051000 [GByte/s]
[OGL LOG][Proc: 0]p: solve_multi_gpu: 48926.5 [ms]
MultigridcudaGKOCG:  Solving for p, Initial residual = 0.913744, Final residual = 7.96357e-05, No Iterations 595
[INFO] SolveP: 49065.9 [ms]
time step continuity errors : sum local = 4.21127e-08, global = 5.72171e-21, cumulative = 1.29692e-19
[INFO] ContinuityError: 54.702 [ms]
[INFO] CorrectBoundary: 3.451 [ms]
[INFO] PISOStep: 50021.6 [ms]
[INFO] TimeStep: 103548 [ms]
ExecutionTime = 1610.61 s  ClockTime = 1639 s

Time = 0.002

Courant Number mean: 0.040037 max: 1.4195
[INFO] MatrixAssemblyU: 423.939 [ms]
DILUPBiCGStab:  Solving for Ux, Initial residual = 0.0687068, Final residual = 0.00536555, No Iterations 5
DILUPBiCGStab:  Solving for Uy, Initial residual = 0.269758, Final residual = 0.0165751, No Iterations 5
DILUPBiCGStab:  Solving for Uz, Initial residual = 0.724843, Final residual = 0.0418321, No Iterations 5
[INFO] MomentumPredictor: 3399.39 [ms]
[INFO] MatrixAssemblyPI: 554.275 [ms]
[INFO] AdjustPhi: 29.05 [ms]
[INFO] ConstrainPressure: 0.004 [ms]
[INFO] MatrixAssemblyPII: 131.333 [ms]
[OGL LOG][Proc: 0]: global_index_init: 0.826 [ms]
[OGL LOG][Proc: 0]p_local_coeffs: call_update: 0 [ms]
[OGL LOG][Proc: 0]p_non_local_coeffs: call_update: 0 [ms]
[OGL LOG][Proc: 0]p: update_local_matrix_data: 109.657 [ms]
[OGL LOG][Proc: 0]p: update_non_local_matrix_data: 2.481 [ms]
[OGL LOG][Proc: 0]p: regenerate_distributed_matrix: 335.396 [ms]
[OGL LOG][Proc: 0]p_matrix: call_update: 339.146 [ms]
[OGL LOG][Proc: 0]p_rhs: call_update: 11.044 [ms]
[OGL LOG][Preconditioner.H:346] Generate preconditioner Multigrid MaxLevels 9 MinCoarseRows 10 ZeroGuess 1 Cycle v
[OGL LOG][Proc: 0]p: init_precond: 3062.74 [ms]
[OGL LOG][StoppingCriterion.H:239] Creating stopping criterion with minIter 357 frequency 6
[OGL LOG][Proc: 0]p: generate_solver: 0.01 [ms]
[OGL LOG][Proc: 0]p: solve: 44007.6 [ms]
[OGL LOG][Proc: 0]p: copy_x_back: 6.833 [ms]
[OGL LOG][lduLduBase.H:330] 
Statistics:
	Time per iteration: 76269 [mu s]
	Time per residual norm calculation: 11875.000000 [mu s]
	Time per iteration and DOF: 1.191703 [ns]
	Retrieve results bandwidth 1.009000 [GByte/s]
[OGL LOG][Proc: 0]p: solve_multi_gpu: 47689.3 [ms]
MultigridcudaGKOCG:  Solving for p, Initial residual = 0.981688, Final residual = 9.20096e-05, No Iterations 577
[INFO] SolveP: 47827.6 [ms]
time step continuity errors : sum local = 5.65029e-08, global = 1.13103e-20, cumulative = 1.41002e-19
[INFO] ContinuityError: 56.511 [ms]
[INFO] CorrectBoundary: 5.651 [ms]
[INFO] PISOStep: 48806.6 [ms]
[INFO] MatrixAssemblyPI: 544.852 [ms]
[INFO] AdjustPhi: 17.513 [ms]
[INFO] ConstrainPressure: 0.003 [ms]
[INFO] MatrixAssemblyPII: 136.507 [ms]
[OGL LOG][Proc: 0]: global_index_init: 0.071 [ms]
[OGL LOG][Proc: 0]p_local_coeffs: call_update: 0 [ms]
[OGL LOG][Proc: 0]p_non_local_coeffs: call_update: 0 [ms]
[OGL LOG][Proc: 0]p: update_local_matrix_data: 97.694 [ms]
[OGL LOG][Proc: 0]p: update_non_local_matrix_data: 2.788 [ms]
[OGL LOG][Proc: 0]p: regenerate_distributed_matrix: 332.325 [ms]
[OGL LOG][Proc: 0]p_matrix: call_update: 341.579 [ms]
[OGL LOG][Proc: 0]p_rhs: call_update: 8.897 [ms]
[OGL LOG][Preconditioner.H:346] Generate preconditioner Multigrid MaxLevels 9 MinCoarseRows 10 ZeroGuess 1 Cycle v
[OGL LOG][Proc: 0]p: init_precond: 3046.68 [ms]
[OGL LOG][StoppingCriterion.H:239] Creating stopping criterion with minIter 346 frequency 6
[OGL LOG][Proc: 0]p: generate_solver: 0.011 [ms]
[OGL LOG][Proc: 0]p: solve: 45381.2 [ms]
[OGL LOG][Proc: 0]p: copy_x_back: 4.252 [ms]
[OGL LOG][lduLduBase.H:330] 
Statistics:
	Time per iteration: 76270 [mu s]
	Time per residual norm calculation: 10625.000000 [mu s]
	Time per iteration and DOF: 1.191719 [ns]
	Retrieve results bandwidth 1.621000 [GByte/s]
[OGL LOG][Proc: 0]p: solve_multi_gpu: 49053.3 [ms]
MultigridcudaGKOCG:  Solving for p, Initial residual = 0.908808, Final residual = 8.13089e-05, No Iterations 595
[INFO] SolveP: 49180.2 [ms]
time step continuity errors : sum local = 5.04239e-08, global = 5.91372e-21, cumulative = 1.46916e-19
[INFO] ContinuityError: 56.906 [ms]
[INFO] CorrectBoundary: 6.381 [ms]
[INFO] PISOStep: 50139.3 [ms]
[INFO] TimeStep: 102826 [ms]
ExecutionTime = 1712.94 s  ClockTime = 1741 s

Time = 0.002125

Courant Number mean: 0.0413847 max: 2.15334
[INFO] MatrixAssemblyU: 424.645 [ms]
DILUPBiCGStab:  Solving for Ux, Initial residual = 0.0761059, Final residual = 0.0055795, No Iterations 5
DILUPBiCGStab:  Solving for Uy, Initial residual = 0.300074, Final residual = 0.018153, No Iterations 5
DILUPBiCGStab:  Solving for Uz, Initial residual = 0.733587, Final residual = 0.0414785, No Iterations 5
[INFO] MomentumPredictor: 3383.12 [ms]
[INFO] MatrixAssemblyPI: 549.892 [ms]
[INFO] AdjustPhi: 49.398 [ms]
[INFO] ConstrainPressure: 0.005 [ms]
[INFO] MatrixAssemblyPII: 132.025 [ms]
[OGL LOG][Proc: 0]: global_index_init: 0.3 [ms]
[OGL LOG][Proc: 0]p_local_coeffs: call_update: 0 [ms]
[OGL LOG][Proc: 0]p_non_local_coeffs: call_update: 0 [ms]
[OGL LOG][Proc: 0]p: update_local_matrix_data: 106.72 [ms]
[OGL LOG][Proc: 0]p: update_non_local_matrix_data: 2.858 [ms]
[OGL LOG][Proc: 0]p: regenerate_distributed_matrix: 342.616 [ms]
[OGL LOG][Proc: 0]p_matrix: call_update: 347.428 [ms]
[OGL LOG][Proc: 0]p_rhs: call_update: 13.392 [ms]
[OGL LOG][Preconditioner.H:346] Generate preconditioner Multigrid MaxLevels 9 MinCoarseRows 10 ZeroGuess 1 Cycle v
[OGL LOG][Proc: 0]p: init_precond: 3133.99 [ms]
[OGL LOG][StoppingCriterion.H:239] Creating stopping criterion with minIter 357 frequency 5
[OGL LOG][Proc: 0]p: generate_solver: 0.012 [ms]
[OGL LOG][Proc: 0]p: solve: 45195.5 [ms]
[OGL LOG][Proc: 0]p: copy_x_back: 4.893 [ms]
[OGL LOG][lduLduBase.H:330] 
Statistics:
	Time per iteration: 76472 [mu s]
	Time per residual norm calculation: 11725.000000 [mu s]
	Time per iteration and DOF: 1.194875 [ns]
	Retrieve results bandwidth 1.409000 [GByte/s]
[OGL LOG][Proc: 0]p: solve_multi_gpu: 48958 [ms]
MultigridcudaGKOCG:  Solving for p, Initial residual = 0.982854, Final residual = 9.45771e-05, No Iterations 591
[INFO] SolveP: 49091.2 [ms]
time step continuity errors : sum local = 6.78013e-08, global = 1.8518e-21, cumulative = 1.48768e-19
[INFO] ContinuityError: 53.921 [ms]
[INFO] CorrectBoundary: 4.619 [ms]
[INFO] PISOStep: 50082.1 [ms]
[INFO] MatrixAssemblyPI: 546.988 [ms]
[INFO] AdjustPhi: 47.254 [ms]
[INFO] ConstrainPressure: 0.004 [ms]
[INFO] MatrixAssemblyPII: 137.438 [ms]
[OGL LOG][Proc: 0]: global_index_init: 0.058 [ms]
[OGL LOG][Proc: 0]p_local_coeffs: call_update: 0 [ms]
[OGL LOG][Proc: 0]p_non_local_coeffs: call_update: 0 [ms]
[OGL LOG][Proc: 0]p: update_local_matrix_data: 85.496 [ms]
[OGL LOG][Proc: 0]p: update_non_local_matrix_data: 2.539 [ms]
[OGL LOG][Proc: 0]p: regenerate_distributed_matrix: 344.162 [ms]
[OGL LOG][Proc: 0]p_matrix: call_update: 346.984 [ms]
[OGL LOG][Proc: 0]p_rhs: call_update: 20.955 [ms]
[OGL LOG][Preconditioner.H:346] Generate preconditioner Multigrid MaxLevels 9 MinCoarseRows 10 ZeroGuess 1 Cycle v
[OGL LOG][Proc: 0]p: init_precond: 3151.29 [ms]
[OGL LOG][StoppingCriterion.H:239] Creating stopping criterion with minIter 354 frequency 6
[OGL LOG][Proc: 0]p: generate_solver: 0.012 [ms]
[OGL LOG][Proc: 0]p: solve: 45334.4 [ms]
[OGL LOG][Proc: 0]p: copy_x_back: 3.493 [ms]
[OGL LOG][lduLduBase.H:330] 
Statistics:
	Time per iteration: 76192 [mu s]
	Time per residual norm calculation: 13085.000000 [mu s]
	Time per iteration and DOF: 1.190500 [ns]
	Retrieve results bandwidth 1.974000 [GByte/s]
[OGL LOG][Proc: 0]p: solve_multi_gpu: 49161.6 [ms]
MultigridcudaGKOCG:  Solving for p, Initial residual = 0.915007, Final residual = 7.95793e-05, No Iterations 595
[INFO] SolveP: 49272.4 [ms]
time step continuity errors : sum local = 5.73032e-08, global = 4.87897e-21, cumulative = 1.53647e-19
[INFO] ContinuityError: 57.596 [ms]
[INFO] CorrectBoundary: 8.454 [ms]
[INFO] PISOStep: 50266.3 [ms]
[INFO] TimeStep: 104215 [ms]
ExecutionTime = 1816.64 s  ClockTime = 1846 s

Time = 0.00225

Courant Number mean: 0.042307 max: 2.30295
[INFO] MatrixAssemblyU: 421.804 [ms]
DILUPBiCGStab:  Solving for Ux, Initial residual = 0.0885658, Final residual = 0.00624165, No Iterations 5
DILUPBiCGStab:  Solving for Uy, Initial residual = 0.319287, Final residual = 0.0184763, No Iterations 5
DILUPBiCGStab:  Solving for Uz, Initial residual = 0.735515, Final residual = 0.0413996, No Iterations 5
[INFO] MomentumPredictor: 3449.86 [ms]
[INFO] MatrixAssemblyPI: 553.188 [ms]
[INFO] AdjustPhi: 21.121 [ms]
[INFO] ConstrainPressure: 0.003 [ms]
[INFO] MatrixAssemblyPII: 131.843 [ms]
[OGL LOG][Proc: 0]: global_index_init: 0.178 [ms]
[OGL LOG][Proc: 0]p_local_coeffs: call_update: 0 [ms]
[OGL LOG][Proc: 0]p_non_local_coeffs: call_update: 0 [ms]
[OGL LOG][Proc: 0]p: update_local_matrix_data: 109.674 [ms]
[OGL LOG][Proc: 0]p: update_non_local_matrix_data: 2.537 [ms]
[OGL LOG][Proc: 0]p: regenerate_distributed_matrix: 327.28 [ms]
[OGL LOG][Proc: 0]p_matrix: call_update: 328.954 [ms]
[OGL LOG][Proc: 0]p_rhs: call_update: 16.401 [ms]
[OGL LOG][Preconditioner.H:346] Generate preconditioner Multigrid MaxLevels 9 MinCoarseRows 10 ZeroGuess 1 Cycle v
[OGL LOG][Proc: 0]p: init_precond: 2540.67 [ms]
[OGL LOG][StoppingCriterion.H:239] Creating stopping criterion with minIter 357 frequency 6
[OGL LOG][Proc: 0]p: generate_solver: 0.011 [ms]
[OGL LOG][Proc: 0]p: solve: 46306.2 [ms]
[OGL LOG][Proc: 0]p: copy_x_back: 4.123 [ms]
[OGL LOG][lduLduBase.H:330] 
Statistics:
	Time per iteration: 77825 [mu s]
	Time per residual norm calculation: 13061.000000 [mu s]
	Time per iteration and DOF: 1.216016 [ns]
	Retrieve results bandwidth 1.672000 [GByte/s]
[OGL LOG][Proc: 0]p: solve_multi_gpu: 49461.5 [ms]
MultigridcudaGKOCG:  Solving for p, Initial residual = 0.984105, Final residual = 9.49817e-05, No Iterations 595
[INFO] SolveP: 49597 [ms]
time step continuity errors : sum local = 7.97999e-08, global = 3.58048e-21, cumulative = 1.57227e-19
[INFO] ContinuityError: 56.038 [ms]
[INFO] CorrectBoundary: 8.691 [ms]
[INFO] PISOStep: 50561 [ms]
[INFO] MatrixAssemblyPI: 541.35 [ms]
[INFO] AdjustPhi: 21.032 [ms]
[INFO] ConstrainPressure: 0.004 [ms]
[INFO] MatrixAssemblyPII: 138.544 [ms]
[OGL LOG][Proc: 0]: global_index_init: 0.065 [ms]
[OGL LOG][Proc: 0]p_local_coeffs: call_update: 0 [ms]
[OGL LOG][Proc: 0]p_non_local_coeffs: call_update: 0 [ms]
[OGL LOG][Proc: 0]p: update_local_matrix_data: 108.28 [ms]
[OGL LOG][Proc: 0]p: update_non_local_matrix_data: 2.69 [ms]
[OGL LOG][Proc: 0]p: regenerate_distributed_matrix: 340.296 [ms]
[OGL LOG][Proc: 0]p_matrix: call_update: 343.867 [ms]
[OGL LOG][Proc: 0]p_rhs: call_update: 8.23 [ms]
[OGL LOG][Preconditioner.H:346] Generate preconditioner Multigrid MaxLevels 9 MinCoarseRows 10 ZeroGuess 1 Cycle v
[OGL LOG][Proc: 0]p: init_precond: 3063.45 [ms]
[OGL LOG][StoppingCriterion.H:239] Creating stopping criterion with minIter 357 frequency 6
[OGL LOG][Proc: 0]p: generate_solver: 0.009 [ms]
[OGL LOG][Proc: 0]p: solve: 45646.8 [ms]
[OGL LOG][Proc: 0]p: copy_x_back: 5.81 [ms]
[OGL LOG][lduLduBase.H:330] 
Statistics:
	Time per iteration: 76717 [mu s]
	Time per residual norm calculation: 12032.000000 [mu s]
	Time per iteration and DOF: 1.198703 [ns]
	Retrieve results bandwidth 1.186000 [GByte/s]
[OGL LOG][Proc: 0]p: solve_multi_gpu: 49324.2 [ms]
MultigridcudaGKOCG:  Solving for p, Initial residual = 0.911943, Final residual = 9.06407e-05, No Iterations 595
[INFO] SolveP: 49464.4 [ms]
time step continuity errors : sum local = 7.68631e-08, global = 6.71327e-21, cumulative = 1.6394e-19
[INFO] ContinuityError: 55.03 [ms]
[INFO] CorrectBoundary: 4.881 [ms]
[INFO] PISOStep: 50422 [ms]
[INFO] TimeStep: 104916 [ms]
ExecutionTime = 1920.2 s  ClockTime = 1951 s

Time = 0.002375

Courant Number mean: 0.0437025 max: 3.18573
[INFO] MatrixAssemblyU: 422.48 [ms]
DILUPBiCGStab:  Solving for Ux, Initial residual = 0.0989156, Final residual = 0.00663798, No Iterations 5
DILUPBiCGStab:  Solving for Uy, Initial residual = 0.351325, Final residual = 0.0201604, No Iterations 5
DILUPBiCGStab:  Solving for Uz, Initial residual = 0.74181, Final residual = 0.0411666, No Iterations 5
[INFO] MomentumPredictor: 3404.26 [ms]
[INFO] MatrixAssemblyPI: 553.968 [ms]
[INFO] AdjustPhi: 18.895 [ms]
[INFO] ConstrainPressure: 0.003 [ms]
[INFO] MatrixAssemblyPII: 131.531 [ms]
[OGL LOG][Proc: 0]: global_index_init: 0.06 [ms]
[OGL LOG][Proc: 0]p_local_coeffs: call_update: 0.001 [ms]
[OGL LOG][Proc: 0]p_non_local_coeffs: call_update: 0 [ms]
[OGL LOG][Proc: 0]p: update_local_matrix_data: 109.626 [ms]
[OGL LOG][Proc: 0]p: update_non_local_matrix_data: 2.497 [ms]
[OGL LOG][Proc: 0]p: regenerate_distributed_matrix: 343.889 [ms]
[OGL LOG][Proc: 0]p_matrix: call_update: 346.382 [ms]
[OGL LOG][Proc: 0]p_rhs: call_update: 11.786 [ms]
[OGL LOG][Preconditioner.H:346] Generate preconditioner Multigrid MaxLevels 9 MinCoarseRows 10 ZeroGuess 1 Cycle v
[OGL LOG][Proc: 0]p: init_precond: 3106.63 [ms]
[OGL LOG][StoppingCriterion.H:239] Creating stopping criterion with minIter 357 frequency 6
[OGL LOG][Proc: 0]p: generate_solver: 0.013 [ms]
[OGL LOG][Proc: 0]p: solve: 45224.9 [ms]
[OGL LOG][Proc: 0]p: copy_x_back: 7.166 [ms]
[OGL LOG][lduLduBase.H:330] 
Statistics:
	Time per iteration: 76008 [mu s]
	Time per residual norm calculation: 10349.000000 [mu s]
	Time per iteration and DOF: 1.187625 [ns]
	Retrieve results bandwidth 0.962000 [GByte/s]
[OGL LOG][Proc: 0]p: solve_multi_gpu: 48970.8 [ms]
MultigridcudaGKOCG:  Solving for p, Initial residual = 0.984587, Final residual = 9.06202e-05, No Iterations 595
[INFO] SolveP: 49107.4 [ms]
time step continuity errors : sum local = 8.95284e-08, global = 9.43399e-21, cumulative = 1.73374e-19
[INFO] ContinuityError: 57.547 [ms]
[INFO] CorrectBoundary: 8.234 [ms]
[INFO] PISOStep: 50072.4 [ms]
[INFO] MatrixAssemblyPI: 543.973 [ms]
[INFO] AdjustPhi: 18.35 [ms]
[INFO] ConstrainPressure: 0.004 [ms]
[INFO] MatrixAssemblyPII: 137.908 [ms]
[OGL LOG][Proc: 0]: global_index_init: 0.063 [ms]
[OGL LOG][Proc: 0]p_local_coeffs: call_update: 0 [ms]
[OGL LOG][Proc: 0]p_non_local_coeffs: call_update: 0 [ms]
[OGL LOG][Proc: 0]p: update_local_matrix_data: 109.336 [ms]
[OGL LOG][Proc: 0]p: update_non_local_matrix_data: 3.13 [ms]
[OGL LOG][Proc: 0]p: regenerate_distributed_matrix: 338.549 [ms]
[OGL LOG][Proc: 0]p_matrix: call_update: 346.406 [ms]
[OGL LOG][Proc: 0]p_rhs: call_update: 11.232 [ms]
[OGL LOG][Preconditioner.H:346] Generate preconditioner Multigrid MaxLevels 9 MinCoarseRows 10 ZeroGuess 1 Cycle v
[OGL LOG][Proc: 0]p: init_precond: 3171.47 [ms]
[OGL LOG][StoppingCriterion.H:239] Creating stopping criterion with minIter 357 frequency 5
[OGL LOG][Proc: 0]p: generate_solver: 0.011 [ms]
[OGL LOG][Proc: 0]p: solve: 45338.3 [ms]
[OGL LOG][Proc: 0]p: copy_x_back: 4.472 [ms]
[OGL LOG][lduLduBase.H:330] 
Statistics:
	Time per iteration: 76071 [mu s]
	Time per residual norm calculation: 13821.000000 [mu s]
	Time per iteration and DOF: 1.188609 [ns]
	Retrieve results bandwidth 1.542000 [GByte/s]
[OGL LOG][Proc: 0]p: solve_multi_gpu: 49138.3 [ms]
MultigridcudaGKOCG:  Solving for p, Initial residual = 0.916043, Final residual = 8.28206e-05, No Iterations 596
[INFO] SolveP: 49275.6 [ms]
time step continuity errors : sum local = 8.22739e-08, global = 6.68636e-21, cumulative = 1.80061e-19
[INFO] ContinuityError: 57.739 [ms]
[INFO] CorrectBoundary: 4.036 [ms]
[INFO] PISOStep: 50231.4 [ms]
[INFO] TimeStep: 104189 [ms]
ExecutionTime = 2023.87 s  ClockTime = 2055 s

Time = 0.0025

Courant Number mean: 0.0446625 max: 3.69758
[INFO] MatrixAssemblyU: 427.837 [ms]
DILUPBiCGStab:  Solving for Ux, Initial residual = 0.116199, Final residual = 0.00758587, No Iterations 5
DILUPBiCGStab:  Solving for Uy, Initial residual = 0.375599, Final residual = 0.0208193, No Iterations 5
DILUPBiCGStab:  Solving for Uz, Initial residual = 0.742547, Final residual = 0.0411193, No Iterations 5
[INFO] MomentumPredictor: 3443.9 [ms]
[INFO] MatrixAssemblyPI: 554.983 [ms]
[INFO] AdjustPhi: 17.127 [ms]
[INFO] ConstrainPressure: 0.003 [ms]
[INFO] MatrixAssemblyPII: 130.863 [ms]
[OGL LOG][Proc: 0]: global_index_init: 0.058 [ms]
[OGL LOG][Proc: 0]p_local_coeffs: call_update: 0 [ms]
[OGL LOG][Proc: 0]p_non_local_coeffs: call_update: 0 [ms]
[OGL LOG][Proc: 0]p: update_local_matrix_data: 110.12 [ms]
[OGL LOG][Proc: 0]p: update_non_local_matrix_data: 2.541 [ms]
[OGL LOG][Proc: 0]p: regenerate_distributed_matrix: 335.209 [ms]
[OGL LOG][Proc: 0]p_matrix: call_update: 338.137 [ms]
[OGL LOG][Proc: 0]p_rhs: call_update: 9.008 [ms]
[OGL LOG][Preconditioner.H:346] Generate preconditioner Multigrid MaxLevels 9 MinCoarseRows 10 ZeroGuess 1 Cycle v
[OGL LOG][Proc: 0]p: init_precond: 2629.44 [ms]
[OGL LOG][StoppingCriterion.H:239] Creating stopping criterion with minIter 357 frequency 6
[OGL LOG][Proc: 0]p: generate_solver: 0.011 [ms]
[OGL LOG][Proc: 0]p: solve: 45957.8 [ms]
[OGL LOG][Proc: 0]p: copy_x_back: 5.436 [ms]
[OGL LOG][lduLduBase.H:330] 
Statistics:
	Time per iteration: 77239 [mu s]
	Time per residual norm calculation: 11233.000000 [mu s]
	Time per iteration and DOF: 1.206859 [ns]
	Retrieve results bandwidth 1.268000 [GByte/s]
[OGL LOG][Proc: 0]p: solve_multi_gpu: 49199 [ms]
MultigridcudaGKOCG:  Solving for p, Initial residual = 0.98563, Final residual = 8.28572e-05, No Iterations 595
[INFO] SolveP: 49338.8 [ms]
time step continuity errors : sum local = 9.65113e-08, global = 6.73431e-21, cumulative = 1.86795e-19
[INFO] ContinuityError: 57.921 [ms]
[INFO] CorrectBoundary: 6.674 [ms]
[INFO] PISOStep: 50305.3 [ms]
[INFO] MatrixAssemblyPI: 541.932 [ms]
[INFO] AdjustPhi: 19.293 [ms]
[INFO] ConstrainPressure: 0.003 [ms]
[INFO] MatrixAssemblyPII: 136.731 [ms]
[OGL LOG][Proc: 0]: global_index_init: 0.21 [ms]
[OGL LOG][Proc: 0]p_local_coeffs: call_update: 0 [ms]
[OGL LOG][Proc: 0]p_non_local_coeffs: call_update: 0 [ms]
[OGL LOG][Proc: 0]p: update_local_matrix_data: 109.644 [ms]
[OGL LOG][Proc: 0]p: update_non_local_matrix_data: 2.587 [ms]
[OGL LOG][Proc: 0]p: regenerate_distributed_matrix: 322.551 [ms]
[OGL LOG][Proc: 0]p_matrix: call_update: 333.389 [ms]
[OGL LOG][Proc: 0]p_rhs: call_update: 16.972 [ms]
[OGL LOG][Preconditioner.H:346] Generate preconditioner Multigrid MaxLevels 9 MinCoarseRows 10 ZeroGuess 1 Cycle v
[OGL LOG][Proc: 0]p: init_precond: 3012.76 [ms]
[OGL LOG][StoppingCriterion.H:239] Creating stopping criterion with minIter 357 frequency 6
[OGL LOG][Proc: 0]p: generate_solver: 0.01 [ms]
[OGL LOG][Proc: 0]p: solve: 45141.5 [ms]
[OGL LOG][Proc: 0]p: copy_x_back: 4.777 [ms]
[OGL LOG][lduLduBase.H:330] 
Statistics:
	Time per iteration: 76640 [mu s]
	Time per residual norm calculation: 13323.000000 [mu s]
	Time per iteration and DOF: 1.197500 [ns]
	Retrieve results bandwidth 1.443000 [GByte/s]
[OGL LOG][Proc: 0]p: solve_multi_gpu: 48775.3 [ms]
MultigridcudaGKOCG:  Solving for p, Initial residual = 0.914083, Final residual = 9.77003e-05, No Iterations 589
[INFO] SolveP: 48912.8 [ms]
time step continuity errors : sum local = 1.14828e-07, global = 6.65622e-21, cumulative = 1.93451e-19
[INFO] ContinuityError: 51.491 [ms]
[INFO] CorrectBoundary: 2.589 [ms]
[INFO] PISOStep: 49864.7 [ms]
[INFO] TimeStep: 104099 [ms]
ExecutionTime = 2127.1 s  ClockTime = 2159 s

End

Finalising parallel run
