/*---------------------------------------------------------------------------*\
| =========                 |                                                 |
| \\      /  F ield         | OpenFOAM: The Open Source CFD Toolbox           |
|  \\    /   O peration     | Version:  2312                                  |
|   \\  /    A nd           | Website:  www.openfoam.com                      |
|    \\/     M anipulation  |                                                 |
\*---------------------------------------------------------------------------*/
Build  : a46b310f-20240104 OPENFOAM=2312 version=v2312
Arch   : "LSB;label=32;scalar=64"
Exec   : icoFoam -parallel -case /hppfs/scratch/0B/di35yan/lidDriven3D/workspace/37094d889f11ab558c6c89d7d828c856/case
Date   : Feb 17 2024
Time   : 09:00:17
Host   : i20r02c06s08
PID    : 77569
I/O    : uncollated
Case   : /hppfs/scratch/0B/di35yan/lidDriven3D/workspace/37094d889f11ab558c6c89d7d828c856/case
nProcs : 224
Hosts  :
(
    (i20r02c06s08 112)
    (i20r02c06s10 112)
)
Pstream initialized with:
    floatTransfer      : false
    nProcsSimpleSum    : 0
    nonBlockingExchange: 0 (tuning: 0)
    exchange algorithm : 0
    commsType          : nonBlocking
    polling iterations : 0
trapFpe: Floating point exception trapping enabled (FOAM_SIGFPE).
fileModificationChecking : Monitoring run-time modified files using timeStampMaster (fileModificationSkew 5, maxFileModificationPolls 20)
allowSystemOperations : Allowing user-supplied system call operations

// * * * * * * * * * * * * * * * * * * * * * * * * * * * * * * * * * * * * * //
Create time

--> FOAM Warning : 
    From void* Foam::dlLibraryTable::openLibrary(const Foam::fileName&, bool)
    in file db/dynamicLibrary/dlLibraryTable/dlLibraryTable.C at line 188
    Could not load "libpetscFoam.so"
libpetscFoam.so: cannot open shared object file: No such file or directory
Create mesh for time = 0


PISO: Operating solver in PISO mode

Reading transportProperties

Reading field p

Reading field U

Reading/calculating face flux field phi


Starting time loop

Time = 0.00025

Courant Number mean: 8.24341e-18 max: 2.08167e-14
DILUPBiCGStab:  Solving for Ux, Initial residual = 1, Final residual = 0.014244, No Iterations 5
DILUPBiCGStab:  Solving for Uy:  solution singularity
DILUPBiCGStab:  Solving for Uz:  solution singularity
nonePCG:  Solving for p, Initial residual = 1, Final residual = 9.92075e-05, No Iterations 1608
time step continuity errors : sum local = 7.94873e-09, global = 2.68946e-21, cumulative = 2.68946e-21
nonePCG:  Solving for p, Initial residual = 0.769205, Final residual = 9.90148e-05, No Iterations 1588
time step continuity errors : sum local = 9.95264e-09, global = 8.88844e-22, cumulative = 3.5783e-21
ExecutionTime = 14.14 s  ClockTime = 15 s

Time = 0.0005

Courant Number mean: 0.0156777 max: 0.411861
DILUPBiCGStab:  Solving for Ux, Initial residual = 0.129485, Final residual = 0.00819066, No Iterations 5
DILUPBiCGStab:  Solving for Uy, Initial residual = 0.428878, Final residual = 0.0199077, No Iterations 5
DILUPBiCGStab:  Solving for Uz, Initial residual = 0.981463, Final residual = 0.0506588, No Iterations 5
nonePCG:  Solving for p, Initial residual = 0.834687, Final residual = 9.84673e-05, No Iterations 1564
time step continuity errors : sum local = 1.53411e-08, global = -4.07351e-22, cumulative = 3.17095e-21
nonePCG:  Solving for p, Initial residual = 0.753543, Final residual = 9.76441e-05, No Iterations 1561
time step continuity errors : sum local = 1.55869e-08, global = -6.57932e-22, cumulative = 2.51302e-21
ExecutionTime = 16.07 s  ClockTime = 17 s

Time = 0.00075

Courant Number mean: 0.0240254 max: 0.47134
DILUPBiCGStab:  Solving for Ux, Initial residual = 0.0548676, Final residual = 0.00293914, No Iterations 5
DILUPBiCGStab:  Solving for Uy, Initial residual = 0.182821, Final residual = 0.0105854, No Iterations 5
DILUPBiCGStab:  Solving for Uz, Initial residual = 0.80235, Final residual = 0.036483, No Iterations 5
nonePCG:  Solving for p, Initial residual = 0.854396, Final residual = 9.78086e-05, No Iterations 766
time step continuity errors : sum local = 1.50404e-08, global = -2.885e-21, cumulative = -3.71978e-22
nonePCG:  Solving for p, Initial residual = 0.801184, Final residual = 9.85244e-05, No Iterations 762
time step continuity errors : sum local = 1.38866e-08, global = -1.25669e-21, cumulative = -1.62867e-21
ExecutionTime = 17.06 s  ClockTime = 18 s

Time = 0.001

Courant Number mean: 0.0288768 max: 0.467211
DILUPBiCGStab:  Solving for Ux, Initial residual = 0.0348893, Final residual = 0.00190972, No Iterations 5
DILUPBiCGStab:  Solving for Uy, Initial residual = 0.129139, Final residual = 0.00692785, No Iterations 5
DILUPBiCGStab:  Solving for Uz, Initial residual = 0.610002, Final residual = 0.0243497, No Iterations 5
nonePCG:  Solving for p, Initial residual = 0.782004, Final residual = 9.86581e-05, No Iterations 1570
time step continuity errors : sum local = 1.2746e-08, global = -5.08166e-21, cumulative = -6.71033e-21
nonePCG:  Solving for p, Initial residual = 0.70316, Final residual = 9.70107e-05, No Iterations 1568
time step continuity errors : sum local = 1.26822e-08, global = -2.77843e-21, cumulative = -9.48876e-21
ExecutionTime = 18.96 s  ClockTime = 20 s

Time = 0.00125

Courant Number mean: 0.0330005 max: 0.472352
DILUPBiCGStab:  Solving for Ux, Initial residual = 0.0273551, Final residual = 0.00140549, No Iterations 5
DILUPBiCGStab:  Solving for Uy, Initial residual = 0.0823354, Final residual = 0.00526641, No Iterations 5
DILUPBiCGStab:  Solving for Uz, Initial residual = 0.45905, Final residual = 0.0177466, No Iterations 5
nonePCG:  Solving for p, Initial residual = 0.78605, Final residual = 9.93995e-05, No Iterations 1564
time step continuity errors : sum local = 1.05721e-08, global = -2.58085e-21, cumulative = -1.20696e-20
nonePCG:  Solving for p, Initial residual = 0.72174, Final residual = 9.95142e-05, No Iterations 1562
time step continuity errors : sum local = 1.04062e-08, global = -4.65066e-21, cumulative = -1.67203e-20
ExecutionTime = 20.86 s  ClockTime = 22 s

Time = 0.0015

Courant Number mean: 0.0362897 max: 0.475161
DILUPBiCGStab:  Solving for Ux, Initial residual = 0.0207414, Final residual = 0.000998491, No Iterations 5
DILUPBiCGStab:  Solving for Uy, Initial residual = 0.0665856, Final residual = 0.00360262, No Iterations 5
DILUPBiCGStab:  Solving for Uz, Initial residual = 0.334134, Final residual = 0.0133771, No Iterations 5
nonePCG:  Solving for p, Initial residual = 0.698542, Final residual = 9.73321e-05, No Iterations 740
time step continuity errors : sum local = 1.02045e-08, global = -4.68127e-21, cumulative = -2.14015e-20
nonePCG:  Solving for p, Initial residual = 0.627864, Final residual = 9.75476e-05, No Iterations 737
time step continuity errors : sum local = 9.83605e-09, global = -4.96404e-21, cumulative = -2.63656e-20
ExecutionTime = 21.87 s  ClockTime = 23 s

Time = 0.00175

Courant Number mean: 0.0392005 max: 0.477311
DILUPBiCGStab:  Solving for Ux, Initial residual = 0.0177323, Final residual = 0.000796073, No Iterations 5
DILUPBiCGStab:  Solving for Uy, Initial residual = 0.0500361, Final residual = 0.00277187, No Iterations 5
DILUPBiCGStab:  Solving for Uz, Initial residual = 0.261951, Final residual = 0.0121126, No Iterations 5
nonePCG:  Solving for p, Initial residual = 0.693137, Final residual = 9.66327e-05, No Iterations 1444
time step continuity errors : sum local = 7.85572e-09, global = -6.0363e-21, cumulative = -3.24019e-20
nonePCG:  Solving for p, Initial residual = 0.626212, Final residual = 9.50319e-05, No Iterations 1443
time step continuity errors : sum local = 7.66235e-09, global = -7.52307e-21, cumulative = -3.99249e-20
ExecutionTime = 23.62 s  ClockTime = 25 s

Time = 0.002

Courant Number mean: 0.0417258 max: 0.478911
DILUPBiCGStab:  Solving for Ux, Initial residual = 0.0145862, Final residual = 0.000610931, No Iterations 5
DILUPBiCGStab:  Solving for Uy, Initial residual = 0.0426821, Final residual = 0.00212089, No Iterations 5
DILUPBiCGStab:  Solving for Uz, Initial residual = 0.204237, Final residual = 0.00935518, No Iterations 5
nonePCG:  Solving for p, Initial residual = 0.604404, Final residual = 9.80636e-05, No Iterations 743
time step continuity errors : sum local = 8.59438e-09, global = -5.11746e-21, cumulative = -4.50424e-20
nonePCG:  Solving for p, Initial residual = 0.5419, Final residual = 9.75128e-05, No Iterations 732
time step continuity errors : sum local = 7.87058e-09, global = -7.52202e-21, cumulative = -5.25644e-20
ExecutionTime = 24.61 s  ClockTime = 26 s

Time = 0.00225

Courant Number mean: 0.0440144 max: 0.480193
DILUPBiCGStab:  Solving for Ux, Initial residual = 0.0128542, Final residual = 0.000499023, No Iterations 5
DILUPBiCGStab:  Solving for Uy, Initial residual = 0.0345979, Final residual = 0.00159191, No Iterations 5
DILUPBiCGStab:  Solving for Uz, Initial residual = 0.17108, Final residual = 0.00913674, No Iterations 5
nonePCG:  Solving for p, Initial residual = 0.590141, Final residual = 9.94765e-05, No Iterations 1418
time step continuity errors : sum local = 6.58297e-09, global = -1.01083e-20, cumulative = -6.26727e-20
nonePCG:  Solving for p, Initial residual = 0.527033, Final residual = 9.69418e-05, No Iterations 1417
time step continuity errors : sum local = 6.39788e-09, global = -6.60735e-21, cumulative = -6.92801e-20
ExecutionTime = 26.31 s  ClockTime = 27 s

Time = 0.0025

Courant Number mean: 0.0460745 max: 0.481228
DILUPBiCGStab:  Solving for Ux, Initial residual = 0.0110866, Final residual = 0.0004039, No Iterations 5
DILUPBiCGStab:  Solving for Uy, Initial residual = 0.0303116, Final residual = 0.0012827, No Iterations 5
DILUPBiCGStab:  Solving for Uz, Initial residual = 0.138166, Final residual = 0.00726923, No Iterations 5
nonePCG:  Solving for p, Initial residual = 0.514631, Final residual = 9.86233e-05, No Iterations 1499
time step continuity errors : sum local = 6.34239e-09, global = -1.27215e-20, cumulative = -8.20016e-20
nonePCG:  Solving for p, Initial residual = 0.459848, Final residual = 9.74842e-05, No Iterations 1497
time step continuity errors : sum local = 6.24149e-09, global = -1.03607e-20, cumulative = -9.23623e-20
ExecutionTime = 28.1 s  ClockTime = 29 s

Time = 0.00275

Courant Number mean: 0.0479708 max: 0.482092
DILUPBiCGStab:  Solving for Ux, Initial residual = 0.00992619, Final residual = 0.000336724, No Iterations 5
DILUPBiCGStab:  Solving for Uy, Initial residual = 0.0258121, Final residual = 0.000967001, No Iterations 5
DILUPBiCGStab:  Solving for Uz, Initial residual = 0.116321, Final residual = 0.0066444, No Iterations 5
nonePCG:  Solving for p, Initial residual = 0.489755, Final residual = 9.76074e-05, No Iterations 1496
time step continuity errors : sum local = 5.62463e-09, global = -6.5759e-21, cumulative = -9.89382e-20
nonePCG:  Solving for p, Initial residual = 0.435479, Final residual = 9.78399e-05, No Iterations 1494
time step continuity errors : sum local = 5.63356e-09, global = -9.91693e-21, cumulative = -1.08855e-19
ExecutionTime = 29.89 s  ClockTime = 31 s

Time = 0.003

Courant Number mean: 0.0497126 max: 0.482838
DILUPBiCGStab:  Solving for Ux, Initial residual = 0.0088287, Final residual = 0.000284247, No Iterations 5
DILUPBiCGStab:  Solving for Uy, Initial residual = 0.0230141, Final residual = 0.00079294, No Iterations 5
DILUPBiCGStab:  Solving for Uz, Initial residual = 0.097905, Final residual = 0.00578961, No Iterations 5
nonePCG:  Solving for p, Initial residual = 0.433773, Final residual = 9.77038e-05, No Iterations 1493
time step continuity errors : sum local = 5.48111e-09, global = -9.19633e-21, cumulative = -1.18051e-19
nonePCG:  Solving for p, Initial residual = 0.387547, Final residual = 9.93265e-05, No Iterations 1491
time step continuity errors : sum local = 5.54909e-09, global = -7.64745e-21, cumulative = -1.25699e-19
ExecutionTime = 32.46 s  ClockTime = 33 s

Time = 0.00325

Courant Number mean: 0.0513316 max: 0.483468
DILUPBiCGStab:  Solving for Ux, Initial residual = 0.00801004, Final residual = 0.000241718, No Iterations 5
DILUPBiCGStab:  Solving for Uy, Initial residual = 0.0202229, Final residual = 0.000618961, No Iterations 5
DILUPBiCGStab:  Solving for Uz, Initial residual = 0.0845985, Final residual = 0.00528837, No Iterations 5
nonePCG:  Solving for p, Initial residual = 0.403136, Final residual = 9.58172e-05, No Iterations 1490
time step continuity errors : sum local = 5.00657e-09, global = -5.69011e-21, cumulative = -1.31389e-19
nonePCG:  Solving for p, Initial residual = 0.358433, Final residual = 9.76381e-05, No Iterations 1488
time step continuity errors : sum local = 5.10134e-09, global = -9.23061e-21, cumulative = -1.4062e-19
ExecutionTime = 34.31 s  ClockTime = 35 s

Time = 0.0035

Courant Number mean: 0.0528372 max: 0.484033
DILUPBiCGStab:  Solving for Ux, Initial residual = 0.00726908, Final residual = 0.000209538, No Iterations 5
DILUPBiCGStab:  Solving for Uy, Initial residual = 0.0183087, Final residual = 0.000507714, No Iterations 5
DILUPBiCGStab:  Solving for Uz, Initial residual = 0.0734904, Final residual = 0.00471056, No Iterations 5
nonePCG:  Solving for p, Initial residual = 0.363173, Final residual = 9.9789e-05, No Iterations 727
time step continuity errors : sum local = 5.61486e-09, global = -1.14922e-20, cumulative = -1.52112e-19
nonePCG:  Solving for p, Initial residual = 0.324649, Final residual = 9.7368e-05, No Iterations 689
time step continuity errors : sum local = 5.11056e-09, global = -9.70872e-21, cumulative = -1.61821e-19
ExecutionTime = 35.28 s  ClockTime = 36 s

Time = 0.00375

Courant Number mean: 0.0542493 max: 0.484519
DILUPBiCGStab:  Solving for Ux, Initial residual = 0.00667184, Final residual = 0.000180755, No Iterations 5
DILUPBiCGStab:  Solving for Uy, Initial residual = 0.0164293, Final residual = 0.000419233, No Iterations 5
DILUPBiCGStab:  Solving for Uz, Initial residual = 0.0656215, Final residual = 0.00443071, No Iterations 5
nonePCG:  Solving for p, Initial residual = 0.331594, Final residual = 9.61679e-05, No Iterations 1487
time step continuity errors : sum local = 4.6701e-09, global = -1.27117e-20, cumulative = -1.74532e-19
nonePCG:  Solving for p, Initial residual = 0.295037, Final residual = 9.88372e-05, No Iterations 1485
time step continuity errors : sum local = 4.80037e-09, global = -1.08435e-20, cumulative = -1.85376e-19
ExecutionTime = 37.13 s  ClockTime = 38 s

Time = 0.004

Courant Number mean: 0.0555727 max: 0.484962
DILUPBiCGStab:  Solving for Ux, Initial residual = 0.00613568, Final residual = 0.000159176, No Iterations 5
DILUPBiCGStab:  Solving for Uy, Initial residual = 0.0150796, Final residual = 0.000344535, No Iterations 5
DILUPBiCGStab:  Solving for Uz, Initial residual = 0.0576207, Final residual = 0.00385441, No Iterations 5
nonePCG:  Solving for p, Initial residual = 0.303013, Final residual = 9.59238e-05, No Iterations 1485
time step continuity errors : sum local = 4.50046e-09, global = -1.18533e-20, cumulative = -1.97229e-19
nonePCG:  Solving for p, Initial residual = 0.270974, Final residual = 9.71803e-05, No Iterations 1483
time step continuity errors : sum local = 4.54823e-09, global = -1.14243e-20, cumulative = -2.08653e-19
ExecutionTime = 38.93 s  ClockTime = 40 s

Time = 0.00425

Courant Number mean: 0.0568217 max: 0.485352
DILUPBiCGStab:  Solving for Ux, Initial residual = 0.00567048, Final residual = 0.000138591, No Iterations 5
DILUPBiCGStab:  Solving for Uy, Initial residual = 0.0137442, Final residual = 0.000300255, No Iterations 5
DILUPBiCGStab:  Solving for Uz, Initial residual = 0.0508122, Final residual = 0.00349525, No Iterations 5
nonePCG:  Solving for p, Initial residual = 0.273618, Final residual = 9.94692e-05, No Iterations 1481
time step continuity errors : sum local = 4.55848e-09, global = -9.13111e-21, cumulative = -2.17785e-19
nonePCG:  Solving for p, Initial residual = 0.244039, Final residual = 9.63408e-05, No Iterations 1480
time step continuity errors : sum local = 4.41508e-09, global = -8.8148e-21, cumulative = -2.26599e-19
ExecutionTime = 40.75 s  ClockTime = 42 s

Time = 0.0045

Courant Number mean: 0.0579998 max: 0.485711
DILUPBiCGStab:  Solving for Ux, Initial residual = 0.00527258, Final residual = 0.00012355, No Iterations 5
DILUPBiCGStab:  Solving for Uy, Initial residual = 0.0127195, Final residual = 0.000249578, No Iterations 5
DILUPBiCGStab:  Solving for Uz, Initial residual = 0.0456843, Final residual = 0.00315271, No Iterations 5
nonePCG:  Solving for p, Initial residual = 0.251933, Final residual = 9.79275e-05, No Iterations 1479
time step continuity errors : sum local = 4.33181e-09, global = -1.32862e-20, cumulative = -2.39886e-19
nonePCG:  Solving for p, Initial residual = 0.225603, Final residual = 9.87606e-05, No Iterations 1477
time step continuity errors : sum local = 4.361e-09, global = -1.54239e-20, cumulative = -2.5531e-19
ExecutionTime = 42.54 s  ClockTime = 43 s

Time = 0.00475

Courant Number mean: 0.0591173 max: 0.486031
DILUPBiCGStab:  Solving for Ux, Initial residual = 0.00490824, Final residual = 0.000108492, No Iterations 5
DILUPBiCGStab:  Solving for Uy, Initial residual = 0.0117299, Final residual = 0.000227965, No Iterations 5
DILUPBiCGStab:  Solving for Uz, Initial residual = 0.0408158, Final residual = 0.00283343, No Iterations 5
nonePCG:  Solving for p, Initial residual = 0.226185, Final residual = 9.98362e-05, No Iterations 672
time step continuity errors : sum local = 4.88121e-09, global = -1.881e-20, cumulative = -2.7412e-19
nonePCG:  Solving for p, Initial residual = 0.20222, Final residual = 9.98374e-05, No Iterations 654
time step continuity errors : sum local = 4.54104e-09, global = -1.44889e-20, cumulative = -2.88608e-19
ExecutionTime = 43.45 s  ClockTime = 44 s

Time = 0.005

Courant Number mean: 0.0601764 max: 0.486329
DILUPBiCGStab:  Solving for Ux, Initial residual = 0.00459629, Final residual = 9.77082e-05, No Iterations 5
DILUPBiCGStab:  Solving for Uy, Initial residual = 0.0109681, Final residual = 0.00019389, No Iterations 5
DILUPBiCGStab:  Solving for Uz, Initial residual = 0.0375567, Final residual = 0.00258103, No Iterations 5
nonePCG:  Solving for p, Initial residual = 0.209124, Final residual = 9.92986e-05, No Iterations 1474
time step continuity errors : sum local = 4.19855e-09, global = -1.20429e-20, cumulative = -3.00651e-19
nonePCG:  Solving for p, Initial residual = 0.18743, Final residual = 9.73034e-05, No Iterations 1473
time step continuity errors : sum local = 4.10972e-09, global = -1.45792e-20, cumulative = -3.1523e-19
ExecutionTime = 45.23 s  ClockTime = 46 s

End

Finalising parallel run
