/*---------------------------------------------------------------------------*\
| =========                 |                                                 |
| \\      /  F ield         | OpenFOAM: The Open Source CFD Toolbox           |
|  \\    /   O peration     | Version:  2306                                  |
|   \\  /    A nd           | Website:  www.openfoam.com                      |
|    \\/     M anipulation  |                                                 |
\*---------------------------------------------------------------------------*/
Build  : a6e826bd55-20230630 OPENFOAM=2306 version=v2306
Arch   : "LSB;label=32;scalar=64"
Exec   : simpleFoam -parallel -case /home/greole/data/code/exasim_project/micro_benchmarks/WindsorBody/workspace/b68bb57c02869ce2be06fa54e24d975e/case
Date   : Aug 27 2023
Time   : 13:13:41
Host   : nla-gpu2.ianm.kit.edu
PID    : 3067279
I/O    : uncollated
Case   : /home/greole/data/code/exasim_project/micro_benchmarks/WindsorBody/workspace/b68bb57c02869ce2be06fa54e24d975e/case
nProcs : 32
Hosts  :
(
    (nla-gpu2.ianm.kit.edu 32)
)
Pstream initialized with:
    floatTransfer      : false
    nProcsSimpleSum    : 0
    nonBlockingExchange: 0 (tuning: 0)
    exchange algorithm : -1
    commsType          : nonBlocking
    polling iterations : 0
trapFpe: Floating point exception trapping enabled (FOAM_SIGFPE).
fileModificationChecking : Monitoring run-time modified files using timeStampMaster (fileModificationSkew 5, maxFileModificationPolls 20)
allowSystemOperations : Allowing user-supplied system call operations

// * * * * * * * * * * * * * * * * * * * * * * * * * * * * * * * * * * * * * //
Create time

--> FOAM Warning : 
    From void* Foam::dlLibraryTable::openLibrary(const Foam::fileName&, bool)
    in file db/dynamicLibrary/dlLibraryTable/dlLibraryTable.C at line 188
    Could not load "libpetscFoam.so"
libpetscFoam.so: cannot open shared object file: No such file or directory
Create mesh for time = 0


SIMPLE: convergence criteria
    field p	 tolerance 1e-08
    field U	 tolerance 1e-08
    field k	 tolerance 1e-08
    field omega	 tolerance 1e-08
    field nuTilda	 tolerance 1e-08

Reading field p

Reading field U

Reading/calculating face flux field phi

Selecting incompressible transport model Newtonian
Selecting turbulence model type RAS
Selecting RAS turbulence model SpalartAllmaras
Selecting patchDistMethod meshWave
ft2 term: inactive
RAS
{
    RASModel        SpalartAllmaras;
    turbulence      on;
    printCoeffs     on;
    sigmaNut        0.66666;
    kappa           0.41;
    Cb1             0.1355;
    Cb2             0.622;
    Cw2             0.3;
    Cw3             2;
    Cv1             7.1;
    Cs              0.3;
    ck              0.07000000000000001;
    ft2             false;
    Ct3             1.2;
    Ct4             0.5;
}

No MRF models present

Creating finite volume options from "system/fvOptions"

Selecting finite volume options type velocityDampingConstraint
    Source: velocityDamping
    - selecting all cells
    - selected 50457088 cell(s) with volume 222.6066441282529

Starting time loop

--> FOAM Warning : 
    From bool Foam::functionObjectList::read()
    in file db/functionObjects/functionObjectList/functionObjectList.C at line 1035
    Reading "system/controlDict" at line 2 to 41
    Entry 'lref' is not a dictionary
--> FOAM Warning : 
    From bool Foam::functionObjectList::read()
    in file db/functionObjects/functionObjectList/functionObjectList.C at line 1035
    Reading "system/controlDict" at line 2 to 41
    Entry 'Aref' is not a dictionary
--> FOAM Warning : 
    From bool Foam::functionObjectList::read()
    in file db/functionObjects/functionObjectList/functionObjectList.C at line 1035
    Reading "system/controlDict" at line 2 to 41
    Entry 'yawAngle' is not a dictionary
--> FOAM Warning : 
    From bool Foam::functionObjectList::read()
    in file db/functionObjects/functionObjectList/functionObjectList.C at line 1035
    Reading "system/controlDict" at line 2 to 41
    Entry 'lDomain' is not a dictionary
--> FOAM Warning : 
    From bool Foam::functionObjectList::read()
    in file db/functionObjects/functionObjectList/functionObjectList.C at line 1035
    Reading "system/controlDict" at line 2 to 41
    Entry 'bDomain' is not a dictionary
--> FOAM Warning : 
    From bool Foam::functionObjectList::read()
    in file db/functionObjects/functionObjectList/functionObjectList.C at line 1035
    Reading "system/controlDict" at line 2 to 41
    Entry 'hDomain' is not a dictionary
--> FOAM Warning : 
    From bool Foam::functionObjectList::read()
    in file db/functionObjects/functionObjectList/functionObjectList.C at line 1035
    Reading "system/controlDict" at line 2 to 41
    Entry 'xCenter' is not a dictionary
--> FOAM Warning : 
    From bool Foam::functionObjectList::read()
    in file db/functionObjects/functionObjectList/functionObjectList.C at line 1035
    Reading "system/controlDict" at line 2 to 41
    Entry 'yCenter' is not a dictionary
--> FOAM Warning : 
    From bool Foam::functionObjectList::read()
    in file db/functionObjects/functionObjectList/functionObjectList.C at line 1035
    Reading "system/controlDict" at line 2 to 41
    Entry 'zCenter' is not a dictionary
--> FOAM Warning : 
    From bool Foam::functionObjectList::read()
    in file db/functionObjects/functionObjectList/functionObjectList.C at line 1035
    Reading "system/controlDict" at line 2 to 41
    Entry 'inletPatch' is not a dictionary
--> FOAM Warning : 
    From bool Foam::functionObjectList::read()
    in file db/functionObjects/functionObjectList/functionObjectList.C at line 1035
    Reading "system/controlDict" at line 2 to 41
    Entry 'outletPatch' is not a dictionary
--> FOAM Warning : 
    From bool Foam::functionObjectList::read()
    in file db/functionObjects/functionObjectList/functionObjectList.C at line 1035
    Reading "system/controlDict" at line 2 to 41
    Entry 'wallPatches' is not a dictionary
--> FOAM Warning : 
    From bool Foam::functionObjectList::read()
    in file db/functionObjects/functionObjectList/functionObjectList.C at line 1035
    Reading "system/controlDict" at line 2 to 41
    Entry 'forcesWallPatches' is not a dictionary
--> FOAM Warning : 
    From bool Foam::functionObjectList::read()
    in file db/functionObjects/functionObjectList/functionObjectList.C at line 1035
    Reading "system/controlDict" at line 2 to 41
    Entry 'symmPatches' is not a dictionary
--> FOAM Warning : 
    From bool Foam::functionObjectList::read()
    in file db/functionObjects/functionObjectList/functionObjectList.C at line 1035
    Reading "system/controlDict" at line 2 to 41
    Entry 'Uinf' is not a dictionary
--> FOAM Warning : 
    From bool Foam::functionObjectList::read()
    in file db/functionObjects/functionObjectList/functionObjectList.C at line 1035
    Reading "system/controlDict" at line 2 to 41
    Entry 'UinfMag' is not a dictionary
--> FOAM Warning : 
    From bool Foam::functionObjectList::read()
    in file db/functionObjects/functionObjectList/functionObjectList.C at line 1035
    Reading "system/controlDict" at line 2 to 41
    Entry 'nu' is not a dictionary
--> FOAM Warning : 
    From bool Foam::functionObjectList::read()
    in file db/functionObjects/functionObjectList/functionObjectList.C at line 1035
    Reading "system/controlDict" at line 2 to 41
    Entry 'pref' is not a dictionary
--> FOAM Warning : 
    From bool Foam::functionObjectList::read()
    in file db/functionObjects/functionObjectList/functionObjectList.C at line 1035
    Reading "system/controlDict" at line 2 to 41
    Entry 'viscRatio' is not a dictionary
--> FOAM Warning : 
    From bool Foam::functionObjectList::read()
    in file db/functionObjects/functionObjectList/functionObjectList.C at line 1035
    Reading "system/controlDict" at line 2 to 41
    Entry 'Tu' is not a dictionary
--> FOAM Warning : 
    From bool Foam::functionObjectList::read()
    in file db/functionObjects/functionObjectList/functionObjectList.C at line 1035
    Reading "system/controlDict" at line 2 to 41
    Entry 'LESturbModel' is not a dictionary
--> FOAM Warning : 
    From bool Foam::functionObjectList::read()
    in file db/functionObjects/functionObjectList/functionObjectList.C at line 1035
    Reading "system/controlDict" at line 2 to 41
    Entry 'RASturbModel' is not a dictionary
--> FOAM Warning : 
    From bool Foam::functionObjectList::read()
    in file db/functionObjects/functionObjectList/functionObjectList.C at line 1035
    Reading "system/controlDict" at line 2 to 41
    Entry 'deltaTurb' is not a dictionary
--> FOAM Warning : 
    From bool Foam::functionObjectList::read()
    in file db/functionObjects/functionObjectList/functionObjectList.C at line 1035
    Reading "system/controlDict" at line 2 to 41
    Entry 'dt' is not a dictionary
--> FOAM Warning : 
    From bool Foam::functionObjectList::read()
    in file db/functionObjects/functionObjectList/functionObjectList.C at line 1035
    Reading "system/controlDict" at line 2 to 41
    Entry 'tAvg' is not a dictionary
--> FOAM Warning : 
    From bool Foam::functionObjectList::read()
    in file db/functionObjects/functionObjectList/functionObjectList.C at line 1035
    Reading "system/controlDict" at line 2 to 41
    Entry 'tEnd' is not a dictionary
--> FOAM Warning : 
    From bool Foam::functionObjectList::read()
    in file db/functionObjects/functionObjectList/functionObjectList.C at line 1035
    Reading "system/controlDict" at line 2 to 41
    Entry 'writeInterval_' is not a dictionary
--> FOAM Warning : 
    From bool Foam::functionObjectList::read()
    in file db/functionObjects/functionObjectList/functionObjectList.C at line 1035
    Reading "system/controlDict" at line 2 to 41
    Entry 'nCores' is not a dictionary
--> FOAM Warning : 
    From bool Foam::functionObjectList::read()
    in file db/functionObjects/functionObjectList/functionObjectList.C at line 1035
    Reading "system/controlDict" at line 2 to 41
    Entry 'interpScheme' is not a dictionary
--> FOAM Warning : 
    From bool Foam::functionObjectList::read()
    in file db/functionObjects/functionObjectList/functionObjectList.C at line 1035
    Reading "system/controlDict" at line 2 to 41
    Entry 'probeField' is not a dictionary
wallShearStress wallShearStress:
    processing wall patches: 
        Windsor_Body
        CFDWT_Floor
        Windsor_Pins
        Windsor_Base
        Windsor_Body_2
        CFDWT_Floor_2
        Windsor_Pins_2
        Windsor_Base_2
        Windsor_Body_3
        CFDWT_Floor_3
        Windsor_Pins_3
        Windsor_Base_3
        Windsor_Body_4
        CFDWT_Floor_4
        Windsor_Pins_4
        Windsor_Base_4
        Windsor_Body_5
        CFDWT_Floor_5
        Windsor_Pins_5
        Windsor_Base_5
        Windsor_Body_6
        CFDWT_Floor_6
        Windsor_Pins_6
        Windsor_Base_6
        Windsor_Body_7
        CFDWT_Floor_7
        Windsor_Pins_7
        Windsor_Base_7
        Windsor_Body_8
        CFDWT_Floor_8
        Windsor_Pins_8
        Windsor_Base_8

pressure calc_cp:
    Operating mode: staticCoeff
    Not including hydrostatic effects

forceCoeffs forceCoeffsAll:
    rho: rhoInf
    Freestream density (rhoInf) set to 1
    Not including porosity effects
    magUInf: 40
    lRef   : 0.6375
    Aref   : 0.1124
    rhoInf : 1
    Selecting all coefficients
    - Drag force: Cd
    - Drag force front: Cd(f)
    - Drag force rear: Cd(r)
    - Lift force: Cl
    - Lift force front: Cl(f)
    - Lift force rear: Cl(r)
    - Pitch moment: CmPitch
    - Roll moment: CmRoll
    - Yaw moment: CmYaw
    - Side force: Cs
    - Side force front: Cs(f)
    - Side force rear: Cs(r)


forceCoeffs dragCoeffBase:
    rho: rhoInf
    Freestream density (rhoInf) set to 1
    Not including porosity effects
    magUInf: 40
    lRef   : 0.6375
    Aref   : 0.1124
    rhoInf : 1
    Selecting coefficients:
    - Drag force: Cd


Time = 1

velocityDampingConstraint velocityDamping damped 0 (0%) of cells, with max limit 300
[INFO] MatrixAssemblyU: 3562.751 [ms]
[OGL LOG][lduLduBase.H:119] Initialising OGL
	OGL commit:  4647ee1+
	Branch: PersistentDeviceIdGuard 
	Build type: Release
	Ginkgo version: 1.5.0 ( develop)
	Ginkgo commit: 4292ffdee
	MPI is GPU aware: 1
	Forces host buffer based communication: 0
	CPU ranks per GPU: 1
	Matrix format: Coo
	End OGL_INFO
[OGL LOG][Proc: 0]: global_index_init: 0.092 [ms]
[OGL LOG][Proc: 0]Ux_local_cols: call_init: 0.036 [ms]
[OGL LOG][Proc: 0]Ux_local_rows: call_init: 0.003 [ms]
[OGL LOG][Proc: 0]Ux_local_ldu_map: call_init: 0.003 [ms]
[OGL LOG][Proc: 0]Ux_local_coeffs: call_init: 0.005 [ms]
[OGL LOG][Proc: 0]Ux_non_local_cols: call_init: 0.003 [ms]
[OGL LOG][Proc: 0]Ux_non_local_rows: call_init: 0.003 [ms]
[OGL LOG][Proc: 0]Ux_non_local_ldu_map: call_init: 0.002 [ms]
[OGL LOG][Proc: 0]Ux_non_local_coeffs: call_init: 0.003 [ms]
[OGL LOG][Proc: 0]Ux: init_local_sparsity_pattern: 480.619 [ms]
[OGL LOG][Proc: 0]Ux: init_non_local_sparsity_pattern: 41.256 [ms]
[OGL LOG][Proc: 0]Ux: update_local_matrix_data: 58.892 [ms]
[OGL LOG][Proc: 0]Ux: update_non_local_matrix_data: 0.329 [ms]
[OGL LOG][Proc: 0]device_partition: call_init: 49.531 [ms]
[OGL LOG][Proc: 0]Ux_matrix: call_init: 275.171 [ms]
[OGL LOG][Proc: 0]Ux_rhs: call_init: 19.551 [ms]
[OGL LOG][Proc: 0]Ux_solution: call_init: 3.424 [ms]
[OGL LOG][Preconditioner.H:121] Generate preconditioner BJ MaxBlockSize 1
[OGL LOG][Proc: 0]Ux: init_precond: 6.139 [ms]
[OGL LOG][StoppingCriterion.H:373] Creating stopping criterion with minIter 0 frequency 1
[OGL LOG][Proc: 0]Ux: generate_solver: 0.006 [ms]
[OGL LOG][Proc: 0]Ux: solve: 1851.049 [ms]
[OGL LOG][Proc: 0]Ux: copy_x_back: 8.428000000000001 [ms]
[OGL LOG][lduLduBase.H:336] 
Statistics:
	Time per iteration: 77127 [mu s]
	Time per residual norm calculation: 2481.000000 [mu s]
	Time per iteration and DOF: 1.528566 [ns]
	Retrieve results bandwidth 1.773000 [GByte/s]
[OGL LOG][Proc: 0]Ux: solve_multi_gpu: 2215.227 [ms]
BJhipGKOBiCGStab:  Solving for Ux, Initial residual = 0.9999999999999563, Final residual = 0.05875175405116178, No Iterations 24
[OGL LOG][lduLduBase.H:119] Initialising OGL
	OGL commit:  4647ee1+
	Branch: PersistentDeviceIdGuard 
	Build type: Release
	Ginkgo version: 1.5.0 ( develop)
	Ginkgo commit: 4292ffdee
	MPI is GPU aware: 1
	Forces host buffer based communication: 0
	CPU ranks per GPU: 1
	Matrix format: Coo
	End OGL_INFO
[OGL LOG][Proc: 0]: global_index_init: 0.617 [ms]
[OGL LOG][Proc: 0]Uy_local_cols: call_init: 0.008 [ms]
[OGL LOG][Proc: 0]Uy_local_rows: call_init: 0.003 [ms]
[OGL LOG][Proc: 0]Uy_local_ldu_map: call_init: 0.003 [ms]
[OGL LOG][Proc: 0]Uy_local_coeffs: call_init: 0.004 [ms]
[OGL LOG][Proc: 0]Uy_non_local_cols: call_init: 0.006 [ms]
[OGL LOG][Proc: 0]Uy_non_local_rows: call_init: 0.005 [ms]
[OGL LOG][Proc: 0]Uy_non_local_ldu_map: call_init: 0.005 [ms]
[OGL LOG][Proc: 0]Uy_non_local_coeffs: call_init: 0.005 [ms]
[OGL LOG][Proc: 0]Uy: init_local_sparsity_pattern: 500.313 [ms]
[OGL LOG][Proc: 0]Uy: init_non_local_sparsity_pattern: 104.901 [ms]
[OGL LOG][Proc: 0]Uy: update_local_matrix_data: 68.902 [ms]
[OGL LOG][Proc: 0]Uy: update_non_local_matrix_data: 0.414 [ms]
[OGL LOG][Proc: 0]Uy_matrix: call_init: 239.429 [ms]
[OGL LOG][Proc: 0]Uy_rhs: call_init: 17.785 [ms]
[OGL LOG][Proc: 0]Uy_solution: call_init: 3.609 [ms]
[OGL LOG][Preconditioner.H:121] Generate preconditioner BJ MaxBlockSize 1
[OGL LOG][Proc: 0]Uy: init_precond: 1.547 [ms]
[OGL LOG][StoppingCriterion.H:373] Creating stopping criterion with minIter 0 frequency 1
[OGL LOG][Proc: 0]Uy: generate_solver: 0.001 [ms]
[OGL LOG][Proc: 0]Uy: solve: 477.309 [ms]
[OGL LOG][Proc: 0]Uy: copy_x_back: 8.287000000000001 [ms]
[OGL LOG][lduLduBase.H:336] 
Statistics:
	Time per iteration: 9179 [mu s]
	Time per residual norm calculation: 521.000000 [mu s]
	Time per iteration and DOF: 0.181917 [ns]
	Retrieve results bandwidth 1.803000 [GByte/s]
[OGL LOG][Proc: 0]Uy: solve_multi_gpu: 749.946 [ms]
BJhipGKOBiCGStab:  Solving for Uy, Initial residual = 1.000000000000016, Final residual = 0.0602619515449029, No Iterations 52
[OGL LOG][lduLduBase.H:119] Initialising OGL
	OGL commit:  4647ee1+
	Branch: PersistentDeviceIdGuard 
	Build type: Release
	Ginkgo version: 1.5.0 ( develop)
	Ginkgo commit: 4292ffdee
	MPI is GPU aware: 1
	Forces host buffer based communication: 0
	CPU ranks per GPU: 1
	Matrix format: Coo
	End OGL_INFO
[OGL LOG][Proc: 0]: global_index_init: 0.491 [ms]
[OGL LOG][Proc: 0]Uz_local_cols: call_init: 0.009000000000000001 [ms]
[OGL LOG][Proc: 0]Uz_local_rows: call_init: 0.003 [ms]
[OGL LOG][Proc: 0]Uz_local_ldu_map: call_init: 0.003 [ms]
[OGL LOG][Proc: 0]Uz_local_coeffs: call_init: 0.003 [ms]
[OGL LOG][Proc: 0]Uz_non_local_cols: call_init: 0.003 [ms]
[OGL LOG][Proc: 0]Uz_non_local_rows: call_init: 0.003 [ms]
[OGL LOG][Proc: 0]Uz_non_local_ldu_map: call_init: 0.002 [ms]
[OGL LOG][Proc: 0]Uz_non_local_coeffs: call_init: 0.05 [ms]
[OGL LOG][Proc: 0]Uz: init_local_sparsity_pattern: 506.461 [ms]
[OGL LOG][Proc: 0]Uz: init_non_local_sparsity_pattern: 67.524 [ms]
[OGL LOG][Proc: 0]Uz: update_local_matrix_data: 78.07600000000001 [ms]
[OGL LOG][Proc: 0]Uz: update_non_local_matrix_data: 0.336 [ms]
[OGL LOG][Proc: 0]Uz_matrix: call_init: 239.373 [ms]
[OGL LOG][Proc: 0]Uz_rhs: call_init: 28.322 [ms]
[OGL LOG][Proc: 0]Uz_solution: call_init: 3.595 [ms]
[OGL LOG][Preconditioner.H:121] Generate preconditioner BJ MaxBlockSize 1
[OGL LOG][Proc: 0]Uz: init_precond: 1.856 [ms]
[OGL LOG][StoppingCriterion.H:373] Creating stopping criterion with minIter 0 frequency 1
[OGL LOG][Proc: 0]Uz: generate_solver: 0.001 [ms]
[OGL LOG][Proc: 0]Uz: solve: 142.802 [ms]
[OGL LOG][Proc: 0]Uz: copy_x_back: 8.473000000000001 [ms]
[OGL LOG][lduLduBase.H:336] 
Statistics:
	Time per iteration: 142802 [mu s]
	Time per residual norm calculation: 513.000000 [mu s]
	Time per iteration and DOF: 2.830167 [ns]
	Retrieve results bandwidth 1.764000 [GByte/s]
[OGL LOG][Proc: 0]Uz: solve_multi_gpu: 426.653 [ms]
BJhipGKOBiCGStab:  Solving for Uz, Initial residual = 1.000000000000025, Final residual = 0.09952964467307732, No Iterations 1
[INFO] MomentumPredictor: 5953.229 [ms]
[INFO] MatrixAssemblyPI: 670.105 [ms]
[INFO] MatrixAssemblyPII: 315.269 [ms]
GAMG:  Solving for p, Initial residual = 1, Final residual = 0.009740919974703043, No Iterations 22
[INFO] SolveP: 8174.625 [ms]
time step continuity errors : sum local = 0.003582121157982282, global = 8.343051361848871e-06, cumulative = 8.343051361848871e-06
[INFO] postSolveP: 160.03 [ms]
[OGL LOG][lduLduBase.H:119] Initialising OGL
	OGL commit:  4647ee1+
	Branch: PersistentDeviceIdGuard 
	Build type: Release
	Ginkgo version: 1.5.0 ( develop)
	Ginkgo commit: 4292ffdee
	MPI is GPU aware: 1
	Forces host buffer based communication: 0
	CPU ranks per GPU: 1
	Matrix format: Coo
	End OGL_INFO
[OGL LOG][Proc: 0]: global_index_init: 13.416 [ms]
[OGL LOG][Proc: 0]nuTilda_local_cols: call_init: 0.02 [ms]
[OGL LOG][Proc: 0]nuTilda_local_rows: call_init: 0.004 [ms]
[OGL LOG][Proc: 0]nuTilda_local_ldu_map: call_init: 0.003 [ms]
[OGL LOG][Proc: 0]nuTilda_local_coeffs: call_init: 0.004 [ms]
[OGL LOG][Proc: 0]nuTilda_non_local_cols: call_init: 0.003 [ms]
[OGL LOG][Proc: 0]nuTilda_non_local_rows: call_init: 0.003 [ms]
[OGL LOG][Proc: 0]nuTilda_non_local_ldu_map: call_init: 0.004 [ms]
[OGL LOG][Proc: 0]nuTilda_non_local_coeffs: call_init: 0.004 [ms]
[OGL LOG][Proc: 0]nuTilda: init_local_sparsity_pattern: 474.967 [ms]
[OGL LOG][Proc: 0]nuTilda: init_non_local_sparsity_pattern: 109.979 [ms]
[OGL LOG][Proc: 0]nuTilda: update_local_matrix_data: 75.449 [ms]
[OGL LOG][Proc: 0]nuTilda: update_non_local_matrix_data: 0.242 [ms]
[OGL LOG][Proc: 0]nuTilda_matrix: call_init: 212.605 [ms]
[OGL LOG][Proc: 0]nuTilda_rhs: call_init: 29.981 [ms]
[OGL LOG][Proc: 0]nuTilda_solution: call_init: 5.683 [ms]
[OGL LOG][Preconditioner.H:121] Generate preconditioner BJ MaxBlockSize 1
[OGL LOG][Proc: 0]nuTilda: init_precond: 1.547 [ms]
[OGL LOG][StoppingCriterion.H:373] Creating stopping criterion with minIter 0 frequency 1
[OGL LOG][Proc: 0]nuTilda: generate_solver: 0.001 [ms]
[OGL LOG][Proc: 0]nuTilda: solve: 160.533 [ms]
[OGL LOG][Proc: 0]nuTilda: copy_x_back: 8.007 [ms]
[OGL LOG][lduLduBase.H:336] 
Statistics:
	Time per iteration: 80266 [mu s]
	Time per residual norm calculation: 358.000000 [mu s]
	Time per iteration and DOF: 1.590777 [ns]
	Retrieve results bandwidth 1.867000 [GByte/s]
[OGL LOG][Proc: 0]nuTilda: solve_multi_gpu: 420.357 [ms]
BJhipGKOBiCGStab:  Solving for nuTilda, Initial residual = 0.9999999999998976, Final residual = 0.09400418579232726, No Iterations 2
[INFO] TimeStep: 21875.421 [ms]
ExecutionTime = 65.04000000000001 s  ClockTime = 66 s

--> FOAM Warning : 
    From virtual bool Foam::functionObjects::fieldSelection::checkSelection()
    in file functionObjects/fieldSelections/fieldSelection/fieldSelection.C at line 166
    Field k not found
--> FOAM Warning : 
    From virtual bool Foam::functionObjects::fieldSelection::checkSelection()
    in file functionObjects/fieldSelections/fieldSelection/fieldSelection.C at line 166
    Field gammaInt not found
--> FOAM Warning : 
    From virtual bool Foam::functionObjects::fieldSelection::checkSelection()
    in file functionObjects/fieldSelections/fieldSelection/fieldSelection.C at line 166
    Field omega not found
--> FOAM Warning : 
    From virtual bool Foam::functionObjects::fieldSelection::checkSelection()
    in file functionObjects/fieldSelections/fieldSelection/fieldSelection.C at line 166
    Field ReThetat not found
--> FOAM Warning : 
    From virtual bool Foam::functionObjects::fieldSelection::checkSelection()
    in file functionObjects/fieldSelections/fieldSelection/fieldSelection.C at line 166
    Field epsilon not found
--> FOAM Warning : 
    From virtual bool Foam::functionObjects::solverFieldSelection::updateSelection()
    in file functionObjects/fieldSelections/solverFieldSelection/solverFieldSelection.C at line 85
    Valid solver fields are: 3(U nuTilda p)Time = 2

velocityDampingConstraint velocityDamping damped 0 (0%) of cells, with max limit 300
[INFO] MatrixAssemblyU: 3372.118 [ms]
[OGL LOG][Proc: 0]: global_index_init: 0.123 [ms]
[OGL LOG][Proc: 0]Ux_local_coeffs: call_update: 0.001 [ms]
[OGL LOG][Proc: 0]Ux_non_local_coeffs: call_update: 0 [ms]
[OGL LOG][Proc: 0]Ux: update_local_matrix_data: 81.47800000000001 [ms]
[OGL LOG][Proc: 0]Ux: update_non_local_matrix_data: 0.207 [ms]
[OGL LOG][Proc: 0]Ux_matrix: call_update: 18.733 [ms]
[OGL LOG][Proc: 0]Ux_rhs: call_update: 9.382 [ms]
[OGL LOG][Preconditioner.H:121] Generate preconditioner BJ MaxBlockSize 1
[OGL LOG][Proc: 0]Ux: init_precond: 1.493 [ms]
[OGL LOG][StoppingCriterion.H:373] Creating stopping criterion with minIter 28 frequency 1
[OGL LOG][Proc: 0]Ux: generate_solver: 0.001 [ms]
[OGL LOG][Proc: 0]Ux: solve: 211.409 [ms]
[OGL LOG][Proc: 0]Ux: copy_x_back: 7.126 [ms]
[OGL LOG][lduLduBase.H:336] 
Statistics:
	Time per iteration: 15100 [mu s]
	Time per residual norm calculation: 385.000000 [mu s]
	Time per iteration and DOF: 0.299264 [ns]
	Retrieve results bandwidth 2.097000 [GByte/s]
[OGL LOG][Proc: 0]Ux: solve_multi_gpu: 250.011 [ms]
BJhipGKOBiCGStab:  Solving for Ux, Initial residual = 0.6039361439010064, Final residual = 0.03789750290149965, No Iterations 14
[OGL LOG][Proc: 0]: global_index_init: 0.5650000000000001 [ms]
[OGL LOG][Proc: 0]Uy_local_coeffs: call_update: 0 [ms]
[OGL LOG][Proc: 0]Uy_non_local_coeffs: call_update: 0 [ms]
[OGL LOG][Proc: 0]Uy: update_local_matrix_data: 82.592 [ms]
[OGL LOG][Proc: 0]Uy: update_non_local_matrix_data: 0.2 [ms]
[OGL LOG][Proc: 0]Uy_matrix: call_update: 22.442 [ms]
[OGL LOG][Proc: 0]Uy_rhs: call_update: 4.722 [ms]
[OGL LOG][Preconditioner.H:121] Generate preconditioner BJ MaxBlockSize 1
[OGL LOG][Proc: 0]Uy: init_precond: 1.514 [ms]
[OGL LOG][StoppingCriterion.H:373] Creating stopping criterion with minIter 62 frequency 1
[OGL LOG][Proc: 0]Uy: generate_solver: 0.001 [ms]
[OGL LOG][Proc: 0]Uy: solve: 305.528 [ms]
[OGL LOG][Proc: 0]Uy: copy_x_back: 8.137 [ms]
[OGL LOG][lduLduBase.H:336] 
Statistics:
	Time per iteration: 9855 [mu s]
	Time per residual norm calculation: 380.000000 [mu s]
	Time per iteration and DOF: 0.195314 [ns]
	Retrieve results bandwidth 1.837000 [GByte/s]
[OGL LOG][Proc: 0]Uy: solve_multi_gpu: 344.206 [ms]
BJhipGKOBiCGStab:  Solving for Uy, Initial residual = 0.9976010961030878, Final residual = 0.001233374827025596, No Iterations 31
[OGL LOG][Proc: 0]: global_index_init: 0.527 [ms]
[OGL LOG][Proc: 0]Uz_local_coeffs: call_update: 0 [ms]
[OGL LOG][Proc: 0]Uz_non_local_coeffs: call_update: 0 [ms]
[OGL LOG][Proc: 0]Uz: update_local_matrix_data: 80.502 [ms]
[OGL LOG][Proc: 0]Uz: update_non_local_matrix_data: 0.228 [ms]
[OGL LOG][Proc: 0]Uz_matrix: call_update: 20.069 [ms]
[OGL LOG][Proc: 0]Uz_rhs: call_update: 15.635 [ms]
[OGL LOG][Preconditioner.H:121] Generate preconditioner BJ MaxBlockSize 1
[OGL LOG][Proc: 0]Uz: init_precond: 1.51 [ms]
[OGL LOG][StoppingCriterion.H:373] Creating stopping criterion with minIter 1 frequency 1
[OGL LOG][Proc: 0]Uz: generate_solver: 0.001 [ms]
[OGL LOG][Proc: 0]Uz: solve: 211.27 [ms]
[OGL LOG][Proc: 0]Uz: copy_x_back: 7.751 [ms]
[OGL LOG][lduLduBase.H:336] 
Statistics:
	Time per iteration: 19206 [mu s]
	Time per residual norm calculation: 498.000000 [mu s]
	Time per iteration and DOF: 0.380640 [ns]
	Retrieve results bandwidth 1.928000 [GByte/s]
[OGL LOG][Proc: 0]Uz: solve_multi_gpu: 258.142 [ms]
BJhipGKOBiCGStab:  Solving for Uz, Initial residual = 0.9999822159933612, Final residual = 0.07570326380269739, No Iterations 11
[INFO] MomentumPredictor: 1391.917 [ms]
[INFO] MatrixAssemblyPI: 664.489 [ms]
[INFO] MatrixAssemblyPII: 312.605 [ms]
GAMG:  Solving for p, Initial residual = 0.2201925514446502, Final residual = 0.00215223649038285, No Iterations 11
[INFO] SolveP: 3670.734 [ms]
time step continuity errors : sum local = 0.04431054717326732, global = -0.0004993394202639892, cumulative = -0.0004909963689021403
[INFO] postSolveP: 160.517 [ms]
[OGL LOG][Proc: 0]: global_index_init: 19.019 [ms]
[OGL LOG][Proc: 0]nuTilda_local_coeffs: call_update: 0 [ms]
[OGL LOG][Proc: 0]nuTilda_non_local_coeffs: call_update: 0 [ms]
[OGL LOG][Proc: 0]nuTilda: update_local_matrix_data: 81.657 [ms]
[OGL LOG][Proc: 0]nuTilda: update_non_local_matrix_data: 0.24 [ms]
[OGL LOG][Proc: 0]nuTilda_matrix: call_update: 21.356 [ms]
[OGL LOG][Proc: 0]nuTilda_rhs: call_update: 24.538 [ms]
[OGL LOG][Preconditioner.H:121] Generate preconditioner BJ MaxBlockSize 1
[OGL LOG][Proc: 0]nuTilda: init_precond: 1.481 [ms]
[OGL LOG][StoppingCriterion.H:373] Creating stopping criterion with minIter 3 frequency 1
[OGL LOG][Proc: 0]nuTilda: generate_solver: 0.001 [ms]
[OGL LOG][Proc: 0]nuTilda: solve: 143.587 [ms]
[OGL LOG][Proc: 0]nuTilda: copy_x_back: 8.442 [ms]
[OGL LOG][lduLduBase.H:336] 
Statistics:
	Time per iteration: 71793 [mu s]
	Time per residual norm calculation: 524.000000 [mu s]
	Time per iteration and DOF: 1.422853 [ns]
	Retrieve results bandwidth 1.770000 [GByte/s]
[OGL LOG][Proc: 0]nuTilda: solve_multi_gpu: 202.089 [ms]
BJhipGKOBiCGStab:  Solving for nuTilda, Initial residual = 0.4031989302944813, Final residual = 0.006106649503180738, No Iterations 2
[INFO] TimeStep: 11833.926 [ms]
ExecutionTime = 79.48999999999999 s  ClockTime = 80 s

Time = 3

velocityDampingConstraint velocityDamping damped 7151 (0.01%) of cells, with max limit 300
[INFO] MatrixAssemblyU: 3396.376 [ms]
[OGL LOG][Proc: 0]: global_index_init: 0.08799999999999999 [ms]
[OGL LOG][Proc: 0]Ux_local_coeffs: call_update: 0 [ms]
[OGL LOG][Proc: 0]Ux_non_local_coeffs: call_update: 0 [ms]
[OGL LOG][Proc: 0]Ux: update_local_matrix_data: 77.30800000000001 [ms]
[OGL LOG][Proc: 0]Ux: update_non_local_matrix_data: 0.29 [ms]
[OGL LOG][Proc: 0]Ux_matrix: call_update: 17.399 [ms]
[OGL LOG][Proc: 0]Ux_rhs: call_update: 16.27 [ms]
[OGL LOG][Preconditioner.H:121] Generate preconditioner BJ MaxBlockSize 1
[OGL LOG][Proc: 0]Ux: init_precond: 1.506 [ms]
[OGL LOG][StoppingCriterion.H:373] Creating stopping criterion with minIter 17 frequency 1
[OGL LOG][Proc: 0]Ux: generate_solver: 0.001 [ms]
[OGL LOG][Proc: 0]Ux: solve: 220.155 [ms]
[OGL LOG][Proc: 0]Ux: copy_x_back: 8.493 [ms]
[OGL LOG][lduLduBase.H:336] 
Statistics:
	Time per iteration: 15725 [mu s]
	Time per residual norm calculation: 489.000000 [mu s]
	Time per iteration and DOF: 0.311651 [ns]
	Retrieve results bandwidth 1.760000 [GByte/s]
[OGL LOG][Proc: 0]Ux: solve_multi_gpu: 265.781 [ms]
BJhipGKOBiCGStab:  Solving for Ux, Initial residual = 0.1279963368210283, Final residual = 0.006054646859048058, No Iterations 14
[OGL LOG][Proc: 0]: global_index_init: 0.9430000000000001 [ms]
[OGL LOG][Proc: 0]Uy_local_coeffs: call_update: 0 [ms]
[OGL LOG][Proc: 0]Uy_non_local_coeffs: call_update: 0 [ms]
[OGL LOG][Proc: 0]Uy: update_local_matrix_data: 78.40000000000001 [ms]
[OGL LOG][Proc: 0]Uy: update_non_local_matrix_data: 0.222 [ms]
[OGL LOG][Proc: 0]Uy_matrix: call_update: 27.17 [ms]
[OGL LOG][Proc: 0]Uy_rhs: call_update: 5.729 [ms]
[OGL LOG][Preconditioner.H:121] Generate preconditioner BJ MaxBlockSize 1
[OGL LOG][Proc: 0]Uy: init_precond: 1.518 [ms]
[OGL LOG][StoppingCriterion.H:373] Creating stopping criterion with minIter 37 frequency 1
[OGL LOG][Proc: 0]Uy: generate_solver: 0.001 [ms]
[OGL LOG][Proc: 0]Uy: solve: 242.233 [ms]
[OGL LOG][Proc: 0]Uy: copy_x_back: 8.298999999999999 [ms]
[OGL LOG][lduLduBase.H:336] 
Statistics:
	Time per iteration: 12749 [mu s]
	Time per residual norm calculation: 534.000000 [mu s]
	Time per iteration and DOF: 0.252670 [ns]
	Retrieve results bandwidth 1.801000 [GByte/s]
[OGL LOG][Proc: 0]Uy: solve_multi_gpu: 286.894 [ms]
BJhipGKOBiCGStab:  Solving for Uy, Initial residual = 0.2809460958795429, Final residual = 0.005505249281367289, No Iterations 19
[OGL LOG][Proc: 0]: global_index_init: 0.903 [ms]
[OGL LOG][Proc: 0]Uz_local_coeffs: call_update: 0 [ms]
[OGL LOG][Proc: 0]Uz_non_local_coeffs: call_update: 0 [ms]
[OGL LOG][Proc: 0]Uz: update_local_matrix_data: 80.908 [ms]
[OGL LOG][Proc: 0]Uz: update_non_local_matrix_data: 0.246 [ms]
[OGL LOG][Proc: 0]Uz_matrix: call_update: 17.378 [ms]
[OGL LOG][Proc: 0]Uz_rhs: call_update: 27.583 [ms]
[OGL LOG][Preconditioner.H:121] Generate preconditioner BJ MaxBlockSize 1
[OGL LOG][Proc: 0]Uz: init_precond: 1.457 [ms]
[OGL LOG][StoppingCriterion.H:373] Creating stopping criterion with minIter 13 frequency 1
[OGL LOG][Proc: 0]Uz: generate_solver: 0.001 [ms]
[OGL LOG][Proc: 0]Uz: solve: 210.687 [ms]
[OGL LOG][Proc: 0]Uz: copy_x_back: 7.094 [ms]
[OGL LOG][lduLduBase.H:336] 
Statistics:
	Time per iteration: 17557 [mu s]
	Time per residual norm calculation: 486.000000 [mu s]
	Time per iteration and DOF: 0.347959 [ns]
	Retrieve results bandwidth 2.107000 [GByte/s]
[OGL LOG][Proc: 0]Uz: solve_multi_gpu: 266.144 [ms]
BJhipGKOBiCGStab:  Solving for Uz, Initial residual = 0.2585935382360648, Final residual = 0.02020207979456324, No Iterations 12
[INFO] MomentumPredictor: 1352.507 [ms]
[INFO] MatrixAssemblyPI: 669.582 [ms]
[INFO] MatrixAssemblyPII: 312.367 [ms]
GAMG:  Solving for p, Initial residual = 0.1874930901362931, Final residual = 0.00153566486788873, No Iterations 9
[INFO] SolveP: 3023.426 [ms]
time step continuity errors : sum local = 0.01930075950578106, global = -2.687988442890085e-05, cumulative = -0.0005178762533310412
[INFO] postSolveP: 161.146 [ms]
[OGL LOG][Proc: 0]: global_index_init: 4.527 [ms]
[OGL LOG][Proc: 0]nuTilda_local_coeffs: call_update: 0 [ms]
[OGL LOG][Proc: 0]nuTilda_non_local_coeffs: call_update: 0 [ms]
[OGL LOG][Proc: 0]nuTilda: update_local_matrix_data: 85.239 [ms]
[OGL LOG][Proc: 0]nuTilda: update_non_local_matrix_data: 0.395 [ms]
[OGL LOG][Proc: 0]nuTilda_matrix: call_update: 16.61 [ms]
[OGL LOG][Proc: 0]nuTilda_rhs: call_update: 9.216000000000001 [ms]
[OGL LOG][Preconditioner.H:121] Generate preconditioner BJ MaxBlockSize 1
[OGL LOG][Proc: 0]nuTilda: init_precond: 1.474 [ms]
[OGL LOG][StoppingCriterion.H:373] Creating stopping criterion with minIter 2 frequency 1
[OGL LOG][Proc: 0]nuTilda: generate_solver: 0.001 [ms]
[OGL LOG][Proc: 0]nuTilda: solve: 164.128 [ms]
[OGL LOG][Proc: 0]nuTilda: copy_x_back: 8.638 [ms]
[OGL LOG][lduLduBase.H:336] 
Statistics:
	Time per iteration: 82064 [mu s]
	Time per residual norm calculation: 537.000000 [mu s]
	Time per iteration and DOF: 1.626412 [ns]
	Retrieve results bandwidth 1.730000 [GByte/s]
[OGL LOG][Proc: 0]nuTilda: solve_multi_gpu: 202.018 [ms]
BJhipGKOBiCGStab:  Solving for nuTilda, Initial residual = 0.1894226232285378, Final residual = 0.01381040084237993, No Iterations 2
bounding nuTilda, min: -1.755535262572734e-05 max: 0.0008871214038266541 average: 7.954666773144055e-05
[INFO] TimeStep: 11328.017 [ms]
ExecutionTime = 93.42 s  ClockTime = 94 s

Time = 4

velocityDampingConstraint velocityDamping damped 792 (0%) of cells, with max limit 300
[INFO] MatrixAssemblyU: 3450.365 [ms]
[OGL LOG][Proc: 0]: global_index_init: 0.112 [ms]
[OGL LOG][Proc: 0]Ux_local_coeffs: call_update: 0 [ms]
[OGL LOG][Proc: 0]Ux_non_local_coeffs: call_update: 0 [ms]
[OGL LOG][Proc: 0]Ux: update_local_matrix_data: 79.792 [ms]
[OGL LOG][Proc: 0]Ux: update_non_local_matrix_data: 0.22 [ms]
[OGL LOG][Proc: 0]Ux_matrix: call_update: 18.673 [ms]
[OGL LOG][Proc: 0]Ux_rhs: call_update: 11.681 [ms]
[OGL LOG][Preconditioner.H:121] Generate preconditioner BJ MaxBlockSize 1
[OGL LOG][Proc: 0]Ux: init_precond: 1.497 [ms]
[OGL LOG][StoppingCriterion.H:373] Creating stopping criterion with minIter 16 frequency 1
[OGL LOG][Proc: 0]Ux: generate_solver: 0.001 [ms]
[OGL LOG][Proc: 0]Ux: solve: 216.117 [ms]
[OGL LOG][Proc: 0]Ux: copy_x_back: 8.07 [ms]
[OGL LOG][lduLduBase.H:336] 
Statistics:
	Time per iteration: 19647 [mu s]
	Time per residual norm calculation: 362.000000 [mu s]
	Time per iteration and DOF: 0.389380 [ns]
	Retrieve results bandwidth 1.852000 [GByte/s]
[OGL LOG][Proc: 0]Ux: solve_multi_gpu: 257.907 [ms]
BJhipGKOBiCGStab:  Solving for Ux, Initial residual = 0.1583704849018815, Final residual = 0.01542045554537729, No Iterations 11
[OGL LOG][Proc: 0]: global_index_init: 0.152 [ms]
[OGL LOG][Proc: 0]Uy_local_coeffs: call_update: 0 [ms]
[OGL LOG][Proc: 0]Uy_non_local_coeffs: call_update: 0 [ms]
[OGL LOG][Proc: 0]Uy: update_local_matrix_data: 81.35600000000001 [ms]
[OGL LOG][Proc: 0]Uy: update_non_local_matrix_data: 0.334 [ms]
[OGL LOG][Proc: 0]Uy_matrix: call_update: 21.207 [ms]
[OGL LOG][Proc: 0]Uy_rhs: call_update: 9.815 [ms]
[OGL LOG][Preconditioner.H:121] Generate preconditioner BJ MaxBlockSize 1
[OGL LOG][Proc: 0]Uy: init_precond: 1.487 [ms]
[OGL LOG][StoppingCriterion.H:373] Creating stopping criterion with minIter 22 frequency 1
[OGL LOG][Proc: 0]Uy: generate_solver: 0.001 [ms]
[OGL LOG][Proc: 0]Uy: solve: 214.64 [ms]
[OGL LOG][Proc: 0]Uy: copy_x_back: 8.198 [ms]
[OGL LOG][lduLduBase.H:336] 
Statistics:
	Time per iteration: 17886 [mu s]
	Time per residual norm calculation: 499.000000 [mu s]
	Time per iteration and DOF: 0.354479 [ns]
	Retrieve results bandwidth 1.823000 [GByte/s]
[OGL LOG][Proc: 0]Uy: solve_multi_gpu: 257.267 [ms]
BJhipGKOBiCGStab:  Solving for Uy, Initial residual = 0.2077420701350784, Final residual = 0.01543636614426686, No Iterations 12
[OGL LOG][Proc: 0]: global_index_init: 0.5720000000000001 [ms]
[OGL LOG][Proc: 0]Uz_local_coeffs: call_update: 0 [ms]
[OGL LOG][Proc: 0]Uz_non_local_coeffs: call_update: 0 [ms]
[OGL LOG][Proc: 0]Uz: update_local_matrix_data: 79.794 [ms]
[OGL LOG][Proc: 0]Uz: update_non_local_matrix_data: 0.333 [ms]
[OGL LOG][Proc: 0]Uz_matrix: call_update: 22.233 [ms]
[OGL LOG][Proc: 0]Uz_rhs: call_update: 13.349 [ms]
[OGL LOG][Preconditioner.H:121] Generate preconditioner BJ MaxBlockSize 1
[OGL LOG][Proc: 0]Uz: init_precond: 1.511 [ms]
[OGL LOG][StoppingCriterion.H:373] Creating stopping criterion with minIter 14 frequency 1
[OGL LOG][Proc: 0]Uz: generate_solver: 0.001 [ms]
[OGL LOG][Proc: 0]Uz: solve: 208.265 [ms]
[OGL LOG][Proc: 0]Uz: copy_x_back: 8.24 [ms]
[OGL LOG][lduLduBase.H:336] 
Statistics:
	Time per iteration: 18933 [mu s]
	Time per residual norm calculation: 359.000000 [mu s]
	Time per iteration and DOF: 0.375230 [ns]
	Retrieve results bandwidth 1.814000 [GByte/s]
[OGL LOG][Proc: 0]Uz: solve_multi_gpu: 255.486 [ms]
BJhipGKOBiCGStab:  Solving for Uz, Initial residual = 0.196001224693364, Final residual = 0.01894592468237912, No Iterations 11
[INFO] MomentumPredictor: 1310.675 [ms]
[INFO] MatrixAssemblyPI: 667.266 [ms]
[INFO] MatrixAssemblyPII: 312.645 [ms]
GAMG:  Solving for p, Initial residual = 0.1207514471027406, Final residual = 0.00088661057927486, No Iterations 9
[INFO] SolveP: 3031.014 [ms]
time step continuity errors : sum local = 0.01219954488799408, global = -0.0002275040415999114, cumulative = -0.0007453802949309526
[INFO] postSolveP: 159.083 [ms]
[OGL LOG][Proc: 0]: global_index_init: 16.235 [ms]
[OGL LOG][Proc: 0]nuTilda_local_coeffs: call_update: 0 [ms]
[OGL LOG][Proc: 0]nuTilda_non_local_coeffs: call_update: 0 [ms]
[OGL LOG][Proc: 0]nuTilda: update_local_matrix_data: 80.752 [ms]
[OGL LOG][Proc: 0]nuTilda: update_non_local_matrix_data: 0.223 [ms]
[OGL LOG][Proc: 0]nuTilda_matrix: call_update: 16.273 [ms]
[OGL LOG][Proc: 0]nuTilda_rhs: call_update: 14.55 [ms]
[OGL LOG][Preconditioner.H:121] Generate preconditioner BJ MaxBlockSize 1
[OGL LOG][Proc: 0]nuTilda: init_precond: 1.463 [ms]
[OGL LOG][StoppingCriterion.H:373] Creating stopping criterion with minIter 2 frequency 1
[OGL LOG][Proc: 0]nuTilda: generate_solver: 0.001 [ms]
[OGL LOG][Proc: 0]nuTilda: solve: 154.901 [ms]
[OGL LOG][Proc: 0]nuTilda: copy_x_back: 8.448 [ms]
[OGL LOG][lduLduBase.H:336] 
Statistics:
	Time per iteration: 77450 [mu s]
	Time per residual norm calculation: 488.000000 [mu s]
	Time per iteration and DOF: 1.534968 [ns]
	Retrieve results bandwidth 1.769000 [GByte/s]
[OGL LOG][Proc: 0]nuTilda: solve_multi_gpu: 197.746 [ms]
BJhipGKOBiCGStab:  Solving for nuTilda, Initial residual = 0.1128117611478869, Final residual = 0.008823321450009223, No Iterations 2
bounding nuTilda, min: -6.447421978084162e-06 max: 0.001006475905211869 average: 8.440648512987824e-05
[INFO] TimeStep: 11332.572 [ms]
ExecutionTime = 107.4 s  ClockTime = 108 s

Time = 5

velocityDampingConstraint velocityDamping damped 398 (0%) of cells, with max limit 300
[INFO] MatrixAssemblyU: 3442.106 [ms]
[OGL LOG][Proc: 0]: global_index_init: 0.989 [ms]
[OGL LOG][Proc: 0]Ux_local_coeffs: call_update: 0 [ms]
[OGL LOG][Proc: 0]Ux_non_local_coeffs: call_update: 0 [ms]
[OGL LOG][Proc: 0]Ux: update_local_matrix_data: 81.422 [ms]
[OGL LOG][Proc: 0]Ux: update_non_local_matrix_data: 0.214 [ms]
[OGL LOG][Proc: 0]Ux_matrix: call_update: 24.953 [ms]
[OGL LOG][Proc: 0]Ux_rhs: call_update: 4.258 [ms]
[OGL LOG][Preconditioner.H:121] Generate preconditioner BJ MaxBlockSize 1
[OGL LOG][Proc: 0]Ux: init_precond: 1.552 [ms]
[OGL LOG][StoppingCriterion.H:373] Creating stopping criterion with minIter 13 frequency 1
[OGL LOG][Proc: 0]Ux: generate_solver: 0.001 [ms]
[OGL LOG][Proc: 0]Ux: solve: 211.744 [ms]
[OGL LOG][Proc: 0]Ux: copy_x_back: 7.54 [ms]
[OGL LOG][lduLduBase.H:336] 
Statistics:
	Time per iteration: 17645 [mu s]
	Time per residual norm calculation: 490.000000 [mu s]
	Time per iteration and DOF: 0.349703 [ns]
	Retrieve results bandwidth 1.982000 [GByte/s]
[OGL LOG][Proc: 0]Ux: solve_multi_gpu: 251.911 [ms]
BJhipGKOBiCGStab:  Solving for Ux, Initial residual = 0.06820645557776749, Final residual = 0.005289358256967368, No Iterations 12
[OGL LOG][Proc: 0]: global_index_init: 0.659 [ms]
[OGL LOG][Proc: 0]Uy_local_coeffs: call_update: 0 [ms]
[OGL LOG][Proc: 0]Uy_non_local_coeffs: call_update: 0 [ms]
[OGL LOG][Proc: 0]Uy: update_local_matrix_data: 80.15600000000001 [ms]
[OGL LOG][Proc: 0]Uy: update_non_local_matrix_data: 0.279 [ms]
[OGL LOG][Proc: 0]Uy_matrix: call_update: 15.607 [ms]
[OGL LOG][Proc: 0]Uy_rhs: call_update: 12.026 [ms]
[OGL LOG][Preconditioner.H:121] Generate preconditioner BJ MaxBlockSize 1
[OGL LOG][Proc: 0]Uy: init_precond: 1.501 [ms]
[OGL LOG][StoppingCriterion.H:373] Creating stopping criterion with minIter 14 frequency 1
[OGL LOG][Proc: 0]Uy: generate_solver: 0.001 [ms]
[OGL LOG][Proc: 0]Uy: solve: 206.05 [ms]
[OGL LOG][Proc: 0]Uy: copy_x_back: 7.421 [ms]
[OGL LOG][lduLduBase.H:336] 
Statistics:
	Time per iteration: 17170 [mu s]
	Time per residual norm calculation: 520.000000 [mu s]
	Time per iteration and DOF: 0.340289 [ns]
	Retrieve results bandwidth 2.014000 [GByte/s]
[OGL LOG][Proc: 0]Uy: solve_multi_gpu: 244.554 [ms]
BJhipGKOBiCGStab:  Solving for Uy, Initial residual = 0.1406647706242377, Final residual = 0.009350471325766649, No Iterations 12
[OGL LOG][Proc: 0]: global_index_init: 0.63 [ms]
[OGL LOG][Proc: 0]Uz_local_coeffs: call_update: 0 [ms]
[OGL LOG][Proc: 0]Uz_non_local_coeffs: call_update: 0 [ms]
[OGL LOG][Proc: 0]Uz: update_local_matrix_data: 81.476 [ms]
[OGL LOG][Proc: 0]Uz: update_non_local_matrix_data: 0.233 [ms]
[OGL LOG][Proc: 0]Uz_matrix: call_update: 17.405 [ms]
[OGL LOG][Proc: 0]Uz_rhs: call_update: 18.245 [ms]
[OGL LOG][Preconditioner.H:121] Generate preconditioner BJ MaxBlockSize 1
[OGL LOG][Proc: 0]Uz: init_precond: 1.518 [ms]
[OGL LOG][StoppingCriterion.H:373] Creating stopping criterion with minIter 13 frequency 1
[OGL LOG][Proc: 0]Uz: generate_solver: 0.001 [ms]
[OGL LOG][Proc: 0]Uz: solve: 203.811 [ms]
[OGL LOG][Proc: 0]Uz: copy_x_back: 8.029999999999999 [ms]
[OGL LOG][lduLduBase.H:336] 
Statistics:
	Time per iteration: 20381 [mu s]
	Time per residual norm calculation: 513.000000 [mu s]
	Time per iteration and DOF: 0.403927 [ns]
	Retrieve results bandwidth 1.861000 [GByte/s]
[OGL LOG][Proc: 0]Uz: solve_multi_gpu: 250.905 [ms]
BJhipGKOBiCGStab:  Solving for Uz, Initial residual = 0.1423700477820726, Final residual = 0.01372290360590741, No Iterations 10
[INFO] MomentumPredictor: 1286.459 [ms]
[INFO] MatrixAssemblyPI: 665.623 [ms]
[INFO] MatrixAssemblyPII: 311.154 [ms]
GAMG:  Solving for p, Initial residual = 0.1092441931841062, Final residual = 0.001063985332224546, No Iterations 8
[INFO] SolveP: 2710.002 [ms]
time step continuity errors : sum local = 0.01074710385400421, global = -4.765399287110055e-06, cumulative = -0.0007501456942180627
[INFO] postSolveP: 167.208 [ms]
[OGL LOG][Proc: 0]: global_index_init: 12.948 [ms]
[OGL LOG][Proc: 0]nuTilda_local_coeffs: call_update: 0 [ms]
[OGL LOG][Proc: 0]nuTilda_non_local_coeffs: call_update: 0 [ms]
[OGL LOG][Proc: 0]nuTilda: update_local_matrix_data: 82.586 [ms]
[OGL LOG][Proc: 0]nuTilda: update_non_local_matrix_data: 0.24 [ms]
[OGL LOG][Proc: 0]nuTilda_matrix: call_update: 18.79 [ms]
[OGL LOG][Proc: 0]nuTilda_rhs: call_update: 29.322 [ms]
[OGL LOG][Preconditioner.H:121] Generate preconditioner BJ MaxBlockSize 1
[OGL LOG][Proc: 0]nuTilda: init_precond: 1.489 [ms]
[OGL LOG][StoppingCriterion.H:373] Creating stopping criterion with minIter 2 frequency 1
[OGL LOG][Proc: 0]nuTilda: generate_solver: 0.001 [ms]
[OGL LOG][Proc: 0]nuTilda: solve: 155.676 [ms]
[OGL LOG][Proc: 0]nuTilda: copy_x_back: 8.381 [ms]
[OGL LOG][lduLduBase.H:336] 
Statistics:
	Time per iteration: 77838 [mu s]
	Time per residual norm calculation: 489.000000 [mu s]
	Time per iteration and DOF: 1.542657 [ns]
	Retrieve results bandwidth 1.783000 [GByte/s]
[OGL LOG][Proc: 0]nuTilda: solve_multi_gpu: 215.548 [ms]
BJhipGKOBiCGStab:  Solving for nuTilda, Initial residual = 0.06286785961989377, Final residual = 0.005017267845398958, No Iterations 2
[INFO] TimeStep: 10859.767 [ms]
ExecutionTime = 120.89 s  ClockTime = 122 s

Time = 6

velocityDampingConstraint velocityDamping damped 0 (0%) of cells, with max limit 300
[INFO] MatrixAssemblyU: 3407.736 [ms]
[OGL LOG][Proc: 0]: global_index_init: 0.355 [ms]
[OGL LOG][Proc: 0]Ux_local_coeffs: call_update: 0 [ms]
[OGL LOG][Proc: 0]Ux_non_local_coeffs: call_update: 0 [ms]
[OGL LOG][Proc: 0]Ux: update_local_matrix_data: 79.654 [ms]
[OGL LOG][Proc: 0]Ux: update_non_local_matrix_data: 0.272 [ms]
[OGL LOG][Proc: 0]Ux_matrix: call_update: 23.634 [ms]
[OGL LOG][Proc: 0]Ux_rhs: call_update: 6.654 [ms]
[OGL LOG][Preconditioner.H:121] Generate preconditioner BJ MaxBlockSize 1
[OGL LOG][Proc: 0]Ux: init_precond: 1.512 [ms]
[OGL LOG][StoppingCriterion.H:373] Creating stopping criterion with minIter 14 frequency 1
[OGL LOG][Proc: 0]Ux: generate_solver: 0.001 [ms]
[OGL LOG][Proc: 0]Ux: solve: 192.266 [ms]
[OGL LOG][Proc: 0]Ux: copy_x_back: 7.692 [ms]
[OGL LOG][lduLduBase.H:336] 
Statistics:
	Time per iteration: 19226 [mu s]
	Time per residual norm calculation: 366.000000 [mu s]
	Time per iteration and DOF: 0.381037 [ns]
	Retrieve results bandwidth 1.943000 [GByte/s]
[OGL LOG][Proc: 0]Ux: solve_multi_gpu: 233.637 [ms]
BJhipGKOBiCGStab:  Solving for Ux, Initial residual = 0.03888328203523825, Final residual = 0.003688023334315777, No Iterations 10
[OGL LOG][Proc: 0]: global_index_init: 0.844 [ms]
[OGL LOG][Proc: 0]Uy_local_coeffs: call_update: 0 [ms]
[OGL LOG][Proc: 0]Uy_non_local_coeffs: call_update: 0 [ms]
[OGL LOG][Proc: 0]Uy: update_local_matrix_data: 80.57600000000001 [ms]
[OGL LOG][Proc: 0]Uy: update_non_local_matrix_data: 0.238 [ms]
[OGL LOG][Proc: 0]Uy_matrix: call_update: 14.74 [ms]
[OGL LOG][Proc: 0]Uy_rhs: call_update: 17.293 [ms]
[OGL LOG][Preconditioner.H:121] Generate preconditioner BJ MaxBlockSize 1
[OGL LOG][Proc: 0]Uy: init_precond: 1.506 [ms]
[OGL LOG][StoppingCriterion.H:373] Creating stopping criterion with minIter 14 frequency 1
[OGL LOG][Proc: 0]Uy: generate_solver: 0.001 [ms]
[OGL LOG][Proc: 0]Uy: solve: 221.73 [ms]
[OGL LOG][Proc: 0]Uy: copy_x_back: 7.946 [ms]
[OGL LOG][lduLduBase.H:336] 
Statistics:
	Time per iteration: 15837 [mu s]
	Time per residual norm calculation: 532.000000 [mu s]
	Time per iteration and DOF: 0.313871 [ns]
	Retrieve results bandwidth 1.881000 [GByte/s]
[OGL LOG][Proc: 0]Uy: solve_multi_gpu: 265.067 [ms]
BJhipGKOBiCGStab:  Solving for Uy, Initial residual = 0.1025258856995333, Final residual = 0.006419163609875344, No Iterations 14
[OGL LOG][Proc: 0]: global_index_init: 0.531 [ms]
[OGL LOG][Proc: 0]Uz_local_coeffs: call_update: 0 [ms]
[OGL LOG][Proc: 0]Uz_non_local_coeffs: call_update: 0 [ms]
[OGL LOG][Proc: 0]Uz: update_local_matrix_data: 79.361 [ms]
[OGL LOG][Proc: 0]Uz: update_non_local_matrix_data: 0.202 [ms]
[OGL LOG][Proc: 0]Uz_matrix: call_update: 23.706 [ms]
[OGL LOG][Proc: 0]Uz_rhs: call_update: 13.552 [ms]
[OGL LOG][Preconditioner.H:121] Generate preconditioner BJ MaxBlockSize 1
[OGL LOG][Proc: 0]Uz: init_precond: 1.481 [ms]
[OGL LOG][StoppingCriterion.H:373] Creating stopping criterion with minIter 12 frequency 1
[OGL LOG][Proc: 0]Uz: generate_solver: 0.001 [ms]
[OGL LOG][Proc: 0]Uz: solve: 226.932 [ms]
[OGL LOG][Proc: 0]Uz: copy_x_back: 7.131 [ms]
[OGL LOG][lduLduBase.H:336] 
Statistics:
	Time per iteration: 15128 [mu s]
	Time per residual norm calculation: 495.000000 [mu s]
	Time per iteration and DOF: 0.299819 [ns]
	Retrieve results bandwidth 2.096000 [GByte/s]
[OGL LOG][Proc: 0]Uz: solve_multi_gpu: 274.716 [ms]
BJhipGKOBiCGStab:  Solving for Uz, Initial residual = 0.1045494336846936, Final residual = 0.003623502254386871, No Iterations 15
[INFO] MomentumPredictor: 1310.273 [ms]
[INFO] MatrixAssemblyPI: 666.275 [ms]
[INFO] MatrixAssemblyPII: 311.772 [ms]
GAMG:  Solving for p, Initial residual = 0.1097081465251563, Final residual = 0.0009203731521733229, No Iterations 7
[INFO] SolveP: 2401.589 [ms]
time step continuity errors : sum local = 0.008524541316921324, global = 0.0001386310210812031, cumulative = -0.0006115146731368597
[INFO] postSolveP: 158.838 [ms]
[OGL LOG][Proc: 0]: global_index_init: 9.941000000000001 [ms]
[OGL LOG][Proc: 0]nuTilda_local_coeffs: call_update: 0 [ms]
[OGL LOG][Proc: 0]nuTilda_non_local_coeffs: call_update: 0 [ms]
[OGL LOG][Proc: 0]nuTilda: update_local_matrix_data: 84.611 [ms]
[OGL LOG][Proc: 0]nuTilda: update_non_local_matrix_data: 0.31 [ms]
[OGL LOG][Proc: 0]nuTilda_matrix: call_update: 21.015 [ms]
[OGL LOG][Proc: 0]nuTilda_rhs: call_update: 12.024 [ms]
[OGL LOG][Preconditioner.H:121] Generate preconditioner BJ MaxBlockSize 1
[OGL LOG][Proc: 0]nuTilda: init_precond: 1.488 [ms]
[OGL LOG][StoppingCriterion.H:373] Creating stopping criterion with minIter 2 frequency 1
[OGL LOG][Proc: 0]nuTilda: generate_solver: 0.001 [ms]
[OGL LOG][Proc: 0]nuTilda: solve: 150.858 [ms]
[OGL LOG][Proc: 0]nuTilda: copy_x_back: 8.19 [ms]
[OGL LOG][lduLduBase.H:336] 
Statistics:
	Time per iteration: 75429 [mu s]
	Time per residual norm calculation: 537.000000 [mu s]
	Time per iteration and DOF: 1.494914 [ns]
	Retrieve results bandwidth 1.825000 [GByte/s]
[OGL LOG][Proc: 0]nuTilda: solve_multi_gpu: 199.105 [ms]
BJhipGKOBiCGStab:  Solving for nuTilda, Initial residual = 0.05665197987687447, Final residual = 0.005444278701505915, No Iterations 2
bounding nuTilda, min: -3.540733340301209e-05 max: 0.001341322611318942 average: 9.047624177747583e-05
[INFO] TimeStep: 10647.904 [ms]
ExecutionTime = 134.16 s  ClockTime = 135 s

Time = 7

velocityDampingConstraint velocityDamping damped 0 (0%) of cells, with max limit 300
[INFO] MatrixAssemblyU: 3406.659 [ms]
[OGL LOG][Proc: 0]: global_index_init: 0.125 [ms]
[OGL LOG][Proc: 0]Ux_local_coeffs: call_update: 0 [ms]
[OGL LOG][Proc: 0]Ux_non_local_coeffs: call_update: 0 [ms]
[OGL LOG][Proc: 0]Ux: update_local_matrix_data: 77.081 [ms]
[OGL LOG][Proc: 0]Ux: update_non_local_matrix_data: 0.241 [ms]
[OGL LOG][Proc: 0]Ux_matrix: call_update: 22.046 [ms]
[OGL LOG][Proc: 0]Ux_rhs: call_update: 12.976 [ms]
[OGL LOG][Preconditioner.H:121] Generate preconditioner BJ MaxBlockSize 1
[OGL LOG][Proc: 0]Ux: init_precond: 4.774 [ms]
[OGL LOG][StoppingCriterion.H:373] Creating stopping criterion with minIter 12 frequency 1
[OGL LOG][Proc: 0]Ux: generate_solver: 0.001 [ms]
[OGL LOG][Proc: 0]Ux: solve: 202.614 [ms]
[OGL LOG][Proc: 0]Ux: copy_x_back: 8.340999999999999 [ms]
[OGL LOG][lduLduBase.H:336] 
Statistics:
	Time per iteration: 20261 [mu s]
	Time per residual norm calculation: 361.000000 [mu s]
	Time per iteration and DOF: 0.401549 [ns]
	Retrieve results bandwidth 1.792000 [GByte/s]
[OGL LOG][Proc: 0]Ux: solve_multi_gpu: 252.711 [ms]
BJhipGKOBiCGStab:  Solving for Ux, Initial residual = 0.02782179639707815, Final residual = 0.002566830741568254, No Iterations 10
[OGL LOG][Proc: 0]: global_index_init: 0.874 [ms]
[OGL LOG][Proc: 0]Uy_local_coeffs: call_update: 0 [ms]
[OGL LOG][Proc: 0]Uy_non_local_coeffs: call_update: 0 [ms]
[OGL LOG][Proc: 0]Uy: update_local_matrix_data: 80.986 [ms]
[OGL LOG][Proc: 0]Uy: update_non_local_matrix_data: 0.352 [ms]
[OGL LOG][Proc: 0]Uy_matrix: call_update: 21.798 [ms]
[OGL LOG][Proc: 0]Uy_rhs: call_update: 12.304 [ms]
[OGL LOG][Preconditioner.H:121] Generate preconditioner BJ MaxBlockSize 1
[OGL LOG][Proc: 0]Uy: init_precond: 1.477 [ms]
[OGL LOG][StoppingCriterion.H:373] Creating stopping criterion with minIter 16 frequency 1
[OGL LOG][Proc: 0]Uy: generate_solver: 0.001 [ms]
[OGL LOG][Proc: 0]Uy: solve: 229.284 [ms]
[OGL LOG][Proc: 0]Uy: copy_x_back: 7.74 [ms]
[OGL LOG][lduLduBase.H:336] 
Statistics:
	Time per iteration: 15285 [mu s]
	Time per residual norm calculation: 518.000000 [mu s]
	Time per iteration and DOF: 0.302931 [ns]
	Retrieve results bandwidth 1.931000 [GByte/s]
[OGL LOG][Proc: 0]Uy: solve_multi_gpu: 274.508 [ms]
BJhipGKOBiCGStab:  Solving for Uy, Initial residual = 0.07952526419839315, Final residual = 0.003132645033425236, No Iterations 15
[OGL LOG][Proc: 0]: global_index_init: 0.517 [ms]
[OGL LOG][Proc: 0]Uz_local_coeffs: call_update: 0 [ms]
[OGL LOG][Proc: 0]Uz_non_local_coeffs: call_update: 0 [ms]
[OGL LOG][Proc: 0]Uz: update_local_matrix_data: 80.286 [ms]
[OGL LOG][Proc: 0]Uz: update_non_local_matrix_data: 0.35 [ms]
[OGL LOG][Proc: 0]Uz_matrix: call_update: 21.026 [ms]
[OGL LOG][Proc: 0]Uz_rhs: call_update: 11.649 [ms]
[OGL LOG][Preconditioner.H:121] Generate preconditioner BJ MaxBlockSize 1
[OGL LOG][Proc: 0]Uz: init_precond: 1.481 [ms]
[OGL LOG][StoppingCriterion.H:373] Creating stopping criterion with minIter 18 frequency 1
[OGL LOG][Proc: 0]Uz: generate_solver: 0.001 [ms]
[OGL LOG][Proc: 0]Uz: solve: 195.127 [ms]
[OGL LOG][Proc: 0]Uz: copy_x_back: 8.262 [ms]
[OGL LOG][lduLduBase.H:336] 
Statistics:
	Time per iteration: 19512 [mu s]
	Time per residual norm calculation: 496.000000 [mu s]
	Time per iteration and DOF: 0.386705 [ns]
	Retrieve results bandwidth 1.809000 [GByte/s]
[OGL LOG][Proc: 0]Uz: solve_multi_gpu: 239.383 [ms]
BJhipGKOBiCGStab:  Solving for Uz, Initial residual = 0.1215879956977061, Final residual = 0.01149328622861873, No Iterations 10
[INFO] MomentumPredictor: 1301.278 [ms]
[INFO] MatrixAssemblyPI: 668.023 [ms]
[INFO] MatrixAssemblyPII: 312.226 [ms]
GAMG:  Solving for p, Initial residual = 0.09690880107804918, Final residual = 0.0009361638524503552, No Iterations 6
[INFO] SolveP: 2077.1 [ms]
time step continuity errors : sum local = 0.008517967916087455, global = 3.427770375049136e-05, cumulative = -0.0005772369693863683
[INFO] postSolveP: 159.971 [ms]
[OGL LOG][Proc: 0]: global_index_init: 11.124 [ms]
[OGL LOG][Proc: 0]nuTilda_local_coeffs: call_update: 0 [ms]
[OGL LOG][Proc: 0]nuTilda_non_local_coeffs: call_update: 0 [ms]
[OGL LOG][Proc: 0]nuTilda: update_local_matrix_data: 81.896 [ms]
[OGL LOG][Proc: 0]nuTilda: update_non_local_matrix_data: 0.24 [ms]
[OGL LOG][Proc: 0]nuTilda_matrix: call_update: 20.24 [ms]
[OGL LOG][Proc: 0]nuTilda_rhs: call_update: 10.686 [ms]
[OGL LOG][Preconditioner.H:121] Generate preconditioner BJ MaxBlockSize 1
[OGL LOG][Proc: 0]nuTilda: init_precond: 1.49 [ms]
[OGL LOG][StoppingCriterion.H:373] Creating stopping criterion with minIter 2 frequency 1
[OGL LOG][Proc: 0]nuTilda: generate_solver: 0.001 [ms]
[OGL LOG][Proc: 0]nuTilda: solve: 149.152 [ms]
[OGL LOG][Proc: 0]nuTilda: copy_x_back: 8.149000000000001 [ms]
[OGL LOG][lduLduBase.H:336] 
Statistics:
	Time per iteration: 74576 [mu s]
	Time per residual norm calculation: 359.000000 [mu s]
	Time per iteration and DOF: 1.478008 [ns]
	Retrieve results bandwidth 1.834000 [GByte/s]
[OGL LOG][Proc: 0]nuTilda: solve_multi_gpu: 191.721 [ms]
BJhipGKOBiCGStab:  Solving for nuTilda, Initial residual = 0.04678060301037074, Final residual = 0.001885553546137041, No Iterations 2
[INFO] TimeStep: 10182.352 [ms]
ExecutionTime = 146.95 s  ClockTime = 148 s

Time = 8

velocityDampingConstraint velocityDamping damped 0 (0%) of cells, with max limit 300
[INFO] MatrixAssemblyU: 3403.752 [ms]
[OGL LOG][Proc: 0]: global_index_init: 0.331 [ms]
[OGL LOG][Proc: 0]Ux_local_coeffs: call_update: 0 [ms]
[OGL LOG][Proc: 0]Ux_non_local_coeffs: call_update: 0 [ms]
[OGL LOG][Proc: 0]Ux: update_local_matrix_data: 82.66500000000001 [ms]
[OGL LOG][Proc: 0]Ux: update_non_local_matrix_data: 0.264 [ms]
[OGL LOG][Proc: 0]Ux_matrix: call_update: 19.378 [ms]
[OGL LOG][Proc: 0]Ux_rhs: call_update: 10.687 [ms]
[OGL LOG][Preconditioner.H:121] Generate preconditioner BJ MaxBlockSize 1
[OGL LOG][Proc: 0]Ux: init_precond: 1.525 [ms]
[OGL LOG][StoppingCriterion.H:373] Creating stopping criterion with minIter 12 frequency 1
[OGL LOG][Proc: 0]Ux: generate_solver: 0.001 [ms]
[OGL LOG][Proc: 0]Ux: solve: 200.976 [ms]
[OGL LOG][Proc: 0]Ux: copy_x_back: 7.693000000000001 [ms]
[OGL LOG][lduLduBase.H:336] 
Statistics:
	Time per iteration: 20097 [mu s]
	Time per residual norm calculation: 358.000000 [mu s]
	Time per iteration and DOF: 0.398299 [ns]
	Retrieve results bandwidth 1.943000 [GByte/s]
[OGL LOG][Proc: 0]Ux: solve_multi_gpu: 242.133 [ms]
BJhipGKOBiCGStab:  Solving for Ux, Initial residual = 0.02217864986950431, Final residual = 0.002174525002081918, No Iterations 10
[OGL LOG][Proc: 0]: global_index_init: 1.169 [ms]
[OGL LOG][Proc: 0]Uy_local_coeffs: call_update: 0 [ms]
[OGL LOG][Proc: 0]Uy_non_local_coeffs: call_update: 0 [ms]
[OGL LOG][Proc: 0]Uy: update_local_matrix_data: 79.414 [ms]
[OGL LOG][Proc: 0]Uy: update_non_local_matrix_data: 0.302 [ms]
[OGL LOG][Proc: 0]Uy_matrix: call_update: 24.943 [ms]
[OGL LOG][Proc: 0]Uy_rhs: call_update: 4.816 [ms]
[OGL LOG][Preconditioner.H:121] Generate preconditioner BJ MaxBlockSize 1
[OGL LOG][Proc: 0]Uy: init_precond: 1.576 [ms]
[OGL LOG][StoppingCriterion.H:373] Creating stopping criterion with minIter 18 frequency 1
[OGL LOG][Proc: 0]Uy: generate_solver: 0.001 [ms]
[OGL LOG][Proc: 0]Uy: solve: 210.057 [ms]
[OGL LOG][Proc: 0]Uy: copy_x_back: 7.52 [ms]
[OGL LOG][lduLduBase.H:336] 
Statistics:
	Time per iteration: 17504 [mu s]
	Time per residual norm calculation: 364.000000 [mu s]
	Time per iteration and DOF: 0.346909 [ns]
	Retrieve results bandwidth 1.987000 [GByte/s]
[OGL LOG][Proc: 0]Uy: solve_multi_gpu: 250.844 [ms]
BJhipGKOBiCGStab:  Solving for Uy, Initial residual = 0.08229996091963272, Final residual = 0.007590350898085862, No Iterations 12
[OGL LOG][Proc: 0]: global_index_init: 0.769 [ms]
[OGL LOG][Proc: 0]Uz_local_coeffs: call_update: 0 [ms]
[OGL LOG][Proc: 0]Uz_non_local_coeffs: call_update: 0 [ms]
[OGL LOG][Proc: 0]Uz: update_local_matrix_data: 81.30200000000001 [ms]
[OGL LOG][Proc: 0]Uz: update_non_local_matrix_data: 0.212 [ms]
[OGL LOG][Proc: 0]Uz_matrix: call_update: 17.557 [ms]
[OGL LOG][Proc: 0]Uz_rhs: call_update: 14.98 [ms]
[OGL LOG][Preconditioner.H:121] Generate preconditioner BJ MaxBlockSize 1
[OGL LOG][Proc: 0]Uz: init_precond: 1.502 [ms]
[OGL LOG][StoppingCriterion.H:373] Creating stopping criterion with minIter 12 frequency 1
[OGL LOG][Proc: 0]Uz: generate_solver: 0.001 [ms]
[OGL LOG][Proc: 0]Uz: solve: 204.527 [ms]
[OGL LOG][Proc: 0]Uz: copy_x_back: 7.205 [ms]
[OGL LOG][lduLduBase.H:336] 
Statistics:
	Time per iteration: 18593 [mu s]
	Time per residual norm calculation: 494.000000 [mu s]
	Time per iteration and DOF: 0.368491 [ns]
	Retrieve results bandwidth 2.074000 [GByte/s]
[OGL LOG][Proc: 0]Uz: solve_multi_gpu: 247.596 [ms]
BJhipGKOBiCGStab:  Solving for Uz, Initial residual = 0.06937203940710568, Final residual = 0.006899535728570265, No Iterations 11
[INFO] MomentumPredictor: 1281.456 [ms]
[INFO] MatrixAssemblyPI: 667.092 [ms]
[INFO] MatrixAssemblyPII: 309.064 [ms]
GAMG:  Solving for p, Initial residual = 0.08144480510504593, Final residual = 0.0005682274257955976, No Iterations 6
[INFO] SolveP: 2080.425 [ms]
time step continuity errors : sum local = 0.005344287534098013, global = -2.662562903468154e-05, cumulative = -0.0006038625984210498
[INFO] postSolveP: 159.418 [ms]
[OGL LOG][Proc: 0]: global_index_init: 14.372 [ms]
[OGL LOG][Proc: 0]nuTilda_local_coeffs: call_update: 0 [ms]
[OGL LOG][Proc: 0]nuTilda_non_local_coeffs: call_update: 0 [ms]
[OGL LOG][Proc: 0]nuTilda: update_local_matrix_data: 80.645 [ms]
[OGL LOG][Proc: 0]nuTilda: update_non_local_matrix_data: 0.221 [ms]
[OGL LOG][Proc: 0]nuTilda_matrix: call_update: 14.636 [ms]
[OGL LOG][Proc: 0]nuTilda_rhs: call_update: 37.236 [ms]
[OGL LOG][Preconditioner.H:121] Generate preconditioner BJ MaxBlockSize 1
[OGL LOG][Proc: 0]nuTilda: init_precond: 1.424 [ms]
[OGL LOG][StoppingCriterion.H:373] Creating stopping criterion with minIter 3 frequency 1
[OGL LOG][Proc: 0]nuTilda: generate_solver: 0.001 [ms]
[OGL LOG][Proc: 0]nuTilda: solve: 151.102 [ms]
[OGL LOG][Proc: 0]nuTilda: copy_x_back: 8.263 [ms]
[OGL LOG][lduLduBase.H:336] 
Statistics:
	Time per iteration: 75551 [mu s]
	Time per residual norm calculation: 513.000000 [mu s]
	Time per iteration and DOF: 1.497332 [ns]
	Retrieve results bandwidth 1.809000 [GByte/s]
[OGL LOG][Proc: 0]nuTilda: solve_multi_gpu: 214.56 [ms]
BJhipGKOBiCGStab:  Solving for nuTilda, Initial residual = 0.05209613389956878, Final residual = 0.004048933598215916, No Iterations 2
[INFO] TimeStep: 10167.395 [ms]
ExecutionTime = 159.72 s  ClockTime = 161 s

Time = 9

velocityDampingConstraint velocityDamping damped 0 (0%) of cells, with max limit 300
[INFO] MatrixAssemblyU: 3380.635 [ms]
[OGL LOG][Proc: 0]: global_index_init: 0.063 [ms]
[OGL LOG][Proc: 0]Ux_local_coeffs: call_update: 0 [ms]
[OGL LOG][Proc: 0]Ux_non_local_coeffs: call_update: 0 [ms]
[OGL LOG][Proc: 0]Ux: update_local_matrix_data: 81.047 [ms]
[OGL LOG][Proc: 0]Ux: update_non_local_matrix_data: 0.219 [ms]
[OGL LOG][Proc: 0]Ux_matrix: call_update: 20.537 [ms]
[OGL LOG][Proc: 0]Ux_rhs: call_update: 10.026 [ms]
[OGL LOG][Preconditioner.H:121] Generate preconditioner BJ MaxBlockSize 1
[OGL LOG][Proc: 0]Ux: init_precond: 1.511 [ms]
[OGL LOG][StoppingCriterion.H:373] Creating stopping criterion with minIter 12 frequency 1
[OGL LOG][Proc: 0]Ux: generate_solver: 0.001 [ms]
[OGL LOG][Proc: 0]Ux: solve: 221.859 [ms]
[OGL LOG][Proc: 0]Ux: copy_x_back: 7.958 [ms]
[OGL LOG][lduLduBase.H:336] 
Statistics:
	Time per iteration: 17066 [mu s]
	Time per residual norm calculation: 493.000000 [mu s]
	Time per iteration and DOF: 0.338228 [ns]
	Retrieve results bandwidth 1.878000 [GByte/s]
[OGL LOG][Proc: 0]Ux: solve_multi_gpu: 263.754 [ms]
BJhipGKOBiCGStab:  Solving for Ux, Initial residual = 0.01851382209273469, Final residual = 0.001142809983473432, No Iterations 13
[OGL LOG][Proc: 0]: global_index_init: 0.664 [ms]
[OGL LOG][Proc: 0]Uy_local_coeffs: call_update: 0 [ms]
[OGL LOG][Proc: 0]Uy_non_local_coeffs: call_update: 0 [ms]
[OGL LOG][Proc: 0]Uy: update_local_matrix_data: 79.758 [ms]
[OGL LOG][Proc: 0]Uy: update_non_local_matrix_data: 0.213 [ms]
[OGL LOG][Proc: 0]Uy_matrix: call_update: 23.48 [ms]
[OGL LOG][Proc: 0]Uy_rhs: call_update: 9.391999999999999 [ms]
[OGL LOG][Preconditioner.H:121] Generate preconditioner BJ MaxBlockSize 1
[OGL LOG][Proc: 0]Uy: init_precond: 1.499 [ms]
[OGL LOG][StoppingCriterion.H:373] Creating stopping criterion with minIter 15 frequency 1
[OGL LOG][Proc: 0]Uy: generate_solver: 0.001 [ms]
[OGL LOG][Proc: 0]Uy: solve: 209.52 [ms]
[OGL LOG][Proc: 0]Uy: copy_x_back: 8.113 [ms]
[OGL LOG][lduLduBase.H:336] 
Statistics:
	Time per iteration: 19047 [mu s]
	Time per residual norm calculation: 499.000000 [mu s]
	Time per iteration and DOF: 0.377489 [ns]
	Retrieve results bandwidth 1.842000 [GByte/s]
[OGL LOG][Proc: 0]Uy: solve_multi_gpu: 253.863 [ms]
BJhipGKOBiCGStab:  Solving for Uy, Initial residual = 0.05730570848188974, Final residual = 0.005549205936841707, No Iterations 11
[OGL LOG][Proc: 0]: global_index_init: 0.65 [ms]
[OGL LOG][Proc: 0]Uz_local_coeffs: call_update: 0 [ms]
[OGL LOG][Proc: 0]Uz_non_local_coeffs: call_update: 0 [ms]
[OGL LOG][Proc: 0]Uz: update_local_matrix_data: 78.96000000000001 [ms]
[OGL LOG][Proc: 0]Uz: update_non_local_matrix_data: 0.185 [ms]
[OGL LOG][Proc: 0]Uz_matrix: call_update: 20.271 [ms]
[OGL LOG][Proc: 0]Uz_rhs: call_update: 25.302 [ms]
[OGL LOG][Preconditioner.H:121] Generate preconditioner BJ MaxBlockSize 1
[OGL LOG][Proc: 0]Uz: init_precond: 1.568 [ms]
[OGL LOG][StoppingCriterion.H:373] Creating stopping criterion with minIter 13 frequency 1
[OGL LOG][Proc: 0]Uz: generate_solver: 0.001 [ms]
[OGL LOG][Proc: 0]Uz: solve: 200.868 [ms]
[OGL LOG][Proc: 0]Uz: copy_x_back: 7.585 [ms]
[OGL LOG][lduLduBase.H:336] 
Statistics:
	Time per iteration: 18260 [mu s]
	Time per residual norm calculation: 528.000000 [mu s]
	Time per iteration and DOF: 0.361892 [ns]
	Retrieve results bandwidth 1.970000 [GByte/s]
[OGL LOG][Proc: 0]Uz: solve_multi_gpu: 257.488 [ms]
BJhipGKOBiCGStab:  Solving for Uz, Initial residual = 0.07082867024062293, Final residual = 0.006041028213641971, No Iterations 11
[INFO] MomentumPredictor: 1311.824 [ms]
[INFO] MatrixAssemblyPI: 665.9109999999999 [ms]
[INFO] MatrixAssemblyPII: 312.111 [ms]
GAMG:  Solving for p, Initial residual = 0.07057808724889561, Final residual = 0.000674711962762517, No Iterations 5
[INFO] SolveP: 1757.638 [ms]
time step continuity errors : sum local = 0.006290016376497785, global = -7.126590391716367e-05, cumulative = -0.0006751285023382136
[INFO] postSolveP: 157.03 [ms]
[OGL LOG][Proc: 0]: global_index_init: 14.771 [ms]
[OGL LOG][Proc: 0]nuTilda_local_coeffs: call_update: 0 [ms]
[OGL LOG][Proc: 0]nuTilda_non_local_coeffs: call_update: 0 [ms]
[OGL LOG][Proc: 0]nuTilda: update_local_matrix_data: 84.196 [ms]
[OGL LOG][Proc: 0]nuTilda: update_non_local_matrix_data: 0.31 [ms]
[OGL LOG][Proc: 0]nuTilda_matrix: call_update: 23.955 [ms]
[OGL LOG][Proc: 0]nuTilda_rhs: call_update: 10.691 [ms]
[OGL LOG][Preconditioner.H:121] Generate preconditioner BJ MaxBlockSize 1
[OGL LOG][Proc: 0]nuTilda: init_precond: 1.46 [ms]
[OGL LOG][StoppingCriterion.H:373] Creating stopping criterion with minIter 2 frequency 1
[OGL LOG][Proc: 0]nuTilda: generate_solver: 0.001 [ms]
[OGL LOG][Proc: 0]nuTilda: solve: 145.563 [ms]
[OGL LOG][Proc: 0]nuTilda: copy_x_back: 8.182 [ms]
[OGL LOG][lduLduBase.H:336] 
Statistics:
	Time per iteration: 72781 [mu s]
	Time per residual norm calculation: 488.000000 [mu s]
	Time per iteration and DOF: 1.442434 [ns]
	Retrieve results bandwidth 1.827000 [GByte/s]
[OGL LOG][Proc: 0]nuTilda: solve_multi_gpu: 191.763 [ms]
BJhipGKOBiCGStab:  Solving for nuTilda, Initial residual = 0.04129965984888467, Final residual = 0.003676249832520158, No Iterations 2
bounding nuTilda, min: -0.0001639714719689744 max: 0.001897531923813247 average: 9.863709092080775e-05
[INFO] TimeStep: 9960.135 [ms]
ExecutionTime = 172.28 s  ClockTime = 173 s

Time = 10

velocityDampingConstraint velocityDamping damped 0 (0%) of cells, with max limit 300
[INFO] MatrixAssemblyU: 3370.912 [ms]
[OGL LOG][Proc: 0]: global_index_init: 0.081 [ms]
[OGL LOG][Proc: 0]Ux_local_coeffs: call_update: 0 [ms]
[OGL LOG][Proc: 0]Ux_non_local_coeffs: call_update: 0 [ms]
[OGL LOG][Proc: 0]Ux: update_local_matrix_data: 81.273 [ms]
[OGL LOG][Proc: 0]Ux: update_non_local_matrix_data: 0.246 [ms]
[OGL LOG][Proc: 0]Ux_matrix: call_update: 21.671 [ms]
[OGL LOG][Proc: 0]Ux_rhs: call_update: 13.522 [ms]
[OGL LOG][Preconditioner.H:121] Generate preconditioner BJ MaxBlockSize 1
[OGL LOG][Proc: 0]Ux: init_precond: 1.552 [ms]
[OGL LOG][StoppingCriterion.H:373] Creating stopping criterion with minIter 15 frequency 1
[OGL LOG][Proc: 0]Ux: generate_solver: 0.001 [ms]
[OGL LOG][Proc: 0]Ux: solve: 218.861 [ms]
[OGL LOG][Proc: 0]Ux: copy_x_back: 7.406000000000001 [ms]
[OGL LOG][lduLduBase.H:336] 
Statistics:
	Time per iteration: 15632 [mu s]
	Time per residual norm calculation: 523.000000 [mu s]
	Time per iteration and DOF: 0.309808 [ns]
	Retrieve results bandwidth 2.018000 [GByte/s]
[OGL LOG][Proc: 0]Ux: solve_multi_gpu: 264.905 [ms]
BJhipGKOBiCGStab:  Solving for Ux, Initial residual = 0.01718637379754721, Final residual = 0.0007165246509874766, No Iterations 14
[OGL LOG][Proc: 0]: global_index_init: 0.5740000000000001 [ms]
[OGL LOG][Proc: 0]Uy_local_coeffs: call_update: 0 [ms]
[OGL LOG][Proc: 0]Uy_non_local_coeffs: call_update: 0 [ms]
[OGL LOG][Proc: 0]Uy: update_local_matrix_data: 80.816 [ms]
[OGL LOG][Proc: 0]Uy: update_non_local_matrix_data: 0.347 [ms]
[OGL LOG][Proc: 0]Uy_matrix: call_update: 19.488 [ms]
[OGL LOG][Proc: 0]Uy_rhs: call_update: 12.341 [ms]
[OGL LOG][Preconditioner.H:121] Generate preconditioner BJ MaxBlockSize 1
[OGL LOG][Proc: 0]Uy: init_precond: 1.496 [ms]
[OGL LOG][StoppingCriterion.H:373] Creating stopping criterion with minIter 13 frequency 1
[OGL LOG][Proc: 0]Uy: generate_solver: 0.001 [ms]
[OGL LOG][Proc: 0]Uy: solve: 216.68 [ms]
[OGL LOG][Proc: 0]Uy: copy_x_back: 7.956 [ms]
[OGL LOG][lduLduBase.H:336] 
Statistics:
	Time per iteration: 19698 [mu s]
	Time per residual norm calculation: 360.000000 [mu s]
	Time per iteration and DOF: 0.390391 [ns]
	Retrieve results bandwidth 1.879000 [GByte/s]
[OGL LOG][Proc: 0]Uy: solve_multi_gpu: 259.843 [ms]
BJhipGKOBiCGStab:  Solving for Uy, Initial residual = 0.04665062474452478, Final residual = 0.004229742642102179, No Iterations 11
[OGL LOG][Proc: 0]: global_index_init: 0.615 [ms]
[OGL LOG][Proc: 0]Uz_local_coeffs: call_update: 0 [ms]
[OGL LOG][Proc: 0]Uz_non_local_coeffs: call_update: 0 [ms]
[OGL LOG][Proc: 0]Uz: update_local_matrix_data: 79.873 [ms]
[OGL LOG][Proc: 0]Uz: update_non_local_matrix_data: 0.34 [ms]
[OGL LOG][Proc: 0]Uz_matrix: call_update: 24.569 [ms]
[OGL LOG][Proc: 0]Uz_rhs: call_update: 8.221 [ms]
[OGL LOG][Preconditioner.H:121] Generate preconditioner BJ MaxBlockSize 1
[OGL LOG][Proc: 0]Uz: init_precond: 1.477 [ms]
[OGL LOG][StoppingCriterion.H:373] Creating stopping criterion with minIter 13 frequency 1
[OGL LOG][Proc: 0]Uz: generate_solver: 0.001 [ms]
[OGL LOG][Proc: 0]Uz: solve: 214.077 [ms]
[OGL LOG][Proc: 0]Uz: copy_x_back: 7.390000000000001 [ms]
[OGL LOG][lduLduBase.H:336] 
Statistics:
	Time per iteration: 19461 [mu s]
	Time per residual norm calculation: 361.000000 [mu s]
	Time per iteration and DOF: 0.385694 [ns]
	Retrieve results bandwidth 2.022000 [GByte/s]
[OGL LOG][Proc: 0]Uz: solve_multi_gpu: 257.631 [ms]
BJhipGKOBiCGStab:  Solving for Uz, Initial residual = 0.05018895321824508, Final residual = 0.004703840441721673, No Iterations 11
[INFO] MomentumPredictor: 1320.123 [ms]
[INFO] MatrixAssemblyPI: 667.513 [ms]
[INFO] MatrixAssemblyPII: 309.436 [ms]
GAMG:  Solving for p, Initial residual = 0.06593831625120664, Final residual = 0.0006253273091192977, No Iterations 5
[INFO] SolveP: 1753.597 [ms]
time step continuity errors : sum local = 0.005708039534892979, global = -3.053392027991724e-05, cumulative = -0.0007056624226181308
[INFO] postSolveP: 158.942 [ms]
[OGL LOG][Proc: 0]: global_index_init: 14.052 [ms]
[OGL LOG][Proc: 0]nuTilda_local_coeffs: call_update: 0 [ms]
[OGL LOG][Proc: 0]nuTilda_non_local_coeffs: call_update: 0 [ms]
[OGL LOG][Proc: 0]nuTilda: update_local_matrix_data: 84.33800000000001 [ms]
[OGL LOG][Proc: 0]nuTilda: update_non_local_matrix_data: 0.267 [ms]
[OGL LOG][Proc: 0]nuTilda_matrix: call_update: 20.331 [ms]
[OGL LOG][Proc: 0]nuTilda_rhs: call_update: 6.873 [ms]
[OGL LOG][Preconditioner.H:121] Generate preconditioner BJ MaxBlockSize 1
[OGL LOG][Proc: 0]nuTilda: init_precond: 1.502 [ms]
[OGL LOG][StoppingCriterion.H:373] Creating stopping criterion with minIter 2 frequency 1
[OGL LOG][Proc: 0]nuTilda: generate_solver: 0.001 [ms]
[OGL LOG][Proc: 0]nuTilda: solve: 153.939 [ms]
[OGL LOG][Proc: 0]nuTilda: copy_x_back: 7.975000000000001 [ms]
[OGL LOG][lduLduBase.H:336] 
Statistics:
	Time per iteration: 76969 [mu s]
	Time per residual norm calculation: 367.000000 [mu s]
	Time per iteration and DOF: 1.525435 [ns]
	Retrieve results bandwidth 1.874000 [GByte/s]
[OGL LOG][Proc: 0]nuTilda: solve_multi_gpu: 192.585 [ms]
BJhipGKOBiCGStab:  Solving for nuTilda, Initial residual = 0.05148099203781206, Final residual = 0.002384701274026544, No Iterations 2
[INFO] TimeStep: 9830.83 [ms]
ExecutionTime = 184.69 s  ClockTime = 186 s

Time = 11

velocityDampingConstraint velocityDamping damped 0 (0%) of cells, with max limit 300
[INFO] MatrixAssemblyU: 3369.921 [ms]
[OGL LOG][Proc: 0]: global_index_init: 0.5650000000000001 [ms]
[OGL LOG][Proc: 0]Ux_local_coeffs: call_update: 0 [ms]
[OGL LOG][Proc: 0]Ux_non_local_coeffs: call_update: 0 [ms]
[OGL LOG][Proc: 0]Ux: update_local_matrix_data: 79.06100000000001 [ms]
[OGL LOG][Proc: 0]Ux: update_non_local_matrix_data: 0.246 [ms]
[OGL LOG][Proc: 0]Ux_matrix: call_update: 21.312 [ms]
[OGL LOG][Proc: 0]Ux_rhs: call_update: 11.899 [ms]
[OGL LOG][Preconditioner.H:121] Generate preconditioner BJ MaxBlockSize 1
[OGL LOG][Proc: 0]Ux: init_precond: 1.54 [ms]
[OGL LOG][StoppingCriterion.H:373] Creating stopping criterion with minIter 16 frequency 1
[OGL LOG][Proc: 0]Ux: generate_solver: 0.001 [ms]
[OGL LOG][Proc: 0]Ux: solve: 204.911 [ms]
[OGL LOG][Proc: 0]Ux: copy_x_back: 8.053000000000001 [ms]
[OGL LOG][lduLduBase.H:336] 
Statistics:
	Time per iteration: 17075 [mu s]
	Time per residual norm calculation: 485.000000 [mu s]
	Time per iteration and DOF: 0.338406 [ns]
	Retrieve results bandwidth 1.856000 [GByte/s]
[OGL LOG][Proc: 0]Ux: solve_multi_gpu: 249.563 [ms]
BJhipGKOBiCGStab:  Solving for Ux, Initial residual = 0.01542006433039604, Final residual = 0.001481268758637378, No Iterations 12
[OGL LOG][Proc: 0]: global_index_init: 0.516 [ms]
[OGL LOG][Proc: 0]Uy_local_coeffs: call_update: 0 [ms]
[OGL LOG][Proc: 0]Uy_non_local_coeffs: call_update: 0 [ms]
[OGL LOG][Proc: 0]Uy: update_local_matrix_data: 79.746 [ms]
[OGL LOG][Proc: 0]Uy: update_non_local_matrix_data: 0.244 [ms]
[OGL LOG][Proc: 0]Uy_matrix: call_update: 17.439 [ms]
[OGL LOG][Proc: 0]Uy_rhs: call_update: 15.072 [ms]
[OGL LOG][Preconditioner.H:121] Generate preconditioner BJ MaxBlockSize 1
[OGL LOG][Proc: 0]Uy: init_precond: 1.498 [ms]
[OGL LOG][StoppingCriterion.H:373] Creating stopping criterion with minIter 13 frequency 1
[OGL LOG][Proc: 0]Uy: generate_solver: 0.001 [ms]
[OGL LOG][Proc: 0]Uy: solve: 201.285 [ms]
[OGL LOG][Proc: 0]Uy: copy_x_back: 7.845 [ms]
[OGL LOG][lduLduBase.H:336] 
Statistics:
	Time per iteration: 18298 [mu s]
	Time per residual norm calculation: 494.000000 [mu s]
	Time per iteration and DOF: 0.362645 [ns]
	Retrieve results bandwidth 1.905000 [GByte/s]
[OGL LOG][Proc: 0]Uy: solve_multi_gpu: 245.011 [ms]
BJhipGKOBiCGStab:  Solving for Uy, Initial residual = 0.04533993808173773, Final residual = 0.004204570780253285, No Iterations 11
[OGL LOG][Proc: 0]: global_index_init: 0.661 [ms]
[OGL LOG][Proc: 0]Uz_local_coeffs: call_update: 0 [ms]
[OGL LOG][Proc: 0]Uz_non_local_coeffs: call_update: 0 [ms]
[OGL LOG][Proc: 0]Uz: update_local_matrix_data: 79.026 [ms]
[OGL LOG][Proc: 0]Uz: update_non_local_matrix_data: 0.247 [ms]
[OGL LOG][Proc: 0]Uz_matrix: call_update: 17.964 [ms]
[OGL LOG][Proc: 0]Uz_rhs: call_update: 15.218 [ms]
[OGL LOG][Preconditioner.H:121] Generate preconditioner BJ MaxBlockSize 1
[OGL LOG][Proc: 0]Uz: init_precond: 1.468 [ms]
[OGL LOG][StoppingCriterion.H:373] Creating stopping criterion with minIter 13 frequency 1
[OGL LOG][Proc: 0]Uz: generate_solver: 0.001 [ms]
[OGL LOG][Proc: 0]Uz: solve: 210.376 [ms]
[OGL LOG][Proc: 0]Uz: copy_x_back: 7.435 [ms]
[OGL LOG][lduLduBase.H:336] 
Statistics:
	Time per iteration: 19125 [mu s]
	Time per residual norm calculation: 519.000000 [mu s]
	Time per iteration and DOF: 0.379035 [ns]
	Retrieve results bandwidth 2.010000 [GByte/s]
[OGL LOG][Proc: 0]Uz: solve_multi_gpu: 254.374 [ms]
BJhipGKOBiCGStab:  Solving for Uz, Initial residual = 0.04561285931131958, Final residual = 0.004078075448672144, No Iterations 11
[INFO] MomentumPredictor: 1288.822 [ms]
[INFO] MatrixAssemblyPI: 667.917 [ms]
[INFO] MatrixAssemblyPII: 310.372 [ms]
GAMG:  Solving for p, Initial residual = 0.0618437930193668, Final residual = 0.0005999558082137504, No Iterations 5
[INFO] SolveP: 1758.01 [ms]
time step continuity errors : sum local = 0.005355777846150768, global = 2.596181106994715e-05, cumulative = -0.0006797006115481837
[INFO] postSolveP: 158.601 [ms]
[OGL LOG][Proc: 0]: global_index_init: 12.418 [ms]
[OGL LOG][Proc: 0]nuTilda_local_coeffs: call_update: 0 [ms]
[OGL LOG][Proc: 0]nuTilda_non_local_coeffs: call_update: 0 [ms]
[OGL LOG][Proc: 0]nuTilda: update_local_matrix_data: 80.587 [ms]
[OGL LOG][Proc: 0]nuTilda: update_non_local_matrix_data: 0.258 [ms]
[OGL LOG][Proc: 0]nuTilda_matrix: call_update: 14.532 [ms]
[OGL LOG][Proc: 0]nuTilda_rhs: call_update: 30.265 [ms]
[OGL LOG][Preconditioner.H:121] Generate preconditioner BJ MaxBlockSize 1
[OGL LOG][Proc: 0]nuTilda: init_precond: 1.499 [ms]
[OGL LOG][StoppingCriterion.H:373] Creating stopping criterion with minIter 3 frequency 1
[OGL LOG][Proc: 0]nuTilda: generate_solver: 0.001 [ms]
[OGL LOG][Proc: 0]nuTilda: solve: 152.861 [ms]
[OGL LOG][Proc: 0]nuTilda: copy_x_back: 7.523000000000001 [ms]
[OGL LOG][lduLduBase.H:336] 
Statistics:
	Time per iteration: 76430 [mu s]
	Time per residual norm calculation: 380.000000 [mu s]
	Time per iteration and DOF: 1.514752 [ns]
	Retrieve results bandwidth 1.987000 [GByte/s]
[OGL LOG][Proc: 0]nuTilda: solve_multi_gpu: 208.934 [ms]
BJhipGKOBiCGStab:  Solving for nuTilda, Initial residual = 0.03714759820682598, Final residual = 0.001835245946194525, No Iterations 2
[INFO] TimeStep: 9805.898999999999 [ms]
ExecutionTime = 197.09 s  ClockTime = 198 s

Time = 12

velocityDampingConstraint velocityDamping damped 0 (0%) of cells, with max limit 300
[INFO] MatrixAssemblyU: 3377.663 [ms]
[OGL LOG][Proc: 0]: global_index_init: 0.08600000000000001 [ms]
[OGL LOG][Proc: 0]Ux_local_coeffs: call_update: 0 [ms]
[OGL LOG][Proc: 0]Ux_non_local_coeffs: call_update: 0 [ms]
[OGL LOG][Proc: 0]Ux: update_local_matrix_data: 81.26600000000001 [ms]
[OGL LOG][Proc: 0]Ux: update_non_local_matrix_data: 0.225 [ms]
[OGL LOG][Proc: 0]Ux_matrix: call_update: 15.283 [ms]
[OGL LOG][Proc: 0]Ux_rhs: call_update: 20.377 [ms]
[OGL LOG][Preconditioner.H:121] Generate preconditioner BJ MaxBlockSize 1
[OGL LOG][Proc: 0]Ux: init_precond: 1.507 [ms]
[OGL LOG][StoppingCriterion.H:373] Creating stopping criterion with minIter 14 frequency 1
[OGL LOG][Proc: 0]Ux: generate_solver: 0.001 [ms]
[OGL LOG][Proc: 0]Ux: solve: 220.859 [ms]
[OGL LOG][Proc: 0]Ux: copy_x_back: 8.263 [ms]
[OGL LOG][lduLduBase.H:336] 
Statistics:
	Time per iteration: 15775 [mu s]
	Time per residual norm calculation: 502.000000 [mu s]
	Time per iteration and DOF: 0.312642 [ns]
	Retrieve results bandwidth 1.809000 [GByte/s]
[OGL LOG][Proc: 0]Ux: solve_multi_gpu: 268.189 [ms]
BJhipGKOBiCGStab:  Solving for Ux, Initial residual = 0.01382073906059057, Final residual = 0.001085232193304731, No Iterations 14
[OGL LOG][Proc: 0]: global_index_init: 0.68 [ms]
[OGL LOG][Proc: 0]Uy_local_coeffs: call_update: 0 [ms]
[OGL LOG][Proc: 0]Uy_non_local_coeffs: call_update: 0 [ms]
[OGL LOG][Proc: 0]Uy: update_local_matrix_data: 81.77800000000001 [ms]
[OGL LOG][Proc: 0]Uy: update_non_local_matrix_data: 0.269 [ms]
[OGL LOG][Proc: 0]Uy_matrix: call_update: 16.271 [ms]
[OGL LOG][Proc: 0]Uy_rhs: call_update: 15.017 [ms]
[OGL LOG][Preconditioner.H:121] Generate preconditioner BJ MaxBlockSize 1
[OGL LOG][Proc: 0]Uy: init_precond: 1.522 [ms]
[OGL LOG][StoppingCriterion.H:373] Creating stopping criterion with minIter 13 frequency 1
[OGL LOG][Proc: 0]Uy: generate_solver: 0.001 [ms]
[OGL LOG][Proc: 0]Uy: solve: 207.234 [ms]
[OGL LOG][Proc: 0]Uy: copy_x_back: 8.315 [ms]
[OGL LOG][lduLduBase.H:336] 
Statistics:
	Time per iteration: 20723 [mu s]
	Time per residual norm calculation: 361.000000 [mu s]
	Time per iteration and DOF: 0.410705 [ns]
	Retrieve results bandwidth 1.797000 [GByte/s]
[OGL LOG][Proc: 0]Uy: solve_multi_gpu: 250.193 [ms]
BJhipGKOBiCGStab:  Solving for Uy, Initial residual = 0.04351350587123394, Final residual = 0.004158293717069237, No Iterations 10
[OGL LOG][Proc: 0]: global_index_init: 0.662 [ms]
[OGL LOG][Proc: 0]Uz_local_coeffs: call_update: 0 [ms]
[OGL LOG][Proc: 0]Uz_non_local_coeffs: call_update: 0 [ms]
[OGL LOG][Proc: 0]Uz: update_local_matrix_data: 81.078 [ms]
[OGL LOG][Proc: 0]Uz: update_non_local_matrix_data: 0.357 [ms]
[OGL LOG][Proc: 0]Uz_matrix: call_update: 20.297 [ms]
[OGL LOG][Proc: 0]Uz_rhs: call_update: 25.232 [ms]
[OGL LOG][Preconditioner.H:121] Generate preconditioner BJ MaxBlockSize 1
[OGL LOG][Proc: 0]Uz: init_precond: 1.532 [ms]
[OGL LOG][StoppingCriterion.H:373] Creating stopping criterion with minIter 13 frequency 1
[OGL LOG][Proc: 0]Uz: generate_solver: 0.001 [ms]
[OGL LOG][Proc: 0]Uz: solve: 212.215 [ms]
[OGL LOG][Proc: 0]Uz: copy_x_back: 8.163 [ms]
[OGL LOG][lduLduBase.H:336] 
Statistics:
	Time per iteration: 19292 [mu s]
	Time per residual norm calculation: 498.000000 [mu s]
	Time per iteration and DOF: 0.382345 [ns]
	Retrieve results bandwidth 1.831000 [GByte/s]
[OGL LOG][Proc: 0]Uz: solve_multi_gpu: 269.303 [ms]
BJhipGKOBiCGStab:  Solving for Uz, Initial residual = 0.04316713385647401, Final residual = 0.003979350254617049, No Iterations 11
[INFO] MomentumPredictor: 1327.907 [ms]
[INFO] MatrixAssemblyPI: 664.277 [ms]
[INFO] MatrixAssemblyPII: 311.797 [ms]
GAMG:  Solving for p, Initial residual = 0.0707066248195919, Final residual = 0.0004789512067843335, No Iterations 6
[INFO] SolveP: 2083.406 [ms]
time step continuity errors : sum local = 0.004239462901637572, global = 1.224317377652124e-05, cumulative = -0.0006674574377716624
[INFO] postSolveP: 158.499 [ms]
[OGL LOG][Proc: 0]: global_index_init: 16.722 [ms]
[OGL LOG][Proc: 0]nuTilda_local_coeffs: call_update: 0 [ms]
[OGL LOG][Proc: 0]nuTilda_non_local_coeffs: call_update: 0 [ms]
[OGL LOG][Proc: 0]nuTilda: update_local_matrix_data: 84.157 [ms]
[OGL LOG][Proc: 0]nuTilda: update_non_local_matrix_data: 0.25 [ms]
[OGL LOG][Proc: 0]nuTilda_matrix: call_update: 16.859 [ms]
[...]
[OGL LOG][Preconditioner.H:121] Generate preconditioner BJ MaxBlockSize 1
[OGL LOG][Proc: 0]Uy: init_precond: 1.507 [ms]
[OGL LOG][StoppingCriterion.H:373] Creating stopping criterion with minIter 13 frequency 1
[OGL LOG][Proc: 0]Uy: generate_solver: 0.001 [ms]
[OGL LOG][Proc: 0]Uy: solve: 205.302 [ms]
[OGL LOG][Proc: 0]Uy: copy_x_back: 8.217000000000001 [ms]
[OGL LOG][lduLduBase.H:336] 
Statistics:
	Time per iteration: 20530 [mu s]
	Time per residual norm calculation: 360.000000 [mu s]
	Time per iteration and DOF: 0.406880 [ns]
	Retrieve results bandwidth 1.819000 [GByte/s]
[OGL LOG][Proc: 0]Uy: solve_multi_gpu: 249.441 [ms]
BJhipGKOBiCGStab:  Solving for Uy, Initial residual = 0.06535547008423384, Final residual = 0.006466465285123688, No Iterations 10
[OGL LOG][Proc: 0]: global_index_init: 5.963 [ms]
[OGL LOG][Proc: 0]Uz_local_coeffs: call_update: 0 [ms]
[OGL LOG][Proc: 0]Uz_non_local_coeffs: call_update: 0 [ms]
[OGL LOG][Proc: 0]Uz: update_local_matrix_data: 79.76000000000001 [ms]
[OGL LOG][Proc: 0]Uz: update_non_local_matrix_data: 0.224 [ms]
[OGL LOG][Proc: 0]Uz_matrix: call_update: 19.874 [ms]
[OGL LOG][Proc: 0]Uz_rhs: call_update: 16.59 [ms]
[OGL LOG][Preconditioner.H:121] Generate preconditioner BJ MaxBlockSize 1
[OGL LOG][Proc: 0]Uz: init_precond: 1.48 [ms]
[OGL LOG][StoppingCriterion.H:373] Creating stopping criterion with minIter 16 frequency 1
[OGL LOG][Proc: 0]Uz: generate_solver: 0.001 [ms]
[OGL LOG][Proc: 0]Uz: solve: 198.3 [ms]
[OGL LOG][Proc: 0]Uz: copy_x_back: 7.76 [ms]
[OGL LOG][lduLduBase.H:336] 
Statistics:
	Time per iteration: 19830 [mu s]
	Time per residual norm calculation: 362.000000 [mu s]
	Time per iteration and DOF: 0.393007 [ns]
	Retrieve results bandwidth 1.926000 [GByte/s]
[OGL LOG][Proc: 0]Uz: solve_multi_gpu: 245.907 [ms]
BJhipGKOBiCGStab:  Solving for Uz, Initial residual = 0.0664601706669008, Final residual = 0.006413162965468068, No Iterations 10
[INFO] MomentumPredictor: 1289.844 [ms]
[INFO] MatrixAssemblyPI: 664.119 [ms]
[INFO] MatrixAssemblyPII: 309.48 [ms]
GAMG:  Solving for p, Initial residual = 0.05495326081500174, Final residual = 0.0004398400668416993, No Iterations 5
[INFO] SolveP: 1764.236 [ms]
time step continuity errors : sum local = 0.004379491845100676, global = 2.265067683404147e-05, cumulative = 0.0003195417535501175
[INFO] postSolveP: 159.625 [ms]
[OGL LOG][Proc: 0]: global_index_init: 18.454 [ms]
[OGL LOG][Proc: 0]nuTilda_local_coeffs: call_update: 0 [ms]
[OGL LOG][Proc: 0]nuTilda_non_local_coeffs: call_update: 0 [ms]
[OGL LOG][Proc: 0]nuTilda: update_local_matrix_data: 85.379 [ms]
[OGL LOG][Proc: 0]nuTilda: update_non_local_matrix_data: 0.206 [ms]
[OGL LOG][Proc: 0]nuTilda_matrix: call_update: 17.153 [ms]
[OGL LOG][Proc: 0]nuTilda_rhs: call_update: 27.195 [ms]
[OGL LOG][Preconditioner.H:121] Generate preconditioner BJ MaxBlockSize 1
[OGL LOG][Proc: 0]nuTilda: init_precond: 1.493 [ms]
[OGL LOG][StoppingCriterion.H:373] Creating stopping criterion with minIter 2 frequency 1
[OGL LOG][Proc: 0]nuTilda: generate_solver: 0.001 [ms]
[OGL LOG][Proc: 0]nuTilda: solve: 156.831 [ms]
[OGL LOG][Proc: 0]nuTilda: copy_x_back: 8.146000000000001 [ms]
[OGL LOG][lduLduBase.H:336] 
Statistics:
	Time per iteration: 78415 [mu s]
	Time per residual norm calculation: 363.000000 [mu s]
	Time per iteration and DOF: 1.554093 [ns]
	Retrieve results bandwidth 1.835000 [GByte/s]
[OGL LOG][Proc: 0]nuTilda: solve_multi_gpu: 212.747 [ms]
BJhipGKOBiCGStab:  Solving for nuTilda, Initial residual = 0.01173675302119858, Final residual = 0.0007096849401740994, No Iterations 2
bounding nuTilda, min: -0.000406681665335242 max: 0.00693155808732486 average: 0.0003290334385457744
[INFO] TimeStep: 9900.717000000001 [ms]
ExecutionTime = 648.03 s  ClockTime = 651 s

Time = 48

velocityDampingConstraint velocityDamping damped 0 (0%) of cells, with max limit 300
[INFO] MatrixAssemblyU: 3330.791 [ms]
[OGL LOG][Proc: 0]: global_index_init: 0.552 [ms]
[OGL LOG][Proc: 0]Ux_local_coeffs: call_update: 0 [ms]
[OGL LOG][Proc: 0]Ux_non_local_coeffs: call_update: 0 [ms]
[OGL LOG][Proc: 0]Ux: update_local_matrix_data: 83.133 [ms]
[OGL LOG][Proc: 0]Ux: update_non_local_matrix_data: 0.22 [ms]
[OGL LOG][Proc: 0]Ux_matrix: call_update: 19.002 [ms]
[OGL LOG][Proc: 0]Ux_rhs: call_update: 21.511 [ms]
[OGL LOG][Preconditioner.H:121] Generate preconditioner BJ MaxBlockSize 1
[OGL LOG][Proc: 0]Ux: init_precond: 1.532 [ms]
[OGL LOG][StoppingCriterion.H:373] Creating stopping criterion with minIter 13 frequency 1
[OGL LOG][Proc: 0]Ux: generate_solver: 0.001 [ms]
[OGL LOG][Proc: 0]Ux: solve: 205.703 [ms]
[OGL LOG][Proc: 0]Ux: copy_x_back: 8.077 [ms]
[OGL LOG][lduLduBase.H:336] 
Statistics:
	Time per iteration: 20570 [mu s]
	Time per residual norm calculation: 509.000000 [mu s]
	Time per iteration and DOF: 0.407673 [ns]
	Retrieve results bandwidth 1.850000 [GByte/s]
[OGL LOG][Proc: 0]Ux: solve_multi_gpu: 257.674 [ms]
BJhipGKOBiCGStab:  Solving for Ux, Initial residual = 0.01141752261956666, Final residual = 0.001125804090607873, No Iterations 10
[OGL LOG][Proc: 0]: global_index_init: 0.142 [ms]
[OGL LOG][Proc: 0]Uy_local_coeffs: call_update: 0 [ms]
[OGL LOG][Proc: 0]Uy_non_local_coeffs: call_update: 0 [ms]
[OGL LOG][Proc: 0]Uy: update_local_matrix_data: 82.532 [ms]
[OGL LOG][Proc: 0]Uy: update_non_local_matrix_data: 0.286 [ms]
[OGL LOG][Proc: 0]Uy_matrix: call_update: 17.732 [ms]
[OGL LOG][Proc: 0]Uy_rhs: call_update: 13.938 [ms]
[OGL LOG][Preconditioner.H:121] Generate preconditioner BJ MaxBlockSize 1
[OGL LOG][Proc: 0]Uy: init_precond: 1.506 [ms]
[OGL LOG][StoppingCriterion.H:373] Creating stopping criterion with minIter 12 frequency 1
[OGL LOG][Proc: 0]Uy: generate_solver: 0.001 [ms]
[OGL LOG][Proc: 0]Uy: solve: 262.399 [ms]
[OGL LOG][Proc: 0]Uy: copy_x_back: 8.225 [ms]
[OGL LOG][lduLduBase.H:336] 
Statistics:
	Time per iteration: 16399 [mu s]
	Time per residual norm calculation: 497.000000 [mu s]
	Time per iteration and DOF: 0.325009 [ns]
	Retrieve results bandwidth 1.817000 [GByte/s]
[OGL LOG][Proc: 0]Uy: solve_multi_gpu: 305.768 [ms]
BJhipGKOBiCGStab:  Solving for Uy, Initial residual = 0.06297450416722024, Final residual = 0.001525202822312398, No Iterations 16
[OGL LOG][Proc: 0]: global_index_init: 1.199 [ms]
[OGL LOG][Proc: 0]Uz_local_coeffs: call_update: 0 [ms]
[OGL LOG][Proc: 0]Uz_non_local_coeffs: call_update: 0 [ms]
[OGL LOG][Proc: 0]Uz: update_local_matrix_data: 84.065 [ms]
[OGL LOG][Proc: 0]Uz: update_non_local_matrix_data: 0.225 [ms]
[OGL LOG][Proc: 0]Uz_matrix: call_update: 16.815 [ms]
[OGL LOG][Proc: 0]Uz_rhs: call_update: 25.354 [ms]
[OGL LOG][Preconditioner.H:121] Generate preconditioner BJ MaxBlockSize 1
[OGL LOG][Proc: 0]Uz: init_precond: 1.494 [ms]
[OGL LOG][StoppingCriterion.H:373] Creating stopping criterion with minIter 12 frequency 1
[OGL LOG][Proc: 0]Uz: generate_solver: 0.001 [ms]
[OGL LOG][Proc: 0]Uz: solve: 202.137 [ms]
[OGL LOG][Proc: 0]Uz: copy_x_back: 8.521000000000001 [ms]
[OGL LOG][lduLduBase.H:336] 
Statistics:
	Time per iteration: 20213 [mu s]
	Time per residual norm calculation: 365.000000 [mu s]
	Time per iteration and DOF: 0.400598 [ns]
	Retrieve results bandwidth 1.754000 [GByte/s]
[OGL LOG][Proc: 0]Uz: solve_multi_gpu: 256.212 [ms]
BJhipGKOBiCGStab:  Solving for Uz, Initial residual = 0.06531018980864932, Final residual = 0.005947062496823839, No Iterations 10
[INFO] MomentumPredictor: 1364.535 [ms]
[INFO] MatrixAssemblyPI: 668.476 [ms]
[INFO] MatrixAssemblyPII: 311.411 [ms]
GAMG:  Solving for p, Initial residual = 0.05989333712921654, Final residual = 0.0005086698730862196, No Iterations 5
[INFO] SolveP: 1768.239 [ms]
time step continuity errors : sum local = 0.005019996517848958, global = 7.062536549531903e-06, cumulative = 0.0003266042900996494
[INFO] postSolveP: 158.336 [ms]
[OGL LOG][Proc: 0]: global_index_init: 4.864 [ms]
[OGL LOG][Proc: 0]nuTilda_local_coeffs: call_update: 0 [ms]
[OGL LOG][Proc: 0]nuTilda_non_local_coeffs: call_update: 0 [ms]
[OGL LOG][Proc: 0]nuTilda: update_local_matrix_data: 85.176 [ms]
[OGL LOG][Proc: 0]nuTilda: update_non_local_matrix_data: 0.471 [ms]
[OGL LOG][Proc: 0]nuTilda_matrix: call_update: 16.201 [ms]
[OGL LOG][Proc: 0]nuTilda_rhs: call_update: 23.137 [ms]
[OGL LOG][Preconditioner.H:121] Generate preconditioner BJ MaxBlockSize 1
[OGL LOG][Proc: 0]nuTilda: init_precond: 1.508 [ms]
[OGL LOG][StoppingCriterion.H:373] Creating stopping criterion with minIter 3 frequency 1
[OGL LOG][Proc: 0]nuTilda: generate_solver: 0.001 [ms]
[OGL LOG][Proc: 0]nuTilda: solve: 155.606 [ms]
[OGL LOG][Proc: 0]nuTilda: copy_x_back: 7.661 [ms]
[OGL LOG][lduLduBase.H:336] 
Statistics:
	Time per iteration: 77803 [mu s]
	Time per residual norm calculation: 509.000000 [mu s]
	Time per iteration and DOF: 1.541964 [ns]
	Retrieve results bandwidth 1.951000 [GByte/s]
[OGL LOG][Proc: 0]nuTilda: solve_multi_gpu: 206.279 [ms]
BJhipGKOBiCGStab:  Solving for nuTilda, Initial residual = 0.01609519026293942, Final residual = 0.001348243313457178, No Iterations 2
bounding nuTilda, min: -0.001887931520976058 max: 0.006971265083475207 average: 0.0003354374238197778
[INFO] TimeStep: 9973.882 [ms]
ExecutionTime = 660.55 s  ClockTime = 663 s

Time = 49

velocityDampingConstraint velocityDamping damped 0 (0%) of cells, with max limit 300
[INFO] MatrixAssemblyU: 3333.782 [ms]
[OGL LOG][Proc: 0]: global_index_init: 0.536 [ms]
[OGL LOG][Proc: 0]Ux_local_coeffs: call_update: 0 [ms]
[OGL LOG][Proc: 0]Ux_non_local_coeffs: call_update: 0 [ms]
[OGL LOG][Proc: 0]Ux: update_local_matrix_data: 79.886 [ms]
[OGL LOG][Proc: 0]Ux: update_non_local_matrix_data: 0.228 [ms]
[OGL LOG][Proc: 0]Ux_matrix: call_update: 19.132 [ms]
[OGL LOG][Proc: 0]Ux_rhs: call_update: 16.689 [ms]
[OGL LOG][Preconditioner.H:121] Generate preconditioner BJ MaxBlockSize 1
[OGL LOG][Proc: 0]Ux: init_precond: 1.492 [ms]
[OGL LOG][StoppingCriterion.H:373] Creating stopping criterion with minIter 12 frequency 1
[OGL LOG][Proc: 0]Ux: generate_solver: 0.001 [ms]
[OGL LOG][Proc: 0]Ux: solve: 208.96 [ms]
[OGL LOG][Proc: 0]Ux: copy_x_back: 8.239000000000001 [ms]
[OGL LOG][lduLduBase.H:336] 
Statistics:
	Time per iteration: 18996 [mu s]
	Time per residual norm calculation: 360.000000 [mu s]
	Time per iteration and DOF: 0.376478 [ns]
	Retrieve results bandwidth 1.814000 [GByte/s]
[OGL LOG][Proc: 0]Ux: solve_multi_gpu: 256.416 [ms]
BJhipGKOBiCGStab:  Solving for Ux, Initial residual = 0.01163856876906443, Final residual = 0.001158861754390741, No Iterations 11
[OGL LOG][Proc: 0]: global_index_init: 1.253 [ms]
[OGL LOG][Proc: 0]Uy_local_coeffs: call_update: 0 [ms]
[OGL LOG][Proc: 0]Uy_non_local_coeffs: call_update: 0 [ms]
[OGL LOG][Proc: 0]Uy: update_local_matrix_data: 81.121 [ms]
[OGL LOG][Proc: 0]Uy: update_non_local_matrix_data: 0.338 [ms]
[OGL LOG][Proc: 0]Uy_matrix: call_update: 22.071 [ms]
[OGL LOG][Proc: 0]Uy_rhs: call_update: 17.726 [ms]
[OGL LOG][Preconditioner.H:121] Generate preconditioner BJ MaxBlockSize 1
[OGL LOG][Proc: 0]Uy: init_precond: 1.507 [ms]
[OGL LOG][StoppingCriterion.H:373] Creating stopping criterion with minIter 19 frequency 1
[OGL LOG][Proc: 0]Uy: generate_solver: 0.001 [ms]
[OGL LOG][Proc: 0]Uy: solve: 223.365 [ms]
[OGL LOG][Proc: 0]Uy: copy_x_back: 7.502 [ms]
[OGL LOG][lduLduBase.H:336] 
Statistics:
	Time per iteration: 18613 [mu s]
	Time per residual norm calculation: 526.000000 [mu s]
	Time per iteration and DOF: 0.368888 [ns]
	Retrieve results bandwidth 1.992000 [GByte/s]
[OGL LOG][Proc: 0]Uy: solve_multi_gpu: 274.052 [ms]
BJhipGKOBiCGStab:  Solving for Uy, Initial residual = 0.06604881496494187, Final residual = 0.00483259154737388, No Iterations 12
[OGL LOG][Proc: 0]: global_index_init: 1.392 [ms]
[OGL LOG][Proc: 0]Uz_local_coeffs: call_update: 0 [ms]
[OGL LOG][Proc: 0]Uz_non_local_coeffs: call_update: 0 [ms]
[OGL LOG][Proc: 0]Uz: update_local_matrix_data: 80.64100000000001 [ms]
[OGL LOG][Proc: 0]Uz: update_non_local_matrix_data: 0.443 [ms]
[OGL LOG][Proc: 0]Uz_matrix: call_update: 18.326 [ms]
[OGL LOG][Proc: 0]Uz_rhs: call_update: 14.413 [ms]
[OGL LOG][Preconditioner.H:121] Generate preconditioner BJ MaxBlockSize 1
[OGL LOG][Proc: 0]Uz: init_precond: 1.517 [ms]
[OGL LOG][StoppingCriterion.H:373] Creating stopping criterion with minIter 12 frequency 1
[OGL LOG][Proc: 0]Uz: generate_solver: 0.001 [ms]
[OGL LOG][Proc: 0]Uz: solve: 245.245 [ms]
[OGL LOG][Proc: 0]Uz: copy_x_back: 7.431 [ms]
[OGL LOG][lduLduBase.H:336] 
Statistics:
	Time per iteration: 13624 [mu s]
	Time per residual norm calculation: 490.000000 [mu s]
	Time per iteration and DOF: 0.270012 [ns]
	Retrieve results bandwidth 2.011000 [GByte/s]
[OGL LOG][Proc: 0]Uz: solve_multi_gpu: 288.777 [ms]
BJhipGKOBiCGStab:  Solving for Uz, Initial residual = 0.06806719785537851, Final residual = 0.001232526236781425, No Iterations 18
[INFO] MomentumPredictor: 1357.821 [ms]
[INFO] MatrixAssemblyPI: 668.048 [ms]
[INFO] MatrixAssemblyPII: 312.106 [ms]
GAMG:  Solving for p, Initial residual = 0.06396138149456697, Final residual = 0.0004888058765358404, No Iterations 5
[INFO] SolveP: 1754.846 [ms]
time step continuity errors : sum local = 0.004782351467949835, global = 1.428440566270513e-06, cumulative = 0.0003280327306659199
[INFO] postSolveP: 160.401 [ms]
[OGL LOG][Proc: 0]: global_index_init: 10.885 [ms]
[OGL LOG][Proc: 0]nuTilda_local_coeffs: call_update: 0 [ms]
[OGL LOG][Proc: 0]nuTilda_non_local_coeffs: call_update: 0 [ms]
[OGL LOG][Proc: 0]nuTilda: update_local_matrix_data: 83.086 [ms]
[OGL LOG][Proc: 0]nuTilda: update_non_local_matrix_data: 0.24 [ms]
[OGL LOG][Proc: 0]nuTilda_matrix: call_update: 20.528 [ms]
[OGL LOG][Proc: 0]nuTilda_rhs: call_update: 15.787 [ms]
[OGL LOG][Preconditioner.H:121] Generate preconditioner BJ MaxBlockSize 1
[OGL LOG][Proc: 0]nuTilda: init_precond: 1.523 [ms]
[OGL LOG][StoppingCriterion.H:373] Creating stopping criterion with minIter 2 frequency 1
[OGL LOG][Proc: 0]nuTilda: generate_solver: 0.001 [ms]
[OGL LOG][Proc: 0]nuTilda: solve: 157.638 [ms]
[OGL LOG][Proc: 0]nuTilda: copy_x_back: 8.428000000000001 [ms]
[OGL LOG][lduLduBase.H:336] 
Statistics:
	Time per iteration: 78819 [mu s]
	Time per residual norm calculation: 364.000000 [mu s]
	Time per iteration and DOF: 1.562100 [ns]
	Retrieve results bandwidth 1.773000 [GByte/s]
[OGL LOG][Proc: 0]nuTilda: solve_multi_gpu: 205.843 [ms]
BJhipGKOBiCGStab:  Solving for nuTilda, Initial residual = 0.01126629743059201, Final residual = 0.0006815711149122602, No Iterations 2
bounding nuTilda, min: -0.0005565708676969882 max: 0.007023540461606461 average: 0.0003452350043827827
[INFO] TimeStep: 9956.927 [ms]
ExecutionTime = 673.0700000000001 s  ClockTime = 676 s

Time = 50

velocityDampingConstraint velocityDamping damped 0 (0%) of cells, with max limit 300
[INFO] MatrixAssemblyU: 3332.103 [ms]
[OGL LOG][Proc: 0]: global_index_init: 0.104 [ms]
[OGL LOG][Proc: 0]Ux_local_coeffs: call_update: 0 [ms]
[OGL LOG][Proc: 0]Ux_non_local_coeffs: call_update: 0 [ms]
[OGL LOG][Proc: 0]Ux: update_local_matrix_data: 78.943 [ms]
[OGL LOG][Proc: 0]Ux: update_non_local_matrix_data: 0.294 [ms]
[OGL LOG][Proc: 0]Ux_matrix: call_update: 18.604 [ms]
[OGL LOG][Proc: 0]Ux_rhs: call_update: 15.797 [ms]
[OGL LOG][Preconditioner.H:121] Generate preconditioner BJ MaxBlockSize 1
[OGL LOG][Proc: 0]Ux: init_precond: 1.511 [ms]
[OGL LOG][StoppingCriterion.H:373] Creating stopping criterion with minIter 13 frequency 1
[OGL LOG][Proc: 0]Ux: generate_solver: 0.001 [ms]
[OGL LOG][Proc: 0]Ux: solve: 201.325 [ms]
[OGL LOG][Proc: 0]Ux: copy_x_back: 7.38 [ms]
[OGL LOG][lduLduBase.H:336] 
Statistics:
	Time per iteration: 20132 [mu s]
	Time per residual norm calculation: 374.000000 [mu s]
	Time per iteration and DOF: 0.398993 [ns]
	Retrieve results bandwidth 2.025000 [GByte/s]
[OGL LOG][Proc: 0]Ux: solve_multi_gpu: 246.549 [ms]
BJhipGKOBiCGStab:  Solving for Ux, Initial residual = 0.0113921906498984, Final residual = 0.0009885873252772025, No Iterations 10
[OGL LOG][Proc: 0]: global_index_init: 0.12 [ms]
[OGL LOG][Proc: 0]Uy_local_coeffs: call_update: 0 [ms]
[OGL LOG][Proc: 0]Uy_non_local_coeffs: call_update: 0 [ms]
[OGL LOG][Proc: 0]Uy: update_local_matrix_data: 79.863 [ms]
[OGL LOG][Proc: 0]Uy: update_non_local_matrix_data: 0.411 [ms]
[OGL LOG][Proc: 0]Uy_matrix: call_update: 17.962 [ms]
[OGL LOG][Proc: 0]Uy_rhs: call_update: 15.185 [ms]
[OGL LOG][Preconditioner.H:121] Generate preconditioner BJ MaxBlockSize 1
[OGL LOG][Proc: 0]Uy: init_precond: 1.514 [ms]
[OGL LOG][StoppingCriterion.H:373] Creating stopping criterion with minIter 14 frequency 1
[OGL LOG][Proc: 0]Uy: generate_solver: 0.001 [ms]
[OGL LOG][Proc: 0]Uy: solve: 213.953 [ms]
[OGL LOG][Proc: 0]Uy: copy_x_back: 8.197000000000001 [ms]
[OGL LOG][lduLduBase.H:336] 
Statistics:
	Time per iteration: 16457 [mu s]
	Time per residual norm calculation: 489.000000 [mu s]
	Time per iteration and DOF: 0.326158 [ns]
	Retrieve results bandwidth 1.823000 [GByte/s]
[OGL LOG][Proc: 0]Uy: solve_multi_gpu: 258.722 [ms]
BJhipGKOBiCGStab:  Solving for Uy, Initial residual = 0.08783580301558459, Final residual = 0.004717100239882749, No Iterations 13
[OGL LOG][Proc: 0]: global_index_init: 3.447 [ms]
[OGL LOG][Proc: 0]Uz_local_coeffs: call_update: 0 [ms]
[OGL LOG][Proc: 0]Uz_non_local_coeffs: call_update: 0 [ms]
[OGL LOG][Proc: 0]Uz: update_local_matrix_data: 80.41500000000001 [ms]
[OGL LOG][Proc: 0]Uz: update_non_local_matrix_data: 0.318 [ms]
[OGL LOG][Proc: 0]Uz_matrix: call_update: 18.787 [ms]
[OGL LOG][Proc: 0]Uz_rhs: call_update: 18.874 [ms]
[OGL LOG][Preconditioner.H:121] Generate preconditioner BJ MaxBlockSize 1
[OGL LOG][Proc: 0]Uz: init_precond: 1.499 [ms]
[OGL LOG][StoppingCriterion.H:373] Creating stopping criterion with minIter 21 frequency 1
[OGL LOG][Proc: 0]Uz: generate_solver: 0.001 [ms]
[OGL LOG][Proc: 0]Uz: solve: 196.728 [ms]
[OGL LOG][Proc: 0]Uz: copy_x_back: 8.292 [ms]
[OGL LOG][lduLduBase.H:336] 
Statistics:
	Time per iteration: 17884 [mu s]
	Time per residual norm calculation: 518.000000 [mu s]
	Time per iteration and DOF: 0.354440 [ns]
	Retrieve results bandwidth 1.802000 [GByte/s]
[OGL LOG][Proc: 0]Uz: solve_multi_gpu: 246.047 [ms]
BJhipGKOBiCGStab:  Solving for Uz, Initial residual = 0.06860141040818037, Final residual = 0.006678243054898658, No Iterations 11
[INFO] MomentumPredictor: 1291.14 [ms]
[INFO] MatrixAssemblyPI: 667.421 [ms]
[INFO] MatrixAssemblyPII: 307.809 [ms]
GAMG:  Solving for p, Initial residual = 0.05749926645417021, Final residual = 0.0004606820073548699, No Iterations 5
[INFO] SolveP: 1754.828 [ms]
time step continuity errors : sum local = 0.004449523446345741, global = 2.083720132370398e-05, cumulative = 0.0003488699319896239
[INFO] postSolveP: 159.863 [ms]
[OGL LOG][Proc: 0]: global_index_init: 13.351 [ms]
[OGL LOG][Proc: 0]nuTilda_local_coeffs: call_update: 0 [ms]
[OGL LOG][Proc: 0]nuTilda_non_local_coeffs: call_update: 0 [ms]
[OGL LOG][Proc: 0]nuTilda: update_local_matrix_data: 81.188 [ms]
[OGL LOG][Proc: 0]nuTilda: update_non_local_matrix_data: 0.232 [ms]
[OGL LOG][Proc: 0]nuTilda_matrix: call_update: 19.838 [ms]
[OGL LOG][Proc: 0]nuTilda_rhs: call_update: 18.194 [ms]
[OGL LOG][Preconditioner.H:121] Generate preconditioner BJ MaxBlockSize 1
[OGL LOG][Proc: 0]nuTilda: init_precond: 1.522 [ms]
[OGL LOG][StoppingCriterion.H:373] Creating stopping criterion with minIter 3 frequency 1
[OGL LOG][Proc: 0]nuTilda: generate_solver: 0.001 [ms]
[OGL LOG][Proc: 0]nuTilda: solve: 157.102 [ms]
[OGL LOG][Proc: 0]nuTilda: copy_x_back: 8.281000000000001 [ms]
[OGL LOG][lduLduBase.H:336] 
Statistics:
	Time per iteration: 78551 [mu s]
	Time per residual norm calculation: 516.000000 [mu s]
	Time per iteration and DOF: 1.556788 [ns]
	Retrieve results bandwidth 1.805000 [GByte/s]
[OGL LOG][Proc: 0]nuTilda: solve_multi_gpu: 206.946 [ms]
BJhipGKOBiCGStab:  Solving for nuTilda, Initial residual = 0.01539115319049729, Final residual = 0.001292644502539495, No Iterations 2
bounding nuTilda, min: -0.002191792863628028 max: 0.007057071729749039 average: 0.0003517185483868533
[INFO] TimeStep: 9889.956 [ms]
ExecutionTime = 685.52 s  ClockTime = 688 s

End

Finalising parallel run
