/*---------------------------------------------------------------------------*\
| =========                 |                                                 |
| \\      /  F ield         | OpenFOAM: The Open Source CFD Toolbox           |
|  \\    /   O peration     | Version:  2306                                  |
|   \\  /    A nd           | Website:  www.openfoam.com                      |
|    \\/     M anipulation  |                                                 |
\*---------------------------------------------------------------------------*/
Build  : a6e826bd55-20230630 OPENFOAM=2306 version=v2306
Arch   : "LSB;label=32;scalar=64"
Exec   : icoFoam -parallel -case /tmp/lidDrivenCavity/workspace/c693ca1401737c02c455e89dfebb8b83/case
Date   : Dec 16 2023
Time   : 15:48:01
Host   : nla-gpu2.ianm.kit.edu
PID    : 178565
I/O    : uncollated
Case   : /tmp/lidDrivenCavity/workspace/c693ca1401737c02c455e89dfebb8b83/case
nProcs : 16
Hosts  :
(
    (nla-gpu2.ianm.kit.edu 16)
)
Pstream initialized with:
    floatTransfer      : false
    nProcsSimpleSum    : 0
    nonBlockingExchange: 0 (tuning: 0)
    exchange algorithm : -1
    commsType          : nonBlocking
    polling iterations : 0
trapFpe: Floating point exception trapping enabled (FOAM_SIGFPE).
fileModificationChecking : Monitoring run-time modified files using timeStampMaster (fileModificationSkew 5, maxFileModificationPolls 20)
allowSystemOperations : Allowing user-supplied system call operations

// * * * * * * * * * * * * * * * * * * * * * * * * * * * * * * * * * * * * * //
Create time

--> FOAM Warning : 
    From void* Foam::dlLibraryTable::openLibrary(const Foam::fileName&, bool)
    in file db/dynamicLibrary/dlLibraryTable/dlLibraryTable.C at line 188
    Could not load "libpetscFoam.so"
libpetscFoam.so: cannot open shared object file: No such file or directory
Create mesh for time = 0


PISO: Operating solver in PISO mode

Reading transportProperties

Reading field p

Reading field U

Reading/calculating face flux field phi


Starting time loop

Time = 0.000166

Courant Number mean: 8.14055e-18 max: 3.11001e-14
[INFO] MatrixAssemblyU: 246.39 [ms]
DILUPBiCGStab:  Solving for Ux, Initial residual = 1, Final residual = 0.0163135, No Iterations 5
DILUPBiCGStab:  Solving for Uy:  solution singularity
DILUPBiCGStab:  Solving for Uz:  solution singularity
[INFO] MomentumPredictor: 980.604 [ms]
[INFO] MatrixAssemblyPI: 248.615 [ms]
[INFO] AdjustPhi: 14.303 [ms]
[INFO] ConstrainPressure: 0.011 [ms]
[INFO] MatrixAssemblyPII: 71.376 [ms]
GAMG:  Solving for p, Initial residual = 1, Final residual = 9.92151e-05, No Iterations 36
[INFO] SolveP: 6714.99 [ms]
time step continuity errors : sum local = 4.02584e-09, global = 3.03926e-21, cumulative = 3.03926e-21
[INFO] ContinuityError: 29.565 [ms]
[INFO] CorrectBoundary: 1.035 [ms]
[INFO] PISOStep: 7161.57 [ms]
[INFO] MatrixAssemblyPI: 235.333 [ms]
[INFO] AdjustPhi: 13.875 [ms]
[INFO] ConstrainPressure: 0.004 [ms]
[INFO] MatrixAssemblyPII: 71.618 [ms]
GAMG:  Solving for p, Initial residual = 0.809459, Final residual = 9.56864e-05, No Iterations 25
[INFO] SolveP: 4386.99 [ms]
time step continuity errors : sum local = 4.7196e-09, global = 5.78753e-22, cumulative = 3.61802e-21
[INFO] ContinuityError: 28.861 [ms]
[INFO] CorrectBoundary: 0.631 [ms]
[INFO] PISOStep: 4819.88 [ms]
[INFO] TimeStep: 13239 [ms]
ExecutionTime = 14.44 s  ClockTime = 15 s

Time = 0.000332

Courant Number mean: 0.0128239 max: 0.426584
[INFO] MatrixAssemblyU: 213.476 [ms]
DILUPBiCGStab:  Solving for Ux, Initial residual = 0.116955, Final residual = 0.00979633, No Iterations 5
DILUPBiCGStab:  Solving for Uy, Initial residual = 0.460133, Final residual = 0.0314357, No Iterations 5
DILUPBiCGStab:  Solving for Uz, Initial residual = 0.986571, Final residual = 0.076413, No Iterations 5
[INFO] MomentumPredictor: 1759.96 [ms]
[INFO] MatrixAssemblyPI: 240.409 [ms]
[INFO] AdjustPhi: 14.747 [ms]
[INFO] ConstrainPressure: 0.004 [ms]
[INFO] MatrixAssemblyPII: 70.79 [ms]
GAMG:  Solving for p, Initial residual = 0.879108, Final residual = 6.73921e-05, No Iterations 40
[INFO] SolveP: 6938.69 [ms]
time step continuity errors : sum local = 6.46978e-09, global = -9.50199e-23, cumulative = 3.523e-21
[INFO] ContinuityError: 29.876 [ms]
[INFO] CorrectBoundary: 0.648 [ms]
[INFO] PISOStep: 7376.78 [ms]
[INFO] MatrixAssemblyPI: 235.891 [ms]
[INFO] AdjustPhi: 13.628 [ms]
[INFO] ConstrainPressure: 0.004 [ms]
[INFO] MatrixAssemblyPII: 70.98 [ms]
GAMG:  Solving for p, Initial residual = 0.827192, Final residual = 9.82501e-05, No Iterations 54
[INFO] SolveP: 9337.43 [ms]
time step continuity errors : sum local = 9.58651e-09, global = 4.9295e-22, cumulative = 4.01595e-21
[INFO] ContinuityError: 28.977 [ms]
[INFO] CorrectBoundary: 1.134 [ms]
[INFO] PISOStep: 9769.86 [ms]
[INFO] TimeStep: 19149.2 [ms]
ExecutionTime = 33.5 s  ClockTime = 34 s

Time = 0.000498

Courant Number mean: 0.0197921 max: 0.491899
[INFO] MatrixAssemblyU: 212.678 [ms]
DILUPBiCGStab:  Solving for Ux, Initial residual = 0.0544376, Final residual = 0.00365132, No Iterations 5
DILUPBiCGStab:  Solving for Uy, Initial residual = 0.226374, Final residual = 0.0163824, No Iterations 5
DILUPBiCGStab:  Solving for Uz, Initial residual = 0.861458, Final residual = 0.0661502, No Iterations 5
[INFO] MomentumPredictor: 1760.52 [ms]
[INFO] MatrixAssemblyPI: 241.748 [ms]
[INFO] AdjustPhi: 13.133 [ms]
[INFO] ConstrainPressure: 0.004 [ms]
[INFO] MatrixAssemblyPII: 70.788 [ms]
GAMG:  Solving for p, Initial residual = 0.914416, Final residual = 6.28857e-05, No Iterations 37
[INFO] SolveP: 6414.58 [ms]
time step continuity errors : sum local = 6.61338e-09, global = 9.78348e-25, cumulative = 4.01692e-21
[INFO] ContinuityError: 29.21 [ms]
[INFO] CorrectBoundary: 1.349 [ms]
[INFO] PISOStep: 6850.91 [ms]
[INFO] MatrixAssemblyPI: 233.785 [ms]
[INFO] AdjustPhi: 14.788 [ms]
[INFO] ConstrainPressure: 0.004 [ms]
[INFO] MatrixAssemblyPII: 70.339 [ms]
GAMG:  Solving for p, Initial residual = 0.88301, Final residual = 7.64785e-05, No Iterations 33
[INFO] SolveP: 5725.39 [ms]
time step continuity errors : sum local = 7.93299e-09, global = -7.54495e-22, cumulative = 3.26243e-21
[INFO] ContinuityError: 28.864 [ms]
[INFO] CorrectBoundary: 0.6 [ms]
[INFO] PISOStep: 6155.47 [ms]
[INFO] TimeStep: 15008.6 [ms]
ExecutionTime = 48.43 s  ClockTime = 49 s

Time = 0.000664

Courant Number mean: 0.0238789 max: 0.472063
[INFO] MatrixAssemblyU: 212.887 [ms]
DILUPBiCGStab:  Solving for Ux, Initial residual = 0.0385523, Final residual = 0.00293677, No Iterations 5
DILUPBiCGStab:  Solving for Uy, Initial residual = 0.173936, Final residual = 0.0133165, No Iterations 5
DILUPBiCGStab:  Solving for Uz, Initial residual = 0.775346, Final residual = 0.0523696, No Iterations 5
[INFO] MomentumPredictor: 1764.49 [ms]
[INFO] MatrixAssemblyPI: 242.198 [ms]
[INFO] AdjustPhi: 15.931 [ms]
[INFO] ConstrainPressure: 0.004 [ms]
[INFO] MatrixAssemblyPII: 70.718 [ms]
GAMG:  Solving for p, Initial residual = 0.891402, Final residual = 8.56468e-05, No Iterations 35
[INFO] SolveP: 6086.95 [ms]
time step continuity errors : sum local = 9.60689e-09, global = 1.1077e-21, cumulative = 4.37013e-21
[INFO] ContinuityError: 29.412 [ms]
[INFO] CorrectBoundary: 0.875 [ms]
[INFO] PISOStep: 6527.45 [ms]
[INFO] MatrixAssemblyPI: 235.459 [ms]
[INFO] AdjustPhi: 12.905 [ms]
[INFO] ConstrainPressure: 0.004 [ms]
[INFO] MatrixAssemblyPII: 69.664 [ms]
GAMG:  Solving for p, Initial residual = 0.831297, Final residual = 6.3622e-05, No Iterations 48
[INFO] SolveP: 8298.57 [ms]
time step continuity errors : sum local = 7.29547e-09, global = 2.46355e-22, cumulative = 4.61648e-21
[INFO] ContinuityError: 30.325 [ms]
[INFO] CorrectBoundary: 0.597 [ms]
[INFO] PISOStep: 8729.87 [ms]
[INFO] TimeStep: 17263.7 [ms]
ExecutionTime = 65.62 s  ClockTime = 66 s

Time = 0.00083

Courant Number mean: 0.0273934 max: 0.50522
[INFO] MatrixAssemblyU: 213.615 [ms]
DILUPBiCGStab:  Solving for Ux, Initial residual = 0.03237, Final residual = 0.00250028, No Iterations 5
DILUPBiCGStab:  Solving for Uy, Initial residual = 0.129918, Final residual = 0.0113714, No Iterations 5
DILUPBiCGStab:  Solving for Uz, Initial residual = 0.761089, Final residual = 0.057044, No Iterations 5
[INFO] MomentumPredictor: 1764.87 [ms]
[INFO] MatrixAssemblyPI: 241.89 [ms]
[INFO] AdjustPhi: 12.986 [ms]
[INFO] ConstrainPressure: 0.004 [ms]
[INFO] MatrixAssemblyPII: 70.826 [ms]
GAMG:  Solving for p, Initial residual = 0.911641, Final residual = 7.01647e-05, No Iterations 33
[INFO] SolveP: 5730.34 [ms]
time step continuity errors : sum local = 7.84917e-09, global = -2.70076e-22, cumulative = 4.3464e-21
[INFO] ContinuityError: 29.139 [ms]
[INFO] CorrectBoundary: 1.092 [ms]
[INFO] PISOStep: 6166.92 [ms]
[INFO] MatrixAssemblyPI: 233.894 [ms]
[INFO] AdjustPhi: 13.861 [ms]
[INFO] ConstrainPressure: 0.004 [ms]
[INFO] MatrixAssemblyPII: 70.621 [ms]
GAMG:  Solving for p, Initial residual = 0.873689, Final residual = 6.5861e-05, No Iterations 27
[INFO] SolveP: 4700.58 [ms]
time step continuity errors : sum local = 7.24889e-09, global = 1.25139e-21, cumulative = 5.5978e-21
[INFO] ContinuityError: 29.078 [ms]
[INFO] CorrectBoundary: 0.757 [ms]
[INFO] PISOStep: 5130.14 [ms]
[INFO] TimeStep: 13304.1 [ms]
ExecutionTime = 78.85 s  ClockTime = 80 s

Time = 0.000996

Courant Number mean: 0.0301237 max: 0.478409
[INFO] MatrixAssemblyU: 211.797 [ms]
DILUPBiCGStab:  Solving for Ux, Initial residual = 0.0271167, Final residual = 0.00227606, No Iterations 5
DILUPBiCGStab:  Solving for Uy, Initial residual = 0.111976, Final residual = 0.00906638, No Iterations 5
DILUPBiCGStab:  Solving for Uz, Initial residual = 0.665591, Final residual = 0.0465574, No Iterations 5
[INFO] MomentumPredictor: 1761.4 [ms]
[INFO] MatrixAssemblyPI: 241.491 [ms]
[INFO] AdjustPhi: 13.61 [ms]
[INFO] ConstrainPressure: 0.005 [ms]
[INFO] MatrixAssemblyPII: 70.809 [ms]
GAMG:  Solving for p, Initial residual = 0.889533, Final residual = 8.09018e-05, No Iterations 28
[INFO] SolveP: 4872.54 [ms]
time step continuity errors : sum local = 9.22236e-09, global = 7.5247e-23, cumulative = 5.67304e-21
[INFO] ContinuityError: 28.647 [ms]
[INFO] CorrectBoundary: 0.725 [ms]
[INFO] PISOStep: 5308.69 [ms]
[INFO] MatrixAssemblyPI: 234.375 [ms]
[INFO] AdjustPhi: 13.609 [ms]
[INFO] ConstrainPressure: 0.004 [ms]
[INFO] MatrixAssemblyPII: 70.886 [ms]
GAMG:  Solving for p, Initial residual = 0.826542, Final residual = 6.25827e-05, No Iterations 36
[INFO] SolveP: 6240.03 [ms]
time step continuity errors : sum local = 7.23956e-09, global = 7.77323e-22, cumulative = 6.45037e-21
[INFO] ContinuityError: 29.801 [ms]
[INFO] CorrectBoundary: 0.907 [ms]
[INFO] PISOStep: 6669.82 [ms]
[INFO] TimeStep: 13980.2 [ms]
ExecutionTime = 92.76 s  ClockTime = 93 s

Time = 0.001162

Courant Number mean: 0.0325875 max: 0.512317
[INFO] MatrixAssemblyU: 209.519 [ms]
DILUPBiCGStab:  Solving for Ux, Initial residual = 0.0245882, Final residual = 0.00211678, No Iterations 5
DILUPBiCGStab:  Solving for Uy, Initial residual = 0.0985576, Final residual = 0.00833394, No Iterations 5
DILUPBiCGStab:  Solving for Uz, Initial residual = 0.663928, Final residual = 0.0492848, No Iterations 5
[INFO] MomentumPredictor: 1763.57 [ms]
[INFO] MatrixAssemblyPI: 241.45 [ms]
[INFO] AdjustPhi: 13.703 [ms]
[INFO] ConstrainPressure: 0.005 [ms]
[INFO] MatrixAssemblyPII: 70.809 [ms]
GAMG:  Solving for p, Initial residual = 0.907504, Final residual = 9.99789e-05, No Iterations 27
[INFO] SolveP: 4697.99 [ms]
time step continuity errors : sum local = 1.11416e-08, global = 5.62344e-22, cumulative = 7.01271e-21
[INFO] ContinuityError: 28.687 [ms]
[INFO] CorrectBoundary: 0.789 [ms]
[INFO] PISOStep: 5134.05 [ms]
[INFO] MatrixAssemblyPI: 235.791 [ms]
[INFO] AdjustPhi: 12.545 [ms]
[INFO] ConstrainPressure: 0.004 [ms]
[INFO] MatrixAssemblyPII: 70.703 [ms]
GAMG:  Solving for p, Initial residual = 0.86267, Final residual = 9.67314e-05, No Iterations 37
[INFO] SolveP: 6426.57 [ms]
time step continuity errors : sum local = 1.06561e-08, global = 5.92913e-22, cumulative = 7.60562e-21
[INFO] ContinuityError: 29.604 [ms]
[INFO] CorrectBoundary: 0.611 [ms]
[INFO] PISOStep: 6857.1 [ms]
[INFO] TimeStep: 13992.9 [ms]
ExecutionTime = 106.7 s  ClockTime = 107 s

Time = 0.001328

Courant Number mean: 0.0346591 max: 0.481353
[INFO] MatrixAssemblyU: 212.56 [ms]
DILUPBiCGStab:  Solving for Ux, Initial residual = 0.0221972, Final residual = 0.00199152, No Iterations 5
DILUPBiCGStab:  Solving for Uy, Initial residual = 0.0873102, Final residual = 0.00700839, No Iterations 5
DILUPBiCGStab:  Solving for Uz, Initial residual = 0.636705, Final residual = 0.0519982, No Iterations 5
[INFO] MomentumPredictor: 1761.35 [ms]
[INFO] MatrixAssemblyPI: 242.06 [ms]
[INFO] AdjustPhi: 12.948 [ms]
[INFO] ConstrainPressure: 0.004 [ms]
[INFO] MatrixAssemblyPII: 70.701 [ms]
GAMG:  Solving for p, Initial residual = 0.886197, Final residual = 9.65703e-05, No Iterations 53
[INFO] SolveP: 9166.73 [ms]
time step continuity errors : sum local = 1.09964e-08, global = -1.23306e-22, cumulative = 7.48232e-21
[INFO] ContinuityError: 29.917 [ms]
[INFO] CorrectBoundary: 1.299 [ms]
[INFO] PISOStep: 9603.86 [ms]
[INFO] MatrixAssemblyPI: 234.434 [ms]
[INFO] AdjustPhi: 13.45 [ms]
[INFO] ConstrainPressure: 0.004 [ms]
[INFO] MatrixAssemblyPII: 70.871 [ms]
GAMG:  Solving for p, Initial residual = 0.820709, Final residual = 5.81689e-05, No Iterations 28
[INFO] SolveP: 4874.14 [ms]
time step continuity errors : sum local = 6.7114e-09, global = 7.21832e-22, cumulative = 8.20415e-21
[INFO] ContinuityError: 29.342 [ms]
[INFO] CorrectBoundary: 0.816 [ms]
[INFO] PISOStep: 5303.91 [ms]
[INFO] TimeStep: 16911.1 [ms]
ExecutionTime = 123.52 s  ClockTime = 124 s

Time = 0.001494

Courant Number mean: 0.0365932 max: 0.518564
[INFO] MatrixAssemblyU: 211.715 [ms]
DILUPBiCGStab:  Solving for Ux, Initial residual = 0.020612, Final residual = 0.00185551, No Iterations 5
DILUPBiCGStab:  Solving for Uy, Initial residual = 0.0822805, Final residual = 0.00660968, No Iterations 5
DILUPBiCGStab:  Solving for Uz, Initial residual = 0.620606, Final residual = 0.0445555, No Iterations 5
[INFO] MomentumPredictor: 1763.12 [ms]
[INFO] MatrixAssemblyPI: 241.311 [ms]
[INFO] AdjustPhi: 13.37 [ms]
[INFO] ConstrainPressure: 0.005 [ms]
[INFO] MatrixAssemblyPII: 70.788 [ms]
GAMG:  Solving for p, Initial residual = 0.903468, Final residual = 6.89998e-05, No Iterations 30
[INFO] SolveP: 5211.46 [ms]
time step continuity errors : sum local = 7.65911e-09, global = 4.05602e-22, cumulative = 8.60975e-21
[INFO] ContinuityError: 28.951 [ms]
[INFO] CorrectBoundary: 1.374 [ms]
[INFO] PISOStep: 5648.53 [ms]
[INFO] MatrixAssemblyPI: 235.003 [ms]
[INFO] AdjustPhi: 12.75 [ms]
[INFO] ConstrainPressure: 0.005 [ms]
[INFO] MatrixAssemblyPII: 70.922 [ms]
GAMG:  Solving for p, Initial residual = 0.85413, Final residual = 7.254e-05, No Iterations 31
[INFO] SolveP: 5379.99 [ms]
time step continuity errors : sum local = 7.97599e-09, global = -1.83243e-22, cumulative = 8.42651e-21
[INFO] ContinuityError: 28.959 [ms]
[INFO] CorrectBoundary: 0.827 [ms]
[INFO] PISOStep: 5809.12 [ms]
[INFO] TimeStep: 13461.2 [ms]
ExecutionTime = 136.93 s  ClockTime = 138 s

Time = 0.00166

Courant Number mean: 0.0382739 max: 0.483677
[INFO] MatrixAssemblyU: 211.673 [ms]
DILUPBiCGStab:  Solving for Ux, Initial residual = 0.0194253, Final residual = 0.00176982, No Iterations 5
DILUPBiCGStab:  Solving for Uy, Initial residual = 0.073933, Final residual = 0.00573613, No Iterations 5
DILUPBiCGStab:  Solving for Uz, Initial residual = 0.574253, Final residual = 0.0385751, No Iterations 5
[INFO] MomentumPredictor: 1758.54 [ms]
[INFO] MatrixAssemblyPI: 241.486 [ms]
[INFO] AdjustPhi: 13.264 [ms]
[INFO] ConstrainPressure: 0.005 [ms]
[INFO] MatrixAssemblyPII: 70.766 [ms]
GAMG:  Solving for p, Initial residual = 0.884846, Final residual = 6.34761e-05, No Iterations 43
[INFO] SolveP: 7440.26 [ms]
time step continuity errors : sum local = 7.26684e-09, global = 1.74173e-21, cumulative = 1.01682e-20
[INFO] ContinuityError: 28.941 [ms]
[INFO] CorrectBoundary: 0.744 [ms]
[INFO] PISOStep: 7876.25 [ms]
[INFO] MatrixAssemblyPI: 234.874 [ms]
[INFO] AdjustPhi: 13.466 [ms]
[INFO] ConstrainPressure: 0.004 [ms]
[INFO] MatrixAssemblyPII: 71.102 [ms]
GAMG:  Solving for p, Initial residual = 0.816194, Final residual = 6.90127e-05, No Iterations 26
[INFO] SolveP: 4527.39 [ms]
time step continuity errors : sum local = 8.0038e-09, global = 1.34756e-21, cumulative = 1.15158e-20
[INFO] ContinuityError: 29.262 [ms]
[INFO] CorrectBoundary: 0.762 [ms]
[INFO] PISOStep: 4956.44 [ms]
[INFO] TimeStep: 14831.3 [ms]
ExecutionTime = 151.69 s  ClockTime = 153 s

Time = 0.001826

Courant Number mean: 0.0398831 max: 0.525204
[INFO] MatrixAssemblyU: 210.324 [ms]
DILUPBiCGStab:  Solving for Ux, Initial residual = 0.0182401, Final residual = 0.00164684, No Iterations 5
DILUPBiCGStab:  Solving for Uy, Initial residual = 0.0723413, Final residual = 0.00552019, No Iterations 5
DILUPBiCGStab:  Solving for Uz, Initial residual = 0.572592, Final residual = 0.0360083, No Iterations 5
[INFO] MomentumPredictor: 1766.82 [ms]
[INFO] MatrixAssemblyPI: 241.502 [ms]
[INFO] AdjustPhi: 14.713 [ms]
[INFO] ConstrainPressure: 0.005 [ms]
[INFO] MatrixAssemblyPII: 70.819 [ms]
GAMG:  Solving for p, Initial residual = 0.903608, Final residual = 7.03801e-05, No Iterations 27
[INFO] SolveP: 4707.19 [ms]
time step continuity errors : sum local = 8.01527e-09, global = 1.05974e-21, cumulative = 1.25755e-20
[INFO] ContinuityError: 29.022 [ms]
[INFO] CorrectBoundary: 0.707 [ms]
[INFO] PISOStep: 5144.97 [ms]
[INFO] MatrixAssemblyPI: 234.963 [ms]
[INFO] AdjustPhi: 14.475 [ms]
[INFO] ConstrainPressure: 0.004 [ms]
[INFO] MatrixAssemblyPII: 70.231 [ms]
GAMG:  Solving for p, Initial residual = 0.849374, Final residual = 9.45637e-05, No Iterations 34
[INFO] SolveP: 5904.1 [ms]
time step continuity errors : sum local = 1.06932e-08, global = 7.68123e-22, cumulative = 1.33437e-20
[INFO] ContinuityError: 28.803 [ms]
[INFO] CorrectBoundary: 1.034 [ms]
[INFO] PISOStep: 6334.67 [ms]
[INFO] TimeStep: 13485.7 [ms]
ExecutionTime = 165.11 s  ClockTime = 166 s

Time = 0.001992

Courant Number mean: 0.0413044 max: 0.486772
[INFO] MatrixAssemblyU: 210.308 [ms]
DILUPBiCGStab:  Solving for Ux, Initial residual = 0.0176644, Final residual = 0.00159662, No Iterations 5
DILUPBiCGStab:  Solving for Uy, Initial residual = 0.0658141, Final residual = 0.00485778, No Iterations 5
DILUPBiCGStab:  Solving for Uz, Initial residual = 0.56615, Final residual = 0.0395903, No Iterations 5
[INFO] MomentumPredictor: 1761.98 [ms]
[INFO] MatrixAssemblyPI: 241.368 [ms]
[INFO] AdjustPhi: 13.531 [ms]
[INFO] ConstrainPressure: 0.004 [ms]
[INFO] MatrixAssemblyPII: 71.004 [ms]
GAMG:  Solving for p, Initial residual = 0.886507, Final residual = 8.34355e-05, No Iterations 38
[INFO] SolveP: 6587.22 [ms]
time step continuity errors : sum local = 9.89626e-09, global = 1.09769e-21, cumulative = 1.44414e-20
[INFO] ContinuityError: 29.105 [ms]
[INFO] CorrectBoundary: 1.091 [ms]
[INFO] PISOStep: 7023.95 [ms]
[INFO] MatrixAssemblyPI: 234.935 [ms]
[INFO] AdjustPhi: 13.557 [ms]
[INFO] ConstrainPressure: 0.004 [ms]
[INFO] MatrixAssemblyPII: 70.814 [ms]
GAMG:  Solving for p, Initial residual = 0.816439, Final residual = 9.80812e-05, No Iterations 32
[INFO] SolveP: 5555.17 [ms]
time step continuity errors : sum local = 1.17501e-08, global = -2.94019e-22, cumulative = 1.41473e-20
[INFO] ContinuityError: 28.894 [ms]
[INFO] CorrectBoundary: 0.747 [ms]
[INFO] PISOStep: 5984.94 [ms]
[INFO] TimeStep: 15009.8 [ms]
ExecutionTime = 180.05 s  ClockTime = 181 s

Time = 0.002158

Courant Number mean: 0.0426935 max: 0.532844
[INFO] MatrixAssemblyU: 211.888 [ms]
DILUPBiCGStab:  Solving for Ux, Initial residual = 0.0167106, Final residual = 0.00147836, No Iterations 5
DILUPBiCGStab:  Solving for Uy, Initial residual = 0.0659005, Final residual = 0.00476952, No Iterations 5
DILUPBiCGStab:  Solving for Uz, Initial residual = 0.583149, Final residual = 0.0400751, No Iterations 5
[INFO] MomentumPredictor: 1764.67 [ms]
[INFO] MatrixAssemblyPI: 241.741 [ms]
[INFO] AdjustPhi: 14.401 [ms]
[INFO] ConstrainPressure: 0.004 [ms]
[INFO] MatrixAssemblyPII: 70.951 [ms]
GAMG:  Solving for p, Initial residual = 0.904465, Final residual = 9.64153e-05, No Iterations 43
[INFO] SolveP: 7451.68 [ms]
time step continuity errors : sum local = 1.14877e-08, global = 2.51178e-22, cumulative = 1.43985e-20
[INFO] ContinuityError: 29.019 [ms]
[INFO] CorrectBoundary: 0.921 [ms]
[INFO] PISOStep: 7889.39 [ms]
[INFO] MatrixAssemblyPI: 234.688 [ms]
[INFO] AdjustPhi: 13.323 [ms]
[INFO] ConstrainPressure: 0.004 [ms]
[INFO] MatrixAssemblyPII: 70.879 [ms]
GAMG:  Solving for p, Initial residual = 0.846756, Final residual = 5.1346e-05, No Iterations 38
[INFO] SolveP: 6586.05 [ms]
time step continuity errors : sum local = 6.07266e-09, global = 8.76754e-22, cumulative = 1.52753e-20
[INFO] ContinuityError: 29.605 [ms]
[INFO] CorrectBoundary: 1.059 [ms]
[INFO] PISOStep: 7015.68 [ms]
[INFO] TimeStep: 16910.4 [ms]
ExecutionTime = 196.88 s  ClockTime = 198 s

Time = 0.002324

Courant Number mean: 0.0439273 max: 0.489824
[INFO] MatrixAssemblyU: 207.988 [ms]
DILUPBiCGStab:  Solving for Ux, Initial residual = 0.0164906, Final residual = 0.00145689, No Iterations 5
DILUPBiCGStab:  Solving for Uy, Initial residual = 0.0607247, Final residual = 0.0042374, No Iterations 5
DILUPBiCGStab:  Solving for Uz, Initial residual = 0.549241, Final residual = 0.0332737, No Iterations 5
[INFO] MomentumPredictor: 1767.27 [ms]
[INFO] MatrixAssemblyPI: 242.288 [ms]
[INFO] AdjustPhi: 12.438 [ms]
[INFO] ConstrainPressure: 0.005 [ms]
[INFO] MatrixAssemblyPII: 70.949 [ms]
GAMG:  Solving for p, Initial residual = 0.888861, Final residual = 9.25258e-05, No Iterations 28
[INFO] SolveP: 4870.45 [ms]
time step continuity errors : sum local = 1.14173e-08, global = 9.61287e-22, cumulative = 1.62366e-20
[INFO] ContinuityError: 29.13 [ms]
[INFO] CorrectBoundary: 0.901 [ms]
[INFO] PISOStep: 5307.08 [ms]
[INFO] MatrixAssemblyPI: 233.161 [ms]
[INFO] AdjustPhi: 15.242 [ms]
[INFO] ConstrainPressure: 0.004 [ms]
[INFO] MatrixAssemblyPII: 70.813 [ms]
GAMG:  Solving for p, Initial residual = 0.817586, Final residual = 9.6261e-05, No Iterations 26
[INFO] SolveP: 4529.42 [ms]
time step continuity errors : sum local = 1.2037e-08, global = -1.57988e-21, cumulative = 1.46567e-20
[INFO] ContinuityError: 28.92 [ms]
[INFO] CorrectBoundary: 0.643 [ms]
[INFO] PISOStep: 4958.73 [ms]
[INFO] TimeStep: 12270.1 [ms]
ExecutionTime = 209.09 s  ClockTime = 210 s

Time = 0.00249

Courant Number mean: 0.0451547 max: 0.541517
[INFO] MatrixAssemblyU: 211.042 [ms]
DILUPBiCGStab:  Solving for Ux, Initial residual = 0.0157204, Final residual = 0.00134315, No Iterations 5
DILUPBiCGStab:  Solving for Uy, Initial residual = 0.0615957, Final residual = 0.00422116, No Iterations 5
DILUPBiCGStab:  Solving for Uz, Initial residual = 0.569392, Final residual = 0.0360635, No Iterations 5
[INFO] MomentumPredictor: 1762.93 [ms]
[INFO] MatrixAssemblyPI: 241.58 [ms]
[INFO] AdjustPhi: 13.21 [ms]
[INFO] ConstrainPressure: 0.004 [ms]
[INFO] MatrixAssemblyPII: 70.854 [ms]
GAMG:  Solving for p, Initial residual = 0.905292, Final residual = 9.19958e-05, No Iterations 44
[INFO] SolveP: 7596.21 [ms]
time step continuity errors : sum local = 1.14518e-08, global = -1.0896e-21, cumulative = 1.35671e-20
[INFO] ContinuityError: 29.245 [ms]
[INFO] CorrectBoundary: 0.84 [ms]
[INFO] PISOStep: 8032.89 [ms]
[INFO] MatrixAssemblyPI: 234.883 [ms]
[INFO] AdjustPhi: 12.473 [ms]
[INFO] ConstrainPressure: 0.004 [ms]
[INFO] MatrixAssemblyPII: 70.874 [ms]
GAMG:  Solving for p, Initial residual = 0.844557, Final residual = 9.88311e-05, No Iterations 44
[INFO] SolveP: 7603.16 [ms]
time step continuity errors : sum local = 1.22147e-08, global = 5.84262e-23, cumulative = 1.36255e-20
[INFO] ContinuityError: 28.889 [ms]
[INFO] CorrectBoundary: 1.163 [ms]
[INFO] PISOStep: 8031.64 [ms]
[INFO] TimeStep: 18067.5 [ms]
ExecutionTime = 227.07 s  ClockTime = 228 s

Time = 0.002656

Courant Number mean: 0.0462465 max: 0.492924
[INFO] MatrixAssemblyU: 211.495 [ms]
DILUPBiCGStab:  Solving for Ux, Initial residual = 0.0157143, Final residual = 0.00134185, No Iterations 5
DILUPBiCGStab:  Solving for Uy, Initial residual = 0.0575107, Final residual = 0.00378, No Iterations 5
DILUPBiCGStab:  Solving for Uz, Initial residual = 0.567155, Final residual = 0.0379537, No Iterations 5
[INFO] MomentumPredictor: 1762.32 [ms]
[INFO] MatrixAssemblyPI: 241.514 [ms]
[INFO] AdjustPhi: 13.546 [ms]
[INFO] ConstrainPressure: 0.004 [ms]
[INFO] MatrixAssemblyPII: 70.88 [ms]
GAMG:  Solving for p, Initial residual = 0.891891, Final residual = 9.04119e-05, No Iterations 30
[INFO] SolveP: 5221.23 [ms]
time step continuity errors : sum local = 1.16818e-08, global = -7.81545e-22, cumulative = 1.2844e-20
[INFO] ContinuityError: 29.01 [ms]
[INFO] CorrectBoundary: 0.82 [ms]
[INFO] PISOStep: 5657.36 [ms]
[INFO] MatrixAssemblyPI: 234.608 [ms]
[INFO] AdjustPhi: 13.24 [ms]
[INFO] ConstrainPressure: 0.004 [ms]
[INFO] MatrixAssemblyPII: 70.942 [ms]
GAMG:  Solving for p, Initial residual = 0.819777, Final residual = 6.2331e-05, No Iterations 38
[INFO] SolveP: 6587.26 [ms]
time step continuity errors : sum local = 8.10453e-09, global = 8.55316e-22, cumulative = 1.36993e-20
[INFO] ContinuityError: 29.533 [ms]
[INFO] CorrectBoundary: 1.035 [ms]
[INFO] PISOStep: 7016.94 [ms]
[INFO] TimeStep: 14677.2 [ms]
ExecutionTime = 241.68 s  ClockTime = 243 s

Time = 0.002822

Courant Number mean: 0.0473515 max: 0.551666
[INFO] MatrixAssemblyU: 212.654 [ms]
DILUPBiCGStab:  Solving for Ux, Initial residual = 0.0151192, Final residual = 0.00123538, No Iterations 5
DILUPBiCGStab:  Solving for Uy, Initial residual = 0.0588338, Final residual = 0.00381287, No Iterations 5
DILUPBiCGStab:  Solving for Uz, Initial residual = 0.565957, Final residual = 0.0326861, No Iterations 5
[INFO] MomentumPredictor: 1757.01 [ms]
[INFO] MatrixAssemblyPI: 241.022 [ms]
[INFO] AdjustPhi: 14.083 [ms]
[INFO] ConstrainPressure: 0.004 [ms]
[INFO] MatrixAssemblyPII: 71.061 [ms]
GAMG:  Solving for p, Initial residual = 0.906578, Final residual = 8.22553e-05, No Iterations 46
[INFO] SolveP: 7964.38 [ms]
time step continuity errors : sum local = 1.06911e-08, global = -5.68437e-22, cumulative = 1.31308e-20
[INFO] ContinuityError: 29.638 [ms]
[INFO] CorrectBoundary: 0.741 [ms]
[INFO] PISOStep: 8401.69 [ms]
[INFO] MatrixAssemblyPI: 235.386 [ms]
[INFO] AdjustPhi: 13.252 [ms]
[INFO] ConstrainPressure: 0.004 [ms]
[INFO] MatrixAssemblyPII: 70.841 [ms]
GAMG:  Solving for p, Initial residual = 0.842839, Final residual = 7.86744e-05, No Iterations 40
[INFO] SolveP: 6934.38 [ms]
time step continuity errors : sum local = 1.01897e-08, global = 1.65742e-21, cumulative = 1.47883e-20
[INFO] ContinuityError: 28.725 [ms]
[INFO] CorrectBoundary: 1.027 [ms]
[INFO] PISOStep: 7364.03 [ms]
[INFO] TimeStep: 17764 [ms]
ExecutionTime = 259.36 s  ClockTime = 261 s

Time = 0.002988

Courant Number mean: 0.0483294 max: 0.496241
[INFO] MatrixAssemblyU: 210.587 [ms]
DILUPBiCGStab:  Solving for Ux, Initial residual = 0.0152409, Final residual = 0.00124541, No Iterations 5
DILUPBiCGStab:  Solving for Uy, Initial residual = 0.0556915, Final residual = 0.00344147, No Iterations 5
DILUPBiCGStab:  Solving for Uz, Initial residual = 0.552246, Final residual = 0.0315913, No Iterations 5
[INFO] MomentumPredictor: 1764.24 [ms]
[INFO] MatrixAssemblyPI: 241.882 [ms]
[INFO] AdjustPhi: 13.169 [ms]
[INFO] ConstrainPressure: 0.004 [ms]
[INFO] MatrixAssemblyPII: 70.894 [ms]
GAMG:  Solving for p, Initial residual = 0.896299, Final residual = 9.70423e-05, No Iterations 40
[INFO] SolveP: 6936.9 [ms]
time step continuity errors : sum local = 1.31387e-08, global = -6.59029e-22, cumulative = 1.41292e-20
[INFO] ContinuityError: 29.046 [ms]
[INFO] CorrectBoundary: 0.6 [ms]
[INFO] PISOStep: 7373.32 [ms]
[INFO] MatrixAssemblyPI: 235.464 [ms]
[INFO] AdjustPhi: 12.746 [ms]
[INFO] ConstrainPressure: 0.004 [ms]
[INFO] MatrixAssemblyPII: 70.78 [ms]
GAMG:  Solving for p, Initial residual = 0.822813, Final residual = 9.54816e-05, No Iterations 26
[INFO] SolveP: 4519.08 [ms]
time step continuity errors : sum local = 1.29838e-08, global = 7.85081e-23, cumulative = 1.42077e-20
[INFO] ContinuityError: 28.868 [ms]
[INFO] CorrectBoundary: 0.753 [ms]
[INFO] PISOStep: 4947.7 [ms]
[INFO] TimeStep: 14324.3 [ms]
ExecutionTime = 273.62 s  ClockTime = 275 s

Time = 0.003154

Courant Number mean: 0.0493371 max: 0.563246
[INFO] MatrixAssemblyU: 211.326 [ms]
DILUPBiCGStab:  Solving for Ux, Initial residual = 0.0148183, Final residual = 0.00114945, No Iterations 5
DILUPBiCGStab:  Solving for Uy, Initial residual = 0.0572601, Final residual = 0.00350101, No Iterations 5
DILUPBiCGStab:  Solving for Uz, Initial residual = 0.580709, Final residual = 0.0360013, No Iterations 5
[INFO] MomentumPredictor: 1758.27 [ms]
[INFO] MatrixAssemblyPI: 241.584 [ms]
[INFO] AdjustPhi: 13.777 [ms]
[INFO] ConstrainPressure: 0.004 [ms]
[INFO] MatrixAssemblyPII: 70.808 [ms]
GAMG:  Solving for p, Initial residual = 0.909301, Final residual = 8.41055e-05, No Iterations 49
[INFO] SolveP: 8453.51 [ms]
time step continuity errors : sum local = 1.15289e-08, global = 2.66303e-21, cumulative = 1.68708e-20
[INFO] ContinuityError: 28.909 [ms]
[INFO] CorrectBoundary: 1.309 [ms]
[INFO] PISOStep: 8889.8 [ms]
[INFO] MatrixAssemblyPI: 235.519 [ms]
[INFO] AdjustPhi: 12.504 [ms]
[INFO] ConstrainPressure: 0.004 [ms]
[INFO] MatrixAssemblyPII: 70.968 [ms]
GAMG:  Solving for p, Initial residual = 0.842713, Final residual = 7.78376e-05, No Iterations 43
[INFO] SolveP: 7447.78 [ms]
time step continuity errors : sum local = 1.06339e-08, global = 6.5515e-22, cumulative = 1.75259e-20
[INFO] ContinuityError: 29.313 [ms]
[INFO] CorrectBoundary: 1.002 [ms]
[INFO] PISOStep: 7877.79 [ms]
[INFO] TimeStep: 18766.4 [ms]
ExecutionTime = 292.3 s  ClockTime = 294 s

Time = 0.00332

Courant Number mean: 0.0502239 max: 0.499834
[INFO] MatrixAssemblyU: 210.803 [ms]
DILUPBiCGStab:  Solving for Ux, Initial residual = 0.0150484, Final residual = 0.0011668, No Iterations 5
DILUPBiCGStab:  Solving for Uy, Initial residual = 0.0549122, Final residual = 0.00319085, No Iterations 5
DILUPBiCGStab:  Solving for Uz, Initial residual = 0.562171, Final residual = 0.0313713, No Iterations 5
[INFO] MomentumPredictor: 1769.5 [ms]
[INFO] MatrixAssemblyPI: 241.405 [ms]
[INFO] AdjustPhi: 14.09 [ms]
[INFO] ConstrainPressure: 0.004 [ms]
[INFO] MatrixAssemblyPII: 70.752 [ms]
GAMG:  Solving for p, Initial residual = 0.901822, Final residual = 7.99583e-05, No Iterations 30
[INFO] SolveP: 5220.85 [ms]
time step continuity errors : sum local = 1.14063e-08, global = 4.85037e-22, cumulative = 1.8011e-20
[INFO] ContinuityError: 28.914 [ms]
[INFO] CorrectBoundary: 0.698 [ms]
[INFO] PISOStep: 5657.33 [ms]
[INFO] MatrixAssemblyPI: 233.53 [ms]
[INFO] AdjustPhi: 15.056 [ms]
[INFO] ConstrainPressure: 0.004 [ms]
[INFO] MatrixAssemblyPII: 70.994 [ms]
GAMG:  Solving for p, Initial residual = 0.82714, Final residual = 6.79756e-05, No Iterations 40
[INFO] SolveP: 6926.94 [ms]
time step continuity errors : sum local = 9.72698e-09, global = -2.55812e-22, cumulative = 1.77551e-20
[INFO] ContinuityError: 29.025 [ms]
[INFO] CorrectBoundary: 0.773 [ms]
[INFO] PISOStep: 7356.84 [ms]
[INFO] TimeStep: 15023.2 [ms]
ExecutionTime = 307.25 s  ClockTime = 309 s

End

Finalising parallel run
