/*---------------------------------------------------------------------------*\
| =========                 |                                                 |
| \\      /  F ield         | OpenFOAM: The Open Source CFD Toolbox           |
|  \\    /   O peration     | Version:  2306                                  |
|   \\  /    A nd           | Website:  www.openfoam.com                      |
|    \\/     M anipulation  |                                                 |
\*---------------------------------------------------------------------------*/
Build  : a6e826bd55-20230630 OPENFOAM=2306 version=v2306
Arch   : "LSB;label=32;scalar=64"
Exec   : icoFoam -parallel -case /tmp/lidDrivenCavity3D/workspace/fc7540d66282c6a83bc8ebe0418f3ccb/case
Date   : Dec 05 2023
Time   : 17:18:27
Host   : nla-gpu2.ianm.kit.edu
PID    : 3925827
I/O    : uncollated
Case   : /tmp/lidDrivenCavity3D/workspace/fc7540d66282c6a83bc8ebe0418f3ccb/case
nProcs : 8
Hosts  :
(
    (nla-gpu2.ianm.kit.edu 8)
)
Pstream initialized with:
    floatTransfer      : false
    nProcsSimpleSum    : 0
    nonBlockingExchange: 0 (tuning: 0)
    exchange algorithm : -1
    commsType          : nonBlocking
    polling iterations : 0
trapFpe: Floating point exception trapping enabled (FOAM_SIGFPE).
fileModificationChecking : Monitoring run-time modified files using timeStampMaster (fileModificationSkew 5, maxFileModificationPolls 20)
allowSystemOperations : Allowing user-supplied system call operations

// * * * * * * * * * * * * * * * * * * * * * * * * * * * * * * * * * * * * * //
Create time

--> FOAM Warning : 
    From void* Foam::dlLibraryTable::openLibrary(const Foam::fileName&, bool)
    in file db/dynamicLibrary/dlLibraryTable/dlLibraryTable.C at line 188
    Could not load "libpetscFoam.so"
libpetscFoam.so: cannot open shared object file: No such file or directory
Create mesh for time = 0


PISO: Operating solver in PISO mode

Reading transportProperties

Reading field p

Reading field U

Reading/calculating face flux field phi


Starting time loop

Time = 0.000166

Courant Number mean: 8.14055e-18 max: 3.11001e-14
momentum setup 347.949 [ms]
DILUPBiCGStab:  Solving for Ux, Initial residual = 1, Final residual = 0.0159896, No Iterations 5
DILUPBiCGStab:  Solving for Uy:  solution singularity
DILUPBiCGStab:  Solving for Uz:  solution singularity
piso setup 376.092 [ms]
 correctNonOrthogonal 
 setRef 
 startSolve 
nonePCG:  Solving for p, Initial residual = 1, Final residual = 9.82344e-05, No Iterations 2430
piso step 110968 [ms]
 contErrors 
time step continuity errors : sum local = 3.97604e-09, global = 2.15512e-21, cumulative = 2.15512e-21
piso setup 360.125 [ms]
 correctNonOrthogonal 
 setRef 
 startSolve 
nonePCG:  Solving for p, Initial residual = 0.809676, Final residual = 9.80752e-05, No Iterations 2416
piso step 109381 [ms]
 contErrors 
time step continuity errors : sum local = 4.84397e-09, global = 4.19581e-22, cumulative = 2.5747e-21
ExecutionTime = 224.22 s  ClockTime = 225 s

Time = 0.000332

Courant Number mean: 0.0128497 max: 0.426563
momentum setup 262.245 [ms]
DILUPBiCGStab:  Solving for Ux, Initial residual = 0.116942, Final residual = 0.00923014, No Iterations 5
DILUPBiCGStab:  Solving for Uy, Initial residual = 0.459876, Final residual = 0.0300233, No Iterations 5
DILUPBiCGStab:  Solving for Uz, Initial residual = 0.995323, Final residual = 0.0718333, No Iterations 5
piso setup 363.958 [ms]
 correctNonOrthogonal 
 setRef 
 startSolve 
nonePCG:  Solving for p, Initial residual = 0.878211, Final residual = 9.87436e-05, No Iterations 2380
piso step 108320 [ms]
 contErrors 
time step continuity errors : sum local = 9.38075e-09, global = -6.73039e-22, cumulative = 1.90166e-21
piso setup 359.354 [ms]
 correctNonOrthogonal 
 setRef 
 startSolve 
nonePCG:  Solving for p, Initial residual = 0.826379, Final residual = 9.90106e-05, No Iterations 2376
piso step 107487 [ms]
 contErrors 
time step continuity errors : sum local = 9.57983e-09, global = 7.88115e-22, cumulative = 2.68978e-21
ExecutionTime = 443.2 s  ClockTime = 446 s

Time = 0.000498

Courant Number mean: 0.0198261 max: 0.491805
momentum setup 262.49 [ms]
DILUPBiCGStab:  Solving for Ux, Initial residual = 0.0544583, Final residual = 0.00348872, No Iterations 5
DILUPBiCGStab:  Solving for Uy, Initial residual = 0.226377, Final residual = 0.0156762, No Iterations 5
DILUPBiCGStab:  Solving for Uz, Initial residual = 0.85496, Final residual = 0.0552657, No Iterations 5
piso setup 364.53 [ms]
 correctNonOrthogonal 
 setRef 
 startSolve 
nonePCG:  Solving for p, Initial residual = 0.913759, Final residual = 9.85169e-05, No Iterations 1154
piso step 52372.2 [ms]
 contErrors 
time step continuity errors : sum local = 1.07584e-08, global = 5.00365e-22, cumulative = 3.19014e-21
piso setup 359.224 [ms]
 correctNonOrthogonal 
 setRef 
 startSolve 
nonePCG:  Solving for p, Initial residual = 0.882699, Final residual = 9.95988e-05, No Iterations 1150
piso step 52390.4 [ms]
 contErrors 
time step continuity errors : sum local = 1.03944e-08, global = 1.51133e-22, cumulative = 3.34128e-21
ExecutionTime = 551.69 s  ClockTime = 555 s

Time = 0.000664

Courant Number mean: 0.0239197 max: 0.47201
momentum setup 262.9 [ms]
DILUPBiCGStab:  Solving for Ux, Initial residual = 0.0384983, Final residual = 0.00279685, No Iterations 5
DILUPBiCGStab:  Solving for Uy, Initial residual = 0.174095, Final residual = 0.0125984, No Iterations 5
DILUPBiCGStab:  Solving for Uz, Initial residual = 0.730708, Final residual = 0.0388502, No Iterations 5
piso setup 363.647 [ms]
 correctNonOrthogonal 
 setRef 
 startSolve 
nonePCG:  Solving for p, Initial residual = 0.890301, Final residual = 9.95338e-05, No Iterations 1295
piso step 58760.8 [ms]
 contErrors 
time step continuity errors : sum local = 1.19009e-08, global = 2.94603e-22, cumulative = 3.63588e-21
piso setup 361.376 [ms]
 correctNonOrthogonal 
 setRef 
 startSolve 
nonePCG:  Solving for p, Initial residual = 0.83026, Final residual = 9.97055e-05, No Iterations 1155
piso step 52619.5 [ms]
 contErrors 
time step continuity errors : sum local = 1.15361e-08, global = 1.8404e-21, cumulative = 5.47628e-21
ExecutionTime = 666.75 s  ClockTime = 670 s

Time = 0.00083

Courant Number mean: 0.0274473 max: 0.504973
momentum setup 261.506 [ms]
DILUPBiCGStab:  Solving for Ux, Initial residual = 0.0323997, Final residual = 0.00238113, No Iterations 5
DILUPBiCGStab:  Solving for Uy, Initial residual = 0.129649, Final residual = 0.0105525, No Iterations 5
DILUPBiCGStab:  Solving for Uz, Initial residual = 0.676359, Final residual = 0.0332292, No Iterations 5
piso setup 364.429 [ms]
 correctNonOrthogonal 
 setRef 
 startSolve 
nonePCG:  Solving for p, Initial residual = 0.910495, Final residual = 9.99427e-05, No Iterations 2375
piso step 107914 [ms]
 contErrors 
time step continuity errors : sum local = 1.10228e-08, global = 3.38387e-22, cumulative = 5.81467e-21
piso setup 360.277 [ms]
 correctNonOrthogonal 
 setRef 
 startSolve 
nonePCG:  Solving for p, Initial residual = 0.872711, Final residual = 9.95818e-05, No Iterations 2373
piso step 108648 [ms]
 contErrors 
time step continuity errors : sum local = 1.08419e-08, global = 1.71443e-21, cumulative = 7.5291e-21
ExecutionTime = 886.4 s  ClockTime = 891 s

Time = 0.000996

Courant Number mean: 0.0301893 max: 0.478379
momentum setup 262.526 [ms]
DILUPBiCGStab:  Solving for Ux, Initial residual = 0.0270645, Final residual = 0.0021372, No Iterations 5
DILUPBiCGStab:  Solving for Uy, Initial residual = 0.111902, Final residual = 0.00833951, No Iterations 5
DILUPBiCGStab:  Solving for Uz, Initial residual = 0.579751, Final residual = 0.0255716, No Iterations 5
piso setup 364.647 [ms]
 correctNonOrthogonal 
 setRef 
 startSolve 
nonePCG:  Solving for p, Initial residual = 0.887872, Final residual = 9.99368e-05, No Iterations 2372
piso step 107827 [ms]
 contErrors 
time step continuity errors : sum local = 1.12463e-08, global = -1.09995e-22, cumulative = 7.41911e-21
piso setup 361.908 [ms]
 correctNonOrthogonal 
 setRef 
 startSolve 
nonePCG:  Solving for p, Initial residual = 0.824763, Final residual = 9.98375e-05, No Iterations 2369
piso step 108828 [ms]
 contErrors 
time step continuity errors : sum local = 1.14063e-08, global = 9.87627e-22, cumulative = 8.40674e-21
ExecutionTime = 1106.14 s  ClockTime = 1112 s

Time = 0.001162

Courant Number mean: 0.0326683 max: 0.511865
momentum setup 261.772 [ms]
DILUPBiCGStab:  Solving for Ux, Initial residual = 0.0245518, Final residual = 0.00196824, No Iterations 5
DILUPBiCGStab:  Solving for Uy, Initial residual = 0.0982971, Final residual = 0.00769247, No Iterations 5
DILUPBiCGStab:  Solving for Uz, Initial residual = 0.553273, Final residual = 0.0228137, No Iterations 5
piso setup 364.211 [ms]
 correctNonOrthogonal 
 setRef 
 startSolve 
nonePCG:  Solving for p, Initial residual = 0.905824, Final residual = 9.93408e-05, No Iterations 2290
piso step 104214 [ms]
 contErrors 
time step continuity errors : sum local = 1.09008e-08, global = 6.03881e-22, cumulative = 9.01062e-21
piso setup 361.534 [ms]
 correctNonOrthogonal 
 setRef 
 startSolve 
nonePCG:  Solving for p, Initial residual = 0.860988, Final residual = 9.88216e-05, No Iterations 2291
piso step 105079 [ms]
 contErrors 
time step continuity errors : sum local = 1.07253e-08, global = 1.11902e-21, cumulative = 1.01296e-20
ExecutionTime = 1318.56 s  ClockTime = 1325 s

Time = 0.001328

Courant Number mean: 0.034753 max: 0.481308
momentum setup 264.406 [ms]
DILUPBiCGStab:  Solving for Ux, Initial residual = 0.0221229, Final residual = 0.00183354, No Iterations 5
DILUPBiCGStab:  Solving for Uy, Initial residual = 0.0870764, Final residual = 0.00645291, No Iterations 5
DILUPBiCGStab:  Solving for Uz, Initial residual = 0.510117, Final residual = 0.0204683, No Iterations 5
piso setup 364.464 [ms]
 correctNonOrthogonal 
 setRef 
 startSolve 
nonePCG:  Solving for p, Initial residual = 0.883753, Final residual = 9.95001e-05, No Iterations 2310
piso step 104968 [ms]
 contErrors 
time step continuity errors : sum local = 1.10888e-08, global = 1.34167e-22, cumulative = 1.02638e-20
piso setup 358.589 [ms]
 correctNonOrthogonal 
 setRef 
 startSolve 
nonePCG:  Solving for p, Initial residual = 0.817909, Final residual = 9.8898e-05, No Iterations 2301
piso step 105073 [ms]
 contErrors 
time step continuity errors : sum local = 1.11738e-08, global = 3.60714e-22, cumulative = 1.06245e-20
ExecutionTime = 1531.75 s  ClockTime = 1540 s

Time = 0.001494

Courant Number mean: 0.0367021 max: 0.518002
momentum setup 260.974 [ms]
DILUPBiCGStab:  Solving for Ux, Initial residual = 0.0205477, Final residual = 0.00171318, No Iterations 5
DILUPBiCGStab:  Solving for Uy, Initial residual = 0.0819388, Final residual = 0.00611195, No Iterations 5
DILUPBiCGStab:  Solving for Uz, Initial residual = 0.506094, Final residual = 0.0192312, No Iterations 5
piso setup 365.517 [ms]
 correctNonOrthogonal 
 setRef 
 startSolve 
nonePCG:  Solving for p, Initial residual = 0.901649, Final residual = 9.9114e-05, No Iterations 2091
piso step 94889.5 [ms]
 contErrors 
time step continuity errors : sum local = 1.08178e-08, global = 5.81757e-22, cumulative = 1.12063e-20
piso setup 359.647 [ms]
 correctNonOrthogonal 
 setRef 
 startSolve 
nonePCG:  Solving for p, Initial residual = 0.85176, Final residual = 9.76707e-05, No Iterations 2081
piso step 94828.3 [ms]
 contErrors 
time step continuity errors : sum local = 1.05558e-08, global = 7.67711e-22, cumulative = 1.1974e-20
ExecutionTime = 1724.7 s  ClockTime = 1734 s

Time = 0.00166

Courant Number mean: 0.0383957 max: 0.483672
momentum setup 261.446 [ms]
DILUPBiCGStab:  Solving for Ux, Initial residual = 0.0193393, Final residual = 0.00162672, No Iterations 5
DILUPBiCGStab:  Solving for Uy, Initial residual = 0.0736171, Final residual = 0.00529595, No Iterations 5
DILUPBiCGStab:  Solving for Uz, Initial residual = 0.485034, Final residual = 0.0184753, No Iterations 5
piso setup 364.76 [ms]
 correctNonOrthogonal 
 setRef 
 startSolve 
nonePCG:  Solving for p, Initial residual = 0.882647, Final residual = 9.94273e-05, No Iterations 2298
piso step 104749 [ms]
 contErrors 
time step continuity errors : sum local = 1.12002e-08, global = 1.63823e-21, cumulative = 1.36122e-20
piso setup 360.878 [ms]
 correctNonOrthogonal 
 setRef 
 startSolve 
nonePCG:  Solving for p, Initial residual = 0.813519, Final residual = 9.74232e-05, No Iterations 2296
piso step 104822 [ms]
 contErrors 
time step continuity errors : sum local = 1.11122e-08, global = 7.5259e-22, cumulative = 1.43648e-20
ExecutionTime = 1937.43 s  ClockTime = 1948 s

Time = 0.001826

Courant Number mean: 0.0400178 max: 0.524624
momentum setup 264.515 [ms]
DILUPBiCGStab:  Solving for Ux, Initial residual = 0.0181679, Final residual = 0.00152144, No Iterations 5
DILUPBiCGStab:  Solving for Uy, Initial residual = 0.0719962, Final residual = 0.0051159, No Iterations 5
DILUPBiCGStab:  Solving for Uz, Initial residual = 0.486109, Final residual = 0.0172525, No Iterations 5
piso setup 364.897 [ms]
 correctNonOrthogonal 
 setRef 
 startSolve 
nonePCG:  Solving for p, Initial residual = 0.901648, Final residual = 9.8301e-05, No Iterations 2295
piso step 104371 [ms]
 contErrors 
time step continuity errors : sum local = 1.1012e-08, global = 2.56636e-21, cumulative = 1.69312e-20
piso setup 360.209 [ms]
 correctNonOrthogonal 
 setRef 
 startSolve 
nonePCG:  Solving for p, Initial residual = 0.847158, Final residual = 9.94775e-05, No Iterations 2291
piso step 104894 [ms]
 contErrors 
time step continuity errors : sum local = 1.10502e-08, global = 1.00591e-21, cumulative = 1.79371e-20
ExecutionTime = 2149.86 s  ClockTime = 2161 s

Time = 0.001992

Courant Number mean: 0.0414491 max: 0.486754
momentum setup 261.412 [ms]
DILUPBiCGStab:  Solving for Ux, Initial residual = 0.0175751, Final residual = 0.0014694, No Iterations 5
DILUPBiCGStab:  Solving for Uy, Initial residual = 0.065524, Final residual = 0.00449848, No Iterations 5
DILUPBiCGStab:  Solving for Uz, Initial residual = 0.471072, Final residual = 0.0165807, No Iterations 5
piso setup 367.393 [ms]
 correctNonOrthogonal 
 setRef 
 startSolve 
nonePCG:  Solving for p, Initial residual = 0.884164, Final residual = 9.89604e-05, No Iterations 2204
piso step 99988.9 [ms]
 contErrors 
time step continuity errors : sum local = 1.1523e-08, global = 7.6061e-22, cumulative = 1.86977e-20
piso setup 360.223 [ms]
 correctNonOrthogonal 
 setRef 
 startSolve 
nonePCG:  Solving for p, Initial residual = 0.813621, Final residual = 9.97689e-05, No Iterations 2216
piso step 100969 [ms]
 contErrors 
time step continuity errors : sum local = 1.17468e-08, global = 5.98914e-22, cumulative = 1.92966e-20
ExecutionTime = 2354.02 s  ClockTime = 2366 s

Time = 0.002158

Courant Number mean: 0.0428475 max: 0.532249
momentum setup 261.497 [ms]
DILUPBiCGStab:  Solving for Ux, Initial residual = 0.0166424, Final residual = 0.00136959, No Iterations 5
DILUPBiCGStab:  Solving for Uy, Initial residual = 0.0655704, Final residual = 0.00442788, No Iterations 5
DILUPBiCGStab:  Solving for Uz, Initial residual = 0.479109, Final residual = 0.0163706, No Iterations 5
piso setup 364.432 [ms]
 correctNonOrthogonal 
 setRef 
 startSolve 
nonePCG:  Solving for p, Initial residual = 0.902378, Final residual = 9.71609e-05, No Iterations 2293
piso step 104104 [ms]
 contErrors 
time step continuity errors : sum local = 1.13129e-08, global = 2.29195e-22, cumulative = 1.95258e-20
piso setup 361.002 [ms]
 correctNonOrthogonal 
 setRef 
 startSolve 
nonePCG:  Solving for p, Initial residual = 0.84428, Final residual = 9.77487e-05, No Iterations 2291
piso step 104457 [ms]
 contErrors 
time step continuity errors : sum local = 1.13018e-08, global = 1.21783e-21, cumulative = 2.07436e-20
ExecutionTime = 2565.74 s  ClockTime = 2579 s

Time = 0.002324

Courant Number mean: 0.0440892 max: 0.48979
momentum setup 262.29 [ms]
DILUPBiCGStab:  Solving for Ux, Initial residual = 0.016407, Final residual = 0.00134431, No Iterations 5
DILUPBiCGStab:  Solving for Uy, Initial residual = 0.0604387, Final residual = 0.00392988, No Iterations 5
DILUPBiCGStab:  Solving for Uz, Initial residual = 0.469343, Final residual = 0.0157707, No Iterations 5
piso setup 363.335 [ms]
 correctNonOrthogonal 
 setRef 
 startSolve 
nonePCG:  Solving for p, Initial residual = 0.886501, Final residual = 9.9739e-05, No Iterations 2294
piso step 104599 [ms]
 contErrors 
time step continuity errors : sum local = 1.20893e-08, global = -9.18746e-22, cumulative = 1.98249e-20
piso setup 361.15 [ms]
 correctNonOrthogonal 
 setRef 
 startSolve 
nonePCG:  Solving for p, Initial residual = 0.814789, Final residual = 9.7198e-05, No Iterations 2292
piso step 104510 [ms]
 contErrors 
time step continuity errors : sum local = 1.18964e-08, global = -9.73765e-22, cumulative = 1.88511e-20
ExecutionTime = 2777.99 s  ClockTime = 2792 s

Time = 0.00249

Courant Number mean: 0.0453248 max: 0.540991
momentum setup 261.328 [ms]
DILUPBiCGStab:  Solving for Ux, Initial residual = 0.0156592, Final residual = 0.00124705, No Iterations 5
DILUPBiCGStab:  Solving for Uy, Initial residual = 0.0613192, Final residual = 0.0039275, No Iterations 5
DILUPBiCGStab:  Solving for Uz, Initial residual = 0.480123, Final residual = 0.015756, No Iterations 5
piso setup 363.366 [ms]
 correctNonOrthogonal 
 setRef 
 startSolve 
nonePCG:  Solving for p, Initial residual = 0.903213, Final residual = 9.60224e-05, No Iterations 2292
piso step 103867 [ms]
 contErrors 
time step continuity errors : sum local = 1.16836e-08, global = 7.75045e-22, cumulative = 1.96262e-20
piso setup 364.03 [ms]
 correctNonOrthogonal 
 setRef 
 startSolve 
nonePCG:  Solving for p, Initial residual = 0.842128, Final residual = 9.88017e-05, No Iterations 2289
piso step 104982 [ms]
 contErrors 
time step continuity errors : sum local = 1.19539e-08, global = 5.00403e-22, cumulative = 2.01266e-20
ExecutionTime = 2989.97 s  ClockTime = 3006 s

Time = 0.002656

Courant Number mean: 0.0464224 max: 0.492863
momentum setup 260.904 [ms]
DILUPBiCGStab:  Solving for Ux, Initial residual = 0.0156463, Final residual = 0.00124142, No Iterations 5
DILUPBiCGStab:  Solving for Uy, Initial residual = 0.0572895, Final residual = 0.00351466, No Iterations 5
DILUPBiCGStab:  Solving for Uz, Initial residual = 0.474109, Final residual = 0.0154066, No Iterations 5
piso setup 362.598 [ms]
 correctNonOrthogonal 
 setRef 
 startSolve 
nonePCG:  Solving for p, Initial residual = 0.889509, Final residual = 9.76852e-05, No Iterations 2295
piso step 104065 [ms]
 contErrors 
time step continuity errors : sum local = 1.23644e-08, global = 2.3156e-21, cumulative = 2.24422e-20
piso setup 358.862 [ms]
 correctNonOrthogonal 
 setRef 
 startSolve 
nonePCG:  Solving for p, Initial residual = 0.816841, Final residual = 9.93577e-05, No Iterations 2291
piso step 104877 [ms]
 contErrors 
time step continuity errors : sum local = 1.26827e-08, global = 1.3471e-21, cumulative = 2.37893e-20
ExecutionTime = 3202.03 s  ClockTime = 3219 s

Time = 0.002822

Courant Number mean: 0.0475332 max: 0.551146
momentum setup 264.136 [ms]
DILUPBiCGStab:  Solving for Ux, Initial residual = 0.0150695, Final residual = 0.00114941, No Iterations 5
DILUPBiCGStab:  Solving for Uy, Initial residual = 0.0586249, Final residual = 0.00355394, No Iterations 5
DILUPBiCGStab:  Solving for Uz, Initial residual = 0.485632, Final residual = 0.0154586, No Iterations 5
piso setup 363.412 [ms]
 correctNonOrthogonal 
 setRef 
 startSolve 
nonePCG:  Solving for p, Initial residual = 0.904764, Final residual = 9.98774e-05, No Iterations 2290
piso step 104144 [ms]
 contErrors 
time step continuity errors : sum local = 1.27467e-08, global = 1.18611e-21, cumulative = 2.49754e-20
piso setup 361.36 [ms]
 correctNonOrthogonal 
 setRef 
 startSolve 
nonePCG:  Solving for p, Initial residual = 0.840598, Final residual = 9.75943e-05, No Iterations 2289
piso step 104327 [ms]
 contErrors 
time step continuity errors : sum local = 1.24003e-08, global = 8.73227e-22, cumulative = 2.58486e-20
ExecutionTime = 3413.63 s  ClockTime = 3432 s

Time = 0.002988

Courant Number mean: 0.0485163 max: 0.496214
momentum setup 265.775 [ms]
DILUPBiCGStab:  Solving for Ux, Initial residual = 0.0151953, Final residual = 0.00115571, No Iterations 5
DILUPBiCGStab:  Solving for Uy, Initial residual = 0.0555403, Final residual = 0.00320621, No Iterations 5
DILUPBiCGStab:  Solving for Uz, Initial residual = 0.481983, Final residual = 0.0152246, No Iterations 5
piso setup 362.22 [ms]
 correctNonOrthogonal 
 setRef 
 startSolve 
nonePCG:  Solving for p, Initial residual = 0.894236, Final residual = 9.90605e-05, No Iterations 2295
piso step 104002 [ms]
 contErrors 
time step continuity errors : sum local = 1.31482e-08, global = 8.10574e-22, cumulative = 2.66592e-20
piso setup 359.622 [ms]
 correctNonOrthogonal 
 setRef 
 startSolve 
nonePCG:  Solving for p, Initial residual = 0.82013, Final residual = 9.74859e-05, No Iterations 2292
piso step 104593 [ms]
 contErrors 
time step continuity errors : sum local = 1.30347e-08, global = 4.36849e-22, cumulative = 2.7096e-20
ExecutionTime = 3625.35 s  ClockTime = 3644 s

Time = 0.003154

Courant Number mean: 0.0495292 max: 0.562887
momentum setup 264.743 [ms]
DILUPBiCGStab:  Solving for Ux, Initial residual = 0.0147924, Final residual = 0.00107265, No Iterations 5
DILUPBiCGStab:  Solving for Uy, Initial residual = 0.0571508, Final residual = 0.00327106, No Iterations 5
DILUPBiCGStab:  Solving for Uz, Initial residual = 0.493722, Final residual = 0.0153135, No Iterations 5
piso setup 362.709 [ms]
 correctNonOrthogonal 
 setRef 
 startSolve 
nonePCG:  Solving for p, Initial residual = 0.907502, Final residual = 9.7653e-05, No Iterations 2295
piso step 104270 [ms]
 contErrors 
time step continuity errors : sum local = 1.31402e-08, global = 1.53541e-22, cumulative = 2.72496e-20
piso setup 359.506 [ms]
 correctNonOrthogonal 
 setRef 
 startSolve 
nonePCG:  Solving for p, Initial residual = 0.840512, Final residual = 9.82936e-05, No Iterations 2292
piso step 104936 [ms]
 contErrors 
time step continuity errors : sum local = 1.31824e-08, global = 1.14795e-21, cumulative = 2.83975e-20
ExecutionTime = 3837.69 s  ClockTime = 3858 s

Time = 0.00332

Courant Number mean: 0.0504191 max: 0.499826
momentum setup 263.049 [ms]
DILUPBiCGStab:  Solving for Ux, Initial residual = 0.0150213, Final residual = 0.00108489, No Iterations 5
DILUPBiCGStab:  Solving for Uy, Initial residual = 0.0548406, Final residual = 0.00297807, No Iterations 5
DILUPBiCGStab:  Solving for Uz, Initial residual = 0.491914, Final residual = 0.0151562, No Iterations 5
piso setup 362.725 [ms]
 correctNonOrthogonal 
 setRef 
 startSolve 
nonePCG:  Solving for p, Initial residual = 0.899815, Final residual = 9.76217e-05, No Iterations 2296
piso step 103794 [ms]
 contErrors 
time step continuity errors : sum local = 1.36516e-08, global = -5.50153e-22, cumulative = 2.78474e-20
piso setup 358.379 [ms]
 correctNonOrthogonal 
 setRef 
 startSolve 
nonePCG:  Solving for p, Initial residual = 0.824778, Final residual = 9.98899e-05, No Iterations 2292
piso step 104684 [ms]
 contErrors 
time step continuity errors : sum local = 1.4059e-08, global = 1.20118e-21, cumulative = 2.90485e-20
ExecutionTime = 4049.3 s  ClockTime = 4071 s

End

Finalising parallel run
