/*---------------------------------------------------------------------------*\
| =========                 |                                                 |
| \\      /  F ield         | OpenFOAM: The Open Source CFD Toolbox           |
|  \\    /   O peration     | Version:  2306                                  |
|   \\  /    A nd           | Website:  www.openfoam.com                      |
|    \\/     M anipulation  |                                                 |
\*---------------------------------------------------------------------------*/
Build  : c423ebec-20231012 OPENFOAM=2306 version=v2306
Arch   : "LSB;label=32;scalar=64"
Exec   : decomposePar -force
Date   : Dec 29 2023
Time   : 21:25:53
Host   : hkn0832.localdomain
PID    : 3174221
--> FOAM Warning : 
    From Foam::fileName Foam::cwd_L()
    in file POSIX.C at line 552
    PWD is not the cwd() - reverting to physical description
I/O    : uncollated
--> FOAM Warning : 
    From Foam::fileName Foam::cwd_L()
    in file POSIX.C at line 552
    PWD is not the cwd() - reverting to physical description
Case   : /hkfs/work/workspace/scratch/eq4036-l3d/workspace/3a37e02d505f98925b3dad85ac4e082b/case
nProcs : 1
trapFpe: Floating point exception trapping enabled (FOAM_SIGFPE).
fileModificationChecking : Monitoring run-time modified files using timeStampMaster (fileModificationSkew 5, maxFileModificationPolls 20)
allowSystemOperations : Allowing user-supplied system call operations

// * * * * * * * * * * * * * * * * * * * * * * * * * * * * * * * * * * * * * //
Create time

--> FOAM Warning : 
    From void* Foam::dlLibraryTable::openLibrary(const Foam::fileName&, bool)
    in file db/dynamicLibrary/dlLibraryTable/dlLibraryTable.C at line 188
    Could not load "libpetscFoam.so"
libpetscFoam.so: cannot open shared object file: No such file or directory


Decomposing mesh

Create mesh

Calculating distribution of cells
Decomposition method simple [76] (region region0)

Finished decomposition in 5.2 s

Calculating original mesh data

Distributing cells to processors

Distributing faces to processors

Distributing points to processors

Constructing processor meshes

Processor 0
    Number of cells = 109492
    Number of points = 131543
    Number of faces shared with processor 1 = 20198
    Number of faces shared with processor 38 = 1045
    Number of faces shared with processor 39 = 1
    Number of processor patches = 3
    Number of processor faces = 21244
    Number of boundary faces = 22244

Processor 1
    Number of cells = 106012
    Number of points = 128073
    Number of faces shared with processor 0 = 20198
    Number of faces shared with processor 2 = 20189
    Number of faces shared with processor 39 = 1059
    Number of faces shared with processor 40 = 1
    Number of processor patches = 4
    Number of processor faces = 41447
    Number of boundary faces = 2061

Processor 2
    Number of cells = 104031
    Number of points = 126027
    Number of faces shared with processor 1 = 20189
    Number of faces shared with processor 3 = 20060
    Number of faces shared with processor 40 = 1063
    Number of faces shared with processor 41 = 1
    Number of processor patches = 4
    Number of processor faces = 41313
    Number of boundary faces = 2065

Processor 3
    Number of cells = 102573
    Number of points = 124570
    Number of faces shared with processor 2 = 20060
    Number of faces shared with processor 4 = 20129
    Number of faces shared with processor 41 = 1030
    Number of processor patches = 3
    Number of processor faces = 41219
    Number of boundary faces = 2159

Processor 4
    Number of cells = 108757
    Number of points = 130822
    Number of faces shared with processor 3 = 20129
    Number of faces shared with processor 5 = 20198
    Number of faces shared with processor 42 = 1059
    Number of faces shared with processor 43 = 1
    Number of processor patches = 4
    Number of processor faces = 41387
    Number of boundary faces = 2129

Processor 5
    Number of cells = 105647
    Number of points = 127694
    Number of faces shared with processor 4 = 20198
    Number of faces shared with processor 6 = 20167
    Number of faces shared with processor 43 = 1056
    Number of faces shared with processor 44 = 1
    Number of processor patches = 4
    Number of processor faces = 41422
    Number of boundary faces = 2058

Processor 6
    Number of cells = 103410
    Number of points = 125384
    Number of faces shared with processor 5 = 20167
    Number of faces shared with processor 7 = 20024
    Number of faces shared with processor 44 = 1070
    Number of faces shared with processor 45 = 1
    Number of processor patches = 4
    Number of processor faces = 41262
    Number of boundary faces = 2072

Processor 7
    Number of cells = 104294
    Number of points = 126309
    Number of faces shared with processor 6 = 20024
    Number of faces shared with processor 8 = 20183
    Number of faces shared with processor 45 = 1012
    Number of processor patches = 3
    Number of processor faces = 41219
    Number of boundary faces = 2195

Processor 8
    Number of cells = 107934
    Number of points = 130012
    Number of faces shared with processor 7 = 20183
    Number of faces shared with processor 9 = 20199
    Number of faces shared with processor 46 = 1071
    Number of faces shared with processor 47 = 1
    Number of processor patches = 4
    Number of processor faces = 41454
    Number of boundary faces = 2088

Processor 9
    Number of cells = 105270
    Number of points = 127305
    Number of faces shared with processor 8 = 20199
    Number of faces shared with processor 10 = 20143
    Number of faces shared with processor 47 = 1056
    Number of faces shared with processor 48 = 1
    Number of processor patches = 4
    Number of processor faces = 41399
    Number of boundary faces = 2057

Processor 10
    Number of cells = 102580
    Number of points = 124530
    Number of faces shared with processor 9 = 20143
    Number of faces shared with processor 11 = 20000
    Number of faces shared with processor 48 = 1071
    Number of processor patches = 3
    Number of processor faces = 41214
    Number of boundary faces = 2072

Processor 11
    Number of cells = 106246
    Number of points = 128264
    Number of faces shared with processor 10 = 20000
    Number of faces shared with processor 12 = 20198
    Number of faces shared with processor 49 = 1012
    Number of faces shared with processor 50 = 1
    Number of processor patches = 4
    Number of processor faces = 41211
    Number of boundary faces = 2211

Processor 12
    Number of cells = 107104
    Number of points = 129181
    Number of faces shared with processor 11 = 20198
    Number of faces shared with processor 13 = 20199
    Number of faces shared with processor 50 = 1070
    Number of faces shared with processor 51 = 1
    Number of processor patches = 4
    Number of processor faces = 41468
    Number of boundary faces = 2072

Processor 13
    Number of cells = 104880
    Number of points = 126903
    Number of faces shared with processor 12 = 20199
    Number of faces shared with processor 14 = 20118
    Number of faces shared with processor 51 = 1056
    Number of faces shared with processor 52 = 1
    Number of processor patches = 4
    Number of processor faces = 41374
    Number of boundary faces = 2058

Processor 14
    Number of cells = 101770
    Number of points = 123695
    Number of faces shared with processor 13 = 20118
    Number of faces shared with processor 15 = 20000
    Number of faces shared with processor 52 = 1059
    Number of processor patches = 3
    Number of processor faces = 41177
    Number of boundary faces = 2059

Processor 15
    Number of cells = 107963
    Number of points = 129999
    Number of faces shared with processor 14 = 20000
    Number of faces shared with processor 16 = 20198
    Number of faces shared with processor 53 = 1030
    Number of faces shared with processor 54 = 1
    Number of processor patches = 4
    Number of processor faces = 41229
    Number of boundary faces = 2229

Processor 16
    Number of cells = 106487
    Number of points = 128557
    Number of faces shared with processor 15 = 20198
    Number of faces shared with processor 17 = 20199
    Number of faces shared with processor 54 = 1063
    Number of faces shared with processor 55 = 1
    Number of processor patches = 4
    Number of processor faces = 41461
    Number of boundary faces = 2065

Processor 17
    Number of cells = 104515
    Number of points = 126527
    Number of faces shared with processor 16 = 20199
    Number of faces shared with processor 18 = 20090
    Number of faces shared with processor 55 = 1059
    Number of faces shared with processor 56 = 1
    Number of processor patches = 4
    Number of processor faces = 41349
    Number of boundary faces = 2061

Processor 18
    Number of cells = 101041
    Number of points = 122945
    Number of faces shared with processor 17 = 20090
    Number of faces shared with processor 19 = 20006
    Number of faces shared with processor 56 = 1045
    Number of processor patches = 3
    Number of processor faces = 41141
    Number of boundary faces = 2051

Processor 19
    Number of cells = 109491
    Number of points = 131542
    Number of faces shared with processor 18 = 20006
    Number of faces shared with processor 20 = 20198
    Number of faces shared with processor 57 = 1045
    Number of faces shared with processor 58 = 1
    Number of processor patches = 4
    Number of processor faces = 41250
    Number of boundary faces = 2238

Processor 20
    Number of cells = 106011
    Number of points = 128072
    Number of faces shared with processor 19 = 20198
    Number of faces shared with processor 21 = 20189
    Number of faces shared with processor 58 = 1059
    Number of faces shared with processor 59 = 1
    Number of processor patches = 4
    Number of processor faces = 41447
    Number of boundary faces = 2061

Processor 21
    Number of cells = 104027
    Number of points = 126023
    Number of faces shared with processor 20 = 20189
    Number of faces shared with processor 22 = 20060
    Number of faces shared with processor 59 = 1063
    Number of faces shared with processor 60 = 1
    Number of processor patches = 4
    Number of processor faces = 41313
    Number of boundary faces = 2065

Processor 22
    Number of cells = 102575
    Number of points = 124572
    Number of faces shared with processor 21 = 20060
    Number of faces shared with processor 23 = 20129
    Number of faces shared with processor 60 = 1030
    Number of processor patches = 3
    Number of processor faces = 41219
    Number of boundary faces = 2159

Processor 23
    Number of cells = 108756
    Number of points = 130821
    Number of faces shared with processor 22 = 20129
    Number of faces shared with processor 24 = 20198
    Number of faces shared with processor 61 = 1059
    Number of faces shared with processor 62 = 1
    Number of processor patches = 4
    Number of processor faces = 41387
    Number of boundary faces = 2129

Processor 24
    Number of cells = 105646
    Number of points = 127693
    Number of faces shared with processor 23 = 20198
    Number of faces shared with processor 25 = 20167
    Number of faces shared with processor 62 = 1056
    Number of faces shared with processor 63 = 1
    Number of processor patches = 4
    Number of processor faces = 41422
    Number of boundary faces = 2058

Processor 25
    Number of cells = 103410
    Number of points = 125384
    Number of faces shared with processor 24 = 20167
    Number of faces shared with processor 26 = 20024
    Number of faces shared with processor 63 = 1070
    Number of faces shared with processor 64 = 1
    Number of processor patches = 4
    Number of processor faces = 41262
    Number of boundary faces = 2072

Processor 26
    Number of cells = 104292
    Number of points = 126307
    Number of faces shared with processor 25 = 20024
    Number of faces shared with processor 27 = 20183
    Number of faces shared with processor 64 = 1012
    Number of processor patches = 3
    Number of processor faces = 41219
    Number of boundary faces = 2195

Processor 27
    Number of cells = 107936
    Number of points = 130014
    Number of faces shared with processor 26 = 20183
    Number of faces shared with processor 28 = 20199
    Number of faces shared with processor 65 = 1071
    Number of faces shared with processor 66 = 1
    Number of processor patches = 4
    Number of processor faces = 41454
    Number of boundary faces = 2088

Processor 28
    Number of cells = 105266
    Number of points = 127301
    Number of faces shared with processor 27 = 20199
    Number of faces shared with processor 29 = 20143
    Number of faces shared with processor 66 = 1056
    Number of faces shared with processor 67 = 1
    Number of processor patches = 4
    Number of processor faces = 41399
    Number of boundary faces = 2057

Processor 29
    Number of cells = 102584
    Number of points = 124534
    Number of faces shared with processor 28 = 20143
    Number of faces shared with processor 30 = 20000
    Number of faces shared with processor 67 = 1071
    Number of processor patches = 3
    Number of processor faces = 41214
    Number of boundary faces = 2072

Processor 30
    Number of cells = 106240
    Number of points = 128258
    Number of faces shared with processor 29 = 20000
    Number of faces shared with processor 31 = 20198
    Number of faces shared with processor 68 = 1012
    Number of faces shared with processor 69 = 1
    Number of processor patches = 4
    Number of processor faces = 41211
    Number of boundary faces = 2211

Processor 31
    Number of cells = 107110
    Number of points = 129187
    Number of faces shared with processor 30 = 20198
    Number of faces shared with processor 32 = 20199
    Number of faces shared with processor 69 = 1070
    Number of faces shared with processor 70 = 1
    Number of processor patches = 4
    Number of processor faces = 41468
    Number of boundary faces = 2072

Processor 32
    Number of cells = 104880
    Number of points = 126903
    Number of faces shared with processor 31 = 20199
    Number of faces shared with processor 33 = 20118
    Number of faces shared with processor 70 = 1056
    Number of faces shared with processor 71 = 1
    Number of processor patches = 4
    Number of processor faces = 41374
    Number of boundary faces = 2058

Processor 33
    Number of cells = 101770
    Number of points = 123695
    Number of faces shared with processor 32 = 20118
    Number of faces shared with processor 34 = 20000
    Number of faces shared with processor 71 = 1059
    Number of processor patches = 3
    Number of processor faces = 41177
    Number of boundary faces = 2059

Processor 34
    Number of cells = 107957
    Number of points = 129993
    Number of faces shared with processor 33 = 20000
    Number of faces shared with processor 35 = 20198
    Number of faces shared with processor 72 = 1030
    Number of faces shared with processor 73 = 1
    Number of processor patches = 4
    Number of processor faces = 41229
    Number of boundary faces = 2229

Processor 35
    Number of cells = 106493
    Number of points = 128563
    Number of faces shared with processor 34 = 20198
    Number of faces shared with processor 36 = 20199
    Number of faces shared with processor 73 = 1063
    Number of faces shared with processor 74 = 1
    Number of processor patches = 4
    Number of processor faces = 41461
    Number of boundary faces = 2065

Processor 36
    Number of cells = 104515
    Number of points = 126527
    Number of faces shared with processor 35 = 20199
    Number of faces shared with processor 37 = 20090
    Number of faces shared with processor 74 = 1059
    Number of faces shared with processor 75 = 1
    Number of processor patches = 4
    Number of processor faces = 41349
    Number of boundary faces = 2061

Processor 37
    Number of cells = 101035
    Number of points = 122932
    Number of faces shared with processor 36 = 20090
    Number of faces shared with processor 75 = 1045
    Number of processor patches = 2
    Number of processor faces = 21135
    Number of boundary faces = 22045

Processor 38
    Number of cells = 101035
    Number of points = 122932
    Number of faces shared with processor 0 = 1045
    Number of faces shared with processor 39 = 20090
    Number of processor patches = 2
    Number of processor faces = 21135
    Number of boundary faces = 22045

Processor 39
    Number of cells = 104515
    Number of points = 126527
    Number of faces shared with processor 0 = 1
    Number of faces shared with processor 1 = 1059
    Number of faces shared with processor 38 = 20090
    Number of faces shared with processor 40 = 20199
    Number of processor patches = 4
    Number of processor faces = 41349
    Number of boundary faces = 2061

Processor 40
    Number of cells = 106496
    Number of points = 128566
    Number of faces shared with processor 1 = 1
    Number of faces shared with processor 2 = 1063
    Number of faces shared with processor 39 = 20199
    Number of faces shared with processor 41 = 20198
    Number of processor patches = 4
    Number of processor faces = 41461
    Number of boundary faces = 2065

Processor 41
    Number of cells = 107954
    Number of points = 129990
    Number of faces shared with processor 2 = 1
    Number of faces shared with processor 3 = 1030
    Number of faces shared with processor 40 = 20198
    Number of faces shared with processor 42 = 20000
    Number of processor patches = 4
    Number of processor faces = 41229
    Number of boundary faces = 2229

Processor 42
    Number of cells = 101770
    Number of points = 123695
    Number of faces shared with processor 4 = 1059
    Number of faces shared with processor 41 = 20000
    Number of faces shared with processor 43 = 20118
    Number of processor patches = 3
    Number of processor faces = 41177
    Number of boundary faces = 2059

Processor 43
    Number of cells = 104880
    Number of points = 126903
    Number of faces shared with processor 4 = 1
    Number of faces shared with processor 5 = 1056
    Number of faces shared with processor 42 = 20118
    Number of faces shared with processor 44 = 20199
    Number of processor patches = 4
    Number of processor faces = 41374
    Number of boundary faces = 2058

Processor 44
    Number of cells = 107117
    Number of points = 129194
    Number of faces shared with processor 5 = 1
    Number of faces shared with processor 6 = 1070
    Number of faces shared with processor 43 = 20199
    Number of faces shared with processor 45 = 20198
    Number of processor patches = 4
    Number of processor faces = 41468
    Number of boundary faces = 2072

Processor 45
    Number of cells = 106233
    Number of points = 128251
    Number of faces shared with processor 6 = 1
    Number of faces shared with processor 7 = 1012
    Number of faces shared with processor 44 = 20198
    Number of faces shared with processor 46 = 20000
    Number of processor patches = 4
    Number of processor faces = 41211
    Number of boundary faces = 2211

Processor 46
    Number of cells = 102593
    Number of points = 124543
    Number of faces shared with processor 8 = 1071
    Number of faces shared with processor 45 = 20000
    Number of faces shared with processor 47 = 20143
    Number of processor patches = 3
    Number of processor faces = 41214
    Number of boundary faces = 2072

Processor 47
    Number of cells = 105257
    Number of points = 127292
    Number of faces shared with processor 8 = 1
    Number of faces shared with processor 9 = 1056
    Number of faces shared with processor 46 = 20143
    Number of faces shared with processor 48 = 20199
    Number of processor patches = 4
    Number of processor faces = 41399
    Number of boundary faces = 2057

Processor 48
    Number of cells = 107947
    Number of points = 130025
    Number of faces shared with processor 9 = 1
    Number of faces shared with processor 10 = 1071
    Number of faces shared with processor 47 = 20199
    Number of faces shared with processor 49 = 20183
    Number of processor patches = 4
    Number of processor faces = 41454
    Number of boundary faces = 2088

Processor 49
    Number of cells = 104281
    Number of points = 126296
    Number of faces shared with processor 11 = 1012
    Number of faces shared with processor 48 = 20183
    Number of faces shared with processor 50 = 20024
    Number of processor patches = 3
    Number of processor faces = 41219
    Number of boundary faces = 2195

Processor 50
    Number of cells = 103422
    Number of points = 125396
    Number of faces shared with processor 11 = 1
    Number of faces shared with processor 12 = 1070
    Number of faces shared with processor 49 = 20024
    Number of faces shared with processor 51 = 20167
    Number of processor patches = 4
    Number of processor faces = 41262
    Number of boundary faces = 2072

Processor 51
    Number of cells = 105646
    Number of points = 127693
    Number of faces shared with processor 12 = 1
    Number of faces shared with processor 13 = 1056
    Number of faces shared with processor 50 = 20167
    Number of faces shared with processor 52 = 20198
    Number of processor patches = 4
    Number of processor faces = 41422
    Number of boundary faces = 2058

Processor 52
    Number of cells = 108756
    Number of points = 130821
    Number of faces shared with processor 13 = 1
    Number of faces shared with processor 14 = 1059
    Number of faces shared with processor 51 = 20198
    Number of faces shared with processor 53 = 20129
    Number of processor patches = 4
    Number of processor faces = 41387
    Number of boundary faces = 2129

Processor 53
    Number of cells = 102563
    Number of points = 124560
    Number of faces shared with processor 15 = 1030
    Number of faces shared with processor 52 = 20129
    Number of faces shared with processor 54 = 20060
    Number of processor patches = 3
    Number of processor faces = 41219
    Number of boundary faces = 2159

Processor 54
    Number of cells = 104039
    Number of points = 126035
    Number of faces shared with processor 15 = 1
    Number of faces shared with processor 16 = 1063
    Number of faces shared with processor 53 = 20060
    Number of faces shared with processor 55 = 20189
    Number of processor patches = 4
    Number of processor faces = 41313
    Number of boundary faces = 2065

Processor 55
    Number of cells = 106011
    Number of points = 128072
    Number of faces shared with processor 16 = 1
    Number of faces shared with processor 17 = 1059
    Number of faces shared with processor 54 = 20189
    Number of faces shared with processor 56 = 20198
    Number of processor patches = 4
    Number of processor faces = 41447
    Number of boundary faces = 2061

Processor 56
    Number of cells = 109485
    Number of points = 131536
    Number of faces shared with processor 17 = 1
    Number of faces shared with processor 18 = 1045
    Number of faces shared with processor 55 = 20198
    Number of faces shared with processor 57 = 20000
    Number of processor patches = 4
    Number of processor faces = 41244
    Number of boundary faces = 2244

Processor 57
    Number of cells = 101035
    Number of points = 122932
    Number of faces shared with processor 19 = 1045
    Number of faces shared with processor 56 = 20000
    Number of faces shared with processor 58 = 20090
    Number of processor patches = 3
    Number of processor faces = 41135
    Number of boundary faces = 2045

Processor 58
    Number of cells = 104515
    Number of points = 126527
    Number of faces shared with processor 19 = 1
    Number of faces shared with processor 20 = 1059
    Number of faces shared with processor 57 = 20090
    Number of faces shared with processor 59 = 20199
    Number of processor patches = 4
    Number of processor faces = 41349
    Number of boundary faces = 2061

Processor 59
    Number of cells = 106499
    Number of points = 128569
    Number of faces shared with processor 20 = 1
    Number of faces shared with processor 21 = 1063
    Number of faces shared with processor 58 = 20199
    Number of faces shared with processor 60 = 20198
    Number of processor patches = 4
    Number of processor faces = 41461
    Number of boundary faces = 2065

Processor 60
    Number of cells = 107951
    Number of points = 129987
    Number of faces shared with processor 21 = 1
    Number of faces shared with processor 22 = 1030
    Number of faces shared with processor 59 = 20198
    Number of faces shared with processor 61 = 20000
    Number of processor patches = 4
    Number of processor faces = 41229
    Number of boundary faces = 2229

Processor 61
    Number of cells = 101770
    Number of points = 123695
    Number of faces shared with processor 23 = 1059
    Number of faces shared with processor 60 = 20000
    Number of faces shared with processor 62 = 20118
    Number of processor patches = 3
    Number of processor faces = 41177
    Number of boundary faces = 2059

Processor 62
    Number of cells = 104880
    Number of points = 126903
    Number of faces shared with processor 23 = 1
    Number of faces shared with processor 24 = 1056
    Number of faces shared with processor 61 = 20118
    Number of faces shared with processor 63 = 20199
    Number of processor patches = 4
    Number of processor faces = 41374
    Number of boundary faces = 2058

Processor 63
    Number of cells = 107116
    Number of points = 129193
    Number of faces shared with processor 24 = 1
    Number of faces shared with processor 25 = 1070
    Number of faces shared with processor 62 = 20199
    Number of faces shared with processor 64 = 20198
    Number of processor patches = 4
    Number of processor faces = 41468
    Number of boundary faces = 2072

Processor 64
    Number of cells = 106234
    Number of points = 128252
    Number of faces shared with processor 25 = 1
    Number of faces shared with processor 26 = 1012
    Number of faces shared with processor 63 = 20198
    Number of faces shared with processor 65 = 20000
    Number of processor patches = 4
    Number of processor faces = 41211
    Number of boundary faces = 2211

Processor 65
    Number of cells = 102590
    Number of points = 124540
    Number of faces shared with processor 27 = 1071
    Number of faces shared with processor 64 = 20000
    Number of faces shared with processor 66 = 20143
    Number of processor patches = 3
    Number of processor faces = 41214
    Number of boundary faces = 2072

Processor 66
    Number of cells = 105260
    Number of points = 127295
    Number of faces shared with processor 27 = 1
    Number of faces shared with processor 28 = 1056
    Number of faces shared with processor 65 = 20143
    Number of faces shared with processor 67 = 20199
    Number of processor patches = 4
    Number of processor faces = 41399
    Number of boundary faces = 2057

Processor 67
    Number of cells = 107942
    Number of points = 130020
    Number of faces shared with processor 28 = 1
    Number of faces shared with processor 29 = 1071
    Number of faces shared with processor 66 = 20199
    Number of faces shared with processor 68 = 20183
    Number of processor patches = 4
    Number of processor faces = 41454
    Number of boundary faces = 2088

Processor 68
    Number of cells = 104286
    Number of points = 126301
    Number of faces shared with processor 30 = 1012
    Number of faces shared with processor 67 = 20183
    Number of faces shared with processor 69 = 20024
    Number of processor patches = 3
    Number of processor faces = 41219
    Number of boundary faces = 2195

Processor 69
    Number of cells = 103416
    Number of points = 125390
    Number of faces shared with processor 30 = 1
    Number of faces shared with processor 31 = 1070
    Number of faces shared with processor 68 = 20024
    Number of faces shared with processor 70 = 20167
    Number of processor patches = 4
    Number of processor faces = 41262
    Number of boundary faces = 2072

Processor 70
    Number of cells = 105646
    Number of points = 127693
    Number of faces shared with processor 31 = 1
    Number of faces shared with processor 32 = 1056
    Number of faces shared with processor 69 = 20167
    Number of faces shared with processor 71 = 20198
    Number of processor patches = 4
    Number of processor faces = 41422
    Number of boundary faces = 2058

Processor 71
    Number of cells = 108756
    Number of points = 130821
    Number of faces shared with processor 32 = 1
    Number of faces shared with processor 33 = 1059
    Number of faces shared with processor 70 = 20198
    Number of faces shared with processor 72 = 20129
    Number of processor patches = 4
    Number of processor faces = 41387
    Number of boundary faces = 2129

Processor 72
    Number of cells = 102569
    Number of points = 124566
    Number of faces shared with processor 34 = 1030
    Number of faces shared with processor 71 = 20129
    Number of faces shared with processor 73 = 20060
    Number of processor patches = 3
    Number of processor faces = 41219
    Number of boundary faces = 2159

Processor 73
    Number of cells = 104033
    Number of points = 126029
    Number of faces shared with processor 34 = 1
    Number of faces shared with processor 35 = 1063
    Number of faces shared with processor 72 = 20060
    Number of faces shared with processor 74 = 20189
    Number of processor patches = 4
    Number of processor faces = 41313
    Number of boundary faces = 2065

Processor 74
    Number of cells = 106011
    Number of points = 128072
    Number of faces shared with processor 35 = 1
    Number of faces shared with processor 36 = 1059
    Number of faces shared with processor 73 = 20189
    Number of faces shared with processor 75 = 20198
    Number of processor patches = 4
    Number of processor faces = 41447
    Number of boundary faces = 2061

Processor 75
    Number of cells = 109491
    Number of points = 131542
    Number of faces shared with processor 36 = 1
    Number of faces shared with processor 37 = 1045
    Number of faces shared with processor 74 = 20198
    Number of processor patches = 3
    Number of processor faces = 21244
    Number of boundary faces = 22244

Number of processor faces = 1529974
Max number of cells = 109492 (4.0174% above average 105263)
Max number of processor patches = 4 (8.57143% above average 3.68421)
Max number of faces between processors = 41468 (2.99417% above average 40262.5)

Time = 0

Processor 0: field transfer
--> FOAM Warning : 
    From void* Foam::dlLibraryTable::openLibrary(const Foam::fileName&, bool)
    in file db/dynamicLibrary/dlLibraryTable/dlLibraryTable.C at line 188
    Could not load "libpetscFoam.so"
libpetscFoam.so: cannot open shared object file: No such file or directory
Processor 1: field transfer
--> FOAM Warning : 
    From void* Foam::dlLibraryTable::openLibrary(const Foam::fileName&, bool)
    in file db/dynamicLibrary/dlLibraryTable/dlLibraryTable.C at line 188
    Could not load "libpetscFoam.so"
libpetscFoam.so: cannot open shared object file: No such file or directory
Processor 2: field transfer
--> FOAM Warning : 
    From void* Foam::dlLibraryTable::openLibrary(const Foam::fileName&, bool)
    in file db/dynamicLibrary/dlLibraryTable/dlLibraryTable.C at line 188
    Could not load "libpetscFoam.so"
libpetscFoam.so: cannot open shared object file: No such file or directory
Processor 3: field transfer
--> FOAM Warning : 
    From void* Foam::dlLibraryTable::openLibrary(const Foam::fileName&, bool)
    in file db/dynamicLibrary/dlLibraryTable/dlLibraryTable.C at line 188
    Could not load "libpetscFoam.so"
libpetscFoam.so: cannot open shared object file: No such file or directory
Processor 4: field transfer
--> FOAM Warning : 
    From void* Foam::dlLibraryTable::openLibrary(const Foam::fileName&, bool)
    in file db/dynamicLibrary/dlLibraryTable/dlLibraryTable.C at line 188
    Could not load "libpetscFoam.so"
libpetscFoam.so: cannot open shared object file: No such file or directory
Processor 5: field transfer
--> FOAM Warning : 
    From void* Foam::dlLibraryTable::openLibrary(const Foam::fileName&, bool)
    in file db/dynamicLibrary/dlLibraryTable/dlLibraryTable.C at line 188
    Could not load "libpetscFoam.so"
libpetscFoam.so: cannot open shared object file: No such file or directory
Processor 6: field transfer
--> FOAM Warning : 
    From void* Foam::dlLibraryTable::openLibrary(const Foam::fileName&, bool)
    in file db/dynamicLibrary/dlLibraryTable/dlLibraryTable.C at line 188
    Could not load "libpetscFoam.so"
libpetscFoam.so: cannot open shared object file: No such file or directory
Processor 7: field transfer
--> FOAM Warning : 
    From void* Foam::dlLibraryTable::openLibrary(const Foam::fileName&, bool)
    in file db/dynamicLibrary/dlLibraryTable/dlLibraryTable.C at line 188
    Could not load "libpetscFoam.so"
libpetscFoam.so: cannot open shared object file: No such file or directory
Processor 8: field transfer
--> FOAM Warning : 
    From void* Foam::dlLibraryTable::openLibrary(const Foam::fileName&, bool)
    in file db/dynamicLibrary/dlLibraryTable/dlLibraryTable.C at line 188
    Could not load "libpetscFoam.so"
libpetscFoam.so: cannot open shared object file: No such file or directory
Processor 9: field transfer
--> FOAM Warning : 
    From void* Foam::dlLibraryTable::openLibrary(const Foam::fileName&, bool)
    in file db/dynamicLibrary/dlLibraryTable/dlLibraryTable.C at line 188
    Could not load "libpetscFoam.so"
libpetscFoam.so: cannot open shared object file: No such file or directory
Processor 10: field transfer
--> FOAM Warning : 
    From void* Foam::dlLibraryTable::openLibrary(const Foam::fileName&, bool)
    in file db/dynamicLibrary/dlLibraryTable/dlLibraryTable.C at line 188
    Could not load "libpetscFoam.so"
libpetscFoam.so: cannot open shared object file: No such file or directory
Processor 11: field transfer
--> FOAM Warning : 
    From void* Foam::dlLibraryTable::openLibrary(const Foam::fileName&, bool)
    in file db/dynamicLibrary/dlLibraryTable/dlLibraryTable.C at line 188
    Could not load "libpetscFoam.so"
libpetscFoam.so: cannot open shared object file: No such file or directory
Processor 12: field transfer
--> FOAM Warning : 
    From void* Foam::dlLibraryTable::openLibrary(const Foam::fileName&, bool)
    in file db/dynamicLibrary/dlLibraryTable/dlLibraryTable.C at line 188
    Could not load "libpetscFoam.so"
libpetscFoam.so: cannot open shared object file: No such file or directory
Processor 13: field transfer
--> FOAM Warning : 
    From void* Foam::dlLibraryTable::openLibrary(const Foam::fileName&, bool)
    in file db/dynamicLibrary/dlLibraryTable/dlLibraryTable.C at line 188
    Could not load "libpetscFoam.so"
libpetscFoam.so: cannot open shared object file: No such file or directory
Processor 14: field transfer
--> FOAM Warning : 
    From void* Foam::dlLibraryTable::openLibrary(const Foam::fileName&, bool)
    in file db/dynamicLibrary/dlLibraryTable/dlLibraryTable.C at line 188
    Could not load "libpetscFoam.so"
libpetscFoam.so: cannot open shared object file: No such file or directory
Processor 15: field transfer
--> FOAM Warning : 
    From void* Foam::dlLibraryTable::openLibrary(const Foam::fileName&, bool)
    in file db/dynamicLibrary/dlLibraryTable/dlLibraryTable.C at line 188
    Could not load "libpetscFoam.so"
libpetscFoam.so: cannot open shared object file: No such file or directory
Processor 16: field transfer
--> FOAM Warning : 
    From void* Foam::dlLibraryTable::openLibrary(const Foam::fileName&, bool)
    in file db/dynamicLibrary/dlLibraryTable/dlLibraryTable.C at line 188
    Could not load "libpetscFoam.so"
libpetscFoam.so: cannot open shared object file: No such file or directory
Processor 17: field transfer
--> FOAM Warning : 
    From void* Foam::dlLibraryTable::openLibrary(const Foam::fileName&, bool)
    in file db/dynamicLibrary/dlLibraryTable/dlLibraryTable.C at line 188
    Could not load "libpetscFoam.so"
libpetscFoam.so: cannot open shared object file: No such file or directory
Processor 18: field transfer
--> FOAM Warning : 
    From void* Foam::dlLibraryTable::openLibrary(const Foam::fileName&, bool)
    in file db/dynamicLibrary/dlLibraryTable/dlLibraryTable.C at line 188
    Could not load "libpetscFoam.so"
libpetscFoam.so: cannot open shared object file: No such file or directory
Processor 19: field transfer
--> FOAM Warning : 
    From void* Foam::dlLibraryTable::openLibrary(const Foam::fileName&, bool)
    in file db/dynamicLibrary/dlLibraryTable/dlLibraryTable.C at line 188
    Could not load "libpetscFoam.so"
libpetscFoam.so: cannot open shared object file: No such file or directory
Processor 20: field transfer
--> FOAM Warning : 
    From void* Foam::dlLibraryTable::openLibrary(const Foam::fileName&, bool)
    in file db/dynamicLibrary/dlLibraryTable/dlLibraryTable.C at line 188
    Could not load "libpetscFoam.so"
libpetscFoam.so: cannot open shared object file: No such file or directory
Processor 21: field transfer
--> FOAM Warning : 
    From void* Foam::dlLibraryTable::openLibrary(const Foam::fileName&, bool)
    in file db/dynamicLibrary/dlLibraryTable/dlLibraryTable.C at line 188
    Could not load "libpetscFoam.so"
libpetscFoam.so: cannot open shared object file: No such file or directory
Processor 22: field transfer
--> FOAM Warning : 
    From void* Foam::dlLibraryTable::openLibrary(const Foam::fileName&, bool)
    in file db/dynamicLibrary/dlLibraryTable/dlLibraryTable.C at line 188
    Could not load "libpetscFoam.so"
libpetscFoam.so: cannot open shared object file: No such file or directory
Processor 23: field transfer
--> FOAM Warning : 
    From void* Foam::dlLibraryTable::openLibrary(const Foam::fileName&, bool)
    in file db/dynamicLibrary/dlLibraryTable/dlLibraryTable.C at line 188
    Could not load "libpetscFoam.so"
libpetscFoam.so: cannot open shared object file: No such file or directory
Processor 24: field transfer
--> FOAM Warning : 
    From void* Foam::dlLibraryTable::openLibrary(const Foam::fileName&, bool)
    in file db/dynamicLibrary/dlLibraryTable/dlLibraryTable.C at line 188
    Could not load "libpetscFoam.so"
libpetscFoam.so: cannot open shared object file: No such file or directory
Processor 25: field transfer
--> FOAM Warning : 
    From void* Foam::dlLibraryTable::openLibrary(const Foam::fileName&, bool)
    in file db/dynamicLibrary/dlLibraryTable/dlLibraryTable.C at line 188
    Could not load "libpetscFoam.so"
libpetscFoam.so: cannot open shared object file: No such file or directory
Processor 26: field transfer
--> FOAM Warning : 
    From void* Foam::dlLibraryTable::openLibrary(const Foam::fileName&, bool)
    in file db/dynamicLibrary/dlLibraryTable/dlLibraryTable.C at line 188
    Could not load "libpetscFoam.so"
libpetscFoam.so: cannot open shared object file: No such file or directory
Processor 27: field transfer
--> FOAM Warning : 
    From void* Foam::dlLibraryTable::openLibrary(const Foam::fileName&, bool)
    in file db/dynamicLibrary/dlLibraryTable/dlLibraryTable.C at line 188
    Could not load "libpetscFoam.so"
libpetscFoam.so: cannot open shared object file: No such file or directory
Processor 28: field transfer
--> FOAM Warning : 
    From void* Foam::dlLibraryTable::openLibrary(const Foam::fileName&, bool)
    in file db/dynamicLibrary/dlLibraryTable/dlLibraryTable.C at line 188
    Could not load "libpetscFoam.so"
libpetscFoam.so: cannot open shared object file: No such file or directory
Processor 29: field transfer
--> FOAM Warning : 
    From void* Foam::dlLibraryTable::openLibrary(const Foam::fileName&, bool)
    in file db/dynamicLibrary/dlLibraryTable/dlLibraryTable.C at line 188
    Could not load "libpetscFoam.so"
libpetscFoam.so: cannot open shared object file: No such file or directory
Processor 30: field transfer
--> FOAM Warning : 
    From void* Foam::dlLibraryTable::openLibrary(const Foam::fileName&, bool)
    in file db/dynamicLibrary/dlLibraryTable/dlLibraryTable.C at line 188
    Could not load "libpetscFoam.so"
libpetscFoam.so: cannot open shared object file: No such file or directory
Processor 31: field transfer
--> FOAM Warning : 
    From void* Foam::dlLibraryTable::openLibrary(const Foam::fileName&, bool)
    in file db/dynamicLibrary/dlLibraryTable/dlLibraryTable.C at line 188
    Could not load "libpetscFoam.so"
libpetscFoam.so: cannot open shared object file: No such file or directory
Processor 32: field transfer
--> FOAM Warning : 
    From void* Foam::dlLibraryTable::openLibrary(const Foam::fileName&, bool)
    in file db/dynamicLibrary/dlLibraryTable/dlLibraryTable.C at line 188
    Could not load "libpetscFoam.so"
libpetscFoam.so: cannot open shared object file: No such file or directory
Processor 33: field transfer
--> FOAM Warning : 
    From void* Foam::dlLibraryTable::openLibrary(const Foam::fileName&, bool)
    in file db/dynamicLibrary/dlLibraryTable/dlLibraryTable.C at line 188
    Could not load "libpetscFoam.so"
libpetscFoam.so: cannot open shared object file: No such file or directory
Processor 34: field transfer
--> FOAM Warning : 
    From void* Foam::dlLibraryTable::openLibrary(const Foam::fileName&, bool)
    in file db/dynamicLibrary/dlLibraryTable/dlLibraryTable.C at line 188
    Could not load "libpetscFoam.so"
libpetscFoam.so: cannot open shared object file: No such file or directory
Processor 35: field transfer
--> FOAM Warning : 
    From void* Foam::dlLibraryTable::openLibrary(const Foam::fileName&, bool)
    in file db/dynamicLibrary/dlLibraryTable/dlLibraryTable.C at line 188
    Could not load "libpetscFoam.so"
libpetscFoam.so: cannot open shared object file: No such file or directory
Processor 36: field transfer
--> FOAM Warning : 
    From void* Foam::dlLibraryTable::openLibrary(const Foam::fileName&, bool)
    in file db/dynamicLibrary/dlLibraryTable/dlLibraryTable.C at line 188
    Could not load "libpetscFoam.so"
libpetscFoam.so: cannot open shared object file: No such file or directory
Processor 37: field transfer
--> FOAM Warning : 
    From void* Foam::dlLibraryTable::openLibrary(const Foam::fileName&, bool)
    in file db/dynamicLibrary/dlLibraryTable/dlLibraryTable.C at line 188
    Could not load "libpetscFoam.so"
libpetscFoam.so: cannot open shared object file: No such file or directory
Processor 38: field transfer
--> FOAM Warning : 
    From void* Foam::dlLibraryTable::openLibrary(const Foam::fileName&, bool)
    in file db/dynamicLibrary/dlLibraryTable/dlLibraryTable.C at line 188
    Could not load "libpetscFoam.so"
libpetscFoam.so: cannot open shared object file: No such file or directory
Processor 39: field transfer
--> FOAM Warning : 
    From void* Foam::dlLibraryTable::openLibrary(const Foam::fileName&, bool)
    in file db/dynamicLibrary/dlLibraryTable/dlLibraryTable.C at line 188
    Could not load "libpetscFoam.so"
libpetscFoam.so: cannot open shared object file: No such file or directory
Processor 40: field transfer
--> FOAM Warning : 
    From void* Foam::dlLibraryTable::openLibrary(const Foam::fileName&, bool)
    in file db/dynamicLibrary/dlLibraryTable/dlLibraryTable.C at line 188
    Could not load "libpetscFoam.so"
libpetscFoam.so: cannot open shared object file: No such file or directory
Processor 41: field transfer
--> FOAM Warning : 
    From void* Foam::dlLibraryTable::openLibrary(const Foam::fileName&, bool)
    in file db/dynamicLibrary/dlLibraryTable/dlLibraryTable.C at line 188
    Could not load "libpetscFoam.so"
libpetscFoam.so: cannot open shared object file: No such file or directory
Processor 42: field transfer
--> FOAM Warning : 
    From void* Foam::dlLibraryTable::openLibrary(const Foam::fileName&, bool)
    in file db/dynamicLibrary/dlLibraryTable/dlLibraryTable.C at line 188
    Could not load "libpetscFoam.so"
libpetscFoam.so: cannot open shared object file: No such file or directory
Processor 43: field transfer
--> FOAM Warning : 
    From void* Foam::dlLibraryTable::openLibrary(const Foam::fileName&, bool)
    in file db/dynamicLibrary/dlLibraryTable/dlLibraryTable.C at line 188
    Could not load "libpetscFoam.so"
libpetscFoam.so: cannot open shared object file: No such file or directory
Processor 44: field transfer
--> FOAM Warning : 
    From void* Foam::dlLibraryTable::openLibrary(const Foam::fileName&, bool)
    in file db/dynamicLibrary/dlLibraryTable/dlLibraryTable.C at line 188
    Could not load "libpetscFoam.so"
libpetscFoam.so: cannot open shared object file: No such file or directory
Processor 45: field transfer
--> FOAM Warning : 
    From void* Foam::dlLibraryTable::openLibrary(const Foam::fileName&, bool)
    in file db/dynamicLibrary/dlLibraryTable/dlLibraryTable.C at line 188
    Could not load "libpetscFoam.so"
libpetscFoam.so: cannot open shared object file: No such file or directory
Processor 46: field transfer
--> FOAM Warning : 
    From void* Foam::dlLibraryTable::openLibrary(const Foam::fileName&, bool)
    in file db/dynamicLibrary/dlLibraryTable/dlLibraryTable.C at line 188
    Could not load "libpetscFoam.so"
libpetscFoam.so: cannot open shared object file: No such file or directory
Processor 47: field transfer
--> FOAM Warning : 
    From void* Foam::dlLibraryTable::openLibrary(const Foam::fileName&, bool)
    in file db/dynamicLibrary/dlLibraryTable/dlLibraryTable.C at line 188
    Could not load "libpetscFoam.so"
libpetscFoam.so: cannot open shared object file: No such file or directory
Processor 48: field transfer
--> FOAM Warning : 
    From void* Foam::dlLibraryTable::openLibrary(const Foam::fileName&, bool)
    in file db/dynamicLibrary/dlLibraryTable/dlLibraryTable.C at line 188
    Could not load "libpetscFoam.so"
libpetscFoam.so: cannot open shared object file: No such file or directory
Processor 49: field transfer
--> FOAM Warning : 
    From void* Foam::dlLibraryTable::openLibrary(const Foam::fileName&, bool)
    in file db/dynamicLibrary/dlLibraryTable/dlLibraryTable.C at line 188
    Could not load "libpetscFoam.so"
libpetscFoam.so: cannot open shared object file: No such file or directory
Processor 50: field transfer
--> FOAM Warning : 
    From void* Foam::dlLibraryTable::openLibrary(const Foam::fileName&, bool)
    in file db/dynamicLibrary/dlLibraryTable/dlLibraryTable.C at line 188
    Could not load "libpetscFoam.so"
libpetscFoam.so: cannot open shared object file: No such file or directory
Processor 51: field transfer
--> FOAM Warning : 
    From void* Foam::dlLibraryTable::openLibrary(const Foam::fileName&, bool)
    in file db/dynamicLibrary/dlLibraryTable/dlLibraryTable.C at line 188
    Could not load "libpetscFoam.so"
libpetscFoam.so: cannot open shared object file: No such file or directory
Processor 52: field transfer
--> FOAM Warning : 
    From void* Foam::dlLibraryTable::openLibrary(const Foam::fileName&, bool)
    in file db/dynamicLibrary/dlLibraryTable/dlLibraryTable.C at line 188
    Could not load "libpetscFoam.so"
libpetscFoam.so: cannot open shared object file: No such file or directory
Processor 53: field transfer
--> FOAM Warning : 
    From void* Foam::dlLibraryTable::openLibrary(const Foam::fileName&, bool)
    in file db/dynamicLibrary/dlLibraryTable/dlLibraryTable.C at line 188
    Could not load "libpetscFoam.so"
libpetscFoam.so: cannot open shared object file: No such file or directory
Processor 54: field transfer
--> FOAM Warning : 
    From void* Foam::dlLibraryTable::openLibrary(const Foam::fileName&, bool)
    in file db/dynamicLibrary/dlLibraryTable/dlLibraryTable.C at line 188
    Could not load "libpetscFoam.so"
libpetscFoam.so: cannot open shared object file: No such file or directory
Processor 55: field transfer
--> FOAM Warning : 
    From void* Foam::dlLibraryTable::openLibrary(const Foam::fileName&, bool)
    in file db/dynamicLibrary/dlLibraryTable/dlLibraryTable.C at line 188
    Could not load "libpetscFoam.so"
libpetscFoam.so: cannot open shared object file: No such file or directory
Processor 56: field transfer
--> FOAM Warning : 
    From void* Foam::dlLibraryTable::openLibrary(const Foam::fileName&, bool)
    in file db/dynamicLibrary/dlLibraryTable/dlLibraryTable.C at line 188
    Could not load "libpetscFoam.so"
libpetscFoam.so: cannot open shared object file: No such file or directory
Processor 57: field transfer
--> FOAM Warning : 
    From void* Foam::dlLibraryTable::openLibrary(const Foam::fileName&, bool)
    in file db/dynamicLibrary/dlLibraryTable/dlLibraryTable.C at line 188
    Could not load "libpetscFoam.so"
libpetscFoam.so: cannot open shared object file: No such file or directory
Processor 58: field transfer
--> FOAM Warning : 
    From void* Foam::dlLibraryTable::openLibrary(const Foam::fileName&, bool)
    in file db/dynamicLibrary/dlLibraryTable/dlLibraryTable.C at line 188
    Could not load "libpetscFoam.so"
libpetscFoam.so: cannot open shared object file: No such file or directory
Processor 59: field transfer
--> FOAM Warning : 
    From void* Foam::dlLibraryTable::openLibrary(const Foam::fileName&, bool)
    in file db/dynamicLibrary/dlLibraryTable/dlLibraryTable.C at line 188
    Could not load "libpetscFoam.so"
libpetscFoam.so: cannot open shared object file: No such file or directory
Processor 60: field transfer
--> FOAM Warning : 
    From void* Foam::dlLibraryTable::openLibrary(const Foam::fileName&, bool)
    in file db/dynamicLibrary/dlLibraryTable/dlLibraryTable.C at line 188
    Could not load "libpetscFoam.so"
libpetscFoam.so: cannot open shared object file: No such file or directory
Processor 61: field transfer
--> FOAM Warning : 
    From void* Foam::dlLibraryTable::openLibrary(const Foam::fileName&, bool)
    in file db/dynamicLibrary/dlLibraryTable/dlLibraryTable.C at line 188
    Could not load "libpetscFoam.so"
libpetscFoam.so: cannot open shared object file: No such file or directory
Processor 62: field transfer
--> FOAM Warning : 
    From void* Foam::dlLibraryTable::openLibrary(const Foam::fileName&, bool)
    in file db/dynamicLibrary/dlLibraryTable/dlLibraryTable.C at line 188
    Could not load "libpetscFoam.so"
libpetscFoam.so: cannot open shared object file: No such file or directory
Processor 63: field transfer
--> FOAM Warning : 
    From void* Foam::dlLibraryTable::openLibrary(const Foam::fileName&, bool)
    in file db/dynamicLibrary/dlLibraryTable/dlLibraryTable.C at line 188
    Could not load "libpetscFoam.so"
libpetscFoam.so: cannot open shared object file: No such file or directory
Processor 64: field transfer
--> FOAM Warning : 
    From void* Foam::dlLibraryTable::openLibrary(const Foam::fileName&, bool)
    in file db/dynamicLibrary/dlLibraryTable/dlLibraryTable.C at line 188
    Could not load "libpetscFoam.so"
libpetscFoam.so: cannot open shared object file: No such file or directory
Processor 65: field transfer
--> FOAM Warning : 
    From void* Foam::dlLibraryTable::openLibrary(const Foam::fileName&, bool)
    in file db/dynamicLibrary/dlLibraryTable/dlLibraryTable.C at line 188
    Could not load "libpetscFoam.so"
libpetscFoam.so: cannot open shared object file: No such file or directory
Processor 66: field transfer
--> FOAM Warning : 
    From void* Foam::dlLibraryTable::openLibrary(const Foam::fileName&, bool)
    in file db/dynamicLibrary/dlLibraryTable/dlLibraryTable.C at line 188
    Could not load "libpetscFoam.so"
libpetscFoam.so: cannot open shared object file: No such file or directory
Processor 67: field transfer
--> FOAM Warning : 
    From void* Foam::dlLibraryTable::openLibrary(const Foam::fileName&, bool)
    in file db/dynamicLibrary/dlLibraryTable/dlLibraryTable.C at line 188
    Could not load "libpetscFoam.so"
libpetscFoam.so: cannot open shared object file: No such file or directory
Processor 68: field transfer
--> FOAM Warning : 
    From void* Foam::dlLibraryTable::openLibrary(const Foam::fileName&, bool)
    in file db/dynamicLibrary/dlLibraryTable/dlLibraryTable.C at line 188
    Could not load "libpetscFoam.so"
libpetscFoam.so: cannot open shared object file: No such file or directory
Processor 69: field transfer
--> FOAM Warning : 
    From void* Foam::dlLibraryTable::openLibrary(const Foam::fileName&, bool)
    in file db/dynamicLibrary/dlLibraryTable/dlLibraryTable.C at line 188
    Could not load "libpetscFoam.so"
libpetscFoam.so: cannot open shared object file: No such file or directory
Processor 70: field transfer
--> FOAM Warning : 
    From void* Foam::dlLibraryTable::openLibrary(const Foam::fileName&, bool)
    in file db/dynamicLibrary/dlLibraryTable/dlLibraryTable.C at line 188
    Could not load "libpetscFoam.so"
libpetscFoam.so: cannot open shared object file: No such file or directory
Processor 71: field transfer
--> FOAM Warning : 
    From void* Foam::dlLibraryTable::openLibrary(const Foam::fileName&, bool)
    in file db/dynamicLibrary/dlLibraryTable/dlLibraryTable.C at line 188
    Could not load "libpetscFoam.so"
libpetscFoam.so: cannot open shared object file: No such file or directory
Processor 72: field transfer
--> FOAM Warning : 
    From void* Foam::dlLibraryTable::openLibrary(const Foam::fileName&, bool)
    in file db/dynamicLibrary/dlLibraryTable/dlLibraryTable.C at line 188
    Could not load "libpetscFoam.so"
libpetscFoam.so: cannot open shared object file: No such file or directory
Processor 73: field transfer
--> FOAM Warning : 
    From void* Foam::dlLibraryTable::openLibrary(const Foam::fileName&, bool)
    in file db/dynamicLibrary/dlLibraryTable/dlLibraryTable.C at line 188
    Could not load "libpetscFoam.so"
libpetscFoam.so: cannot open shared object file: No such file or directory
Processor 74: field transfer
--> FOAM Warning : 
    From void* Foam::dlLibraryTable::openLibrary(const Foam::fileName&, bool)
    in file db/dynamicLibrary/dlLibraryTable/dlLibraryTable.C at line 188
    Could not load "libpetscFoam.so"
libpetscFoam.so: cannot open shared object file: No such file or directory
Processor 75: field transfer
--> FOAM Warning : 
    From void* Foam::dlLibraryTable::openLibrary(const Foam::fileName&, bool)
    in file db/dynamicLibrary/dlLibraryTable/dlLibraryTable.C at line 188
    Could not load "libpetscFoam.so"
libpetscFoam.so: cannot open shared object file: No such file or directory

End

