/*---------------------------------------------------------------------------*\
| =========                 |                                                 |
| \\      /  F ield         | OpenFOAM: The Open Source CFD Toolbox           |
|  \\    /   O peration     | Version:  2306                                  |
|   \\  /    A nd           | Website:  www.openfoam.com                      |
|    \\/     M anipulation  |                                                 |
\*---------------------------------------------------------------------------*/
Build  : c423ebec-20231012 OPENFOAM=2306 version=v2306
Arch   : "LSB;label=32;scalar=64"
Exec   : simpleFoam -parallel -case /hkfs/work/workspace/scratch/eq4036-windsorbody_setup/workspace/5a05486defe2fdb4174827ea3c93818a/case
Date   : Feb 16 2024
Time   : 20:44:51
Host   : hkn0804.localdomain
PID    : 1715478
I/O    : uncollated
Case   : /hkfs/work/workspace/scratch/eq4036-windsorbody_setup/workspace/5a05486defe2fdb4174827ea3c93818a/case
nProcs : 4
Hosts  :
(
    (hkn0804.localdomain 4)
)
Pstream initialized with:
    floatTransfer      : false
    nProcsSimpleSum    : 0
    nonBlockingExchange: 0 (tuning: 0)
    exchange algorithm : -1
    commsType          : nonBlocking
    polling iterations : 0
trapFpe: Floating point exception trapping enabled (FOAM_SIGFPE).
fileModificationChecking : Monitoring run-time modified files using timeStampMaster (fileModificationSkew 5, maxFileModificationPolls 20)
allowSystemOperations : Allowing user-supplied system call operations

// * * * * * * * * * * * * * * * * * * * * * * * * * * * * * * * * * * * * * //
Create time

--> FOAM Warning : 
    From void* Foam::dlLibraryTable::openLibrary(const Foam::fileName&, bool)
    in file db/dynamicLibrary/dlLibraryTable/dlLibraryTable.C at line 188
    Could not load "libpetscFoam.so"
libpetscFoam.so: cannot open shared object file: No such file or directory
Create mesh for time = 0


SIMPLE: convergence criteria
    field p	 tolerance 1e-08
    field U	 tolerance 1e-08
    field k	 tolerance 1e-08
    field omega	 tolerance 1e-08
    field nuTilda	 tolerance 1e-08

Reading field p

Reading field U

Reading/calculating face flux field phi

Selecting incompressible transport model Newtonian
Selecting turbulence model type RAS
Selecting RAS turbulence model SpalartAllmaras
Selecting patchDistMethod meshWave
ft2 term: inactive
RAS
{
    RASModel        SpalartAllmaras;
    turbulence      on;
    printCoeffs     on;
    sigmaNut        0.66666;
    kappa           0.41;
    Cb1             0.1355;
    Cb2             0.622;
    Cw2             0.3;
    Cw3             2;
    Cv1             7.1;
    Cs              0.3;
    ck              0.07000000000000001;
    ft2             false;
    Ct3             1.2;
    Ct4             0.5;
}

No MRF models present

Creating finite volume options from "system/fvOptions"

Selecting finite volume options type velocityDampingConstraint
    Source: velocityDamping
    - selecting all cells
    - selected 6307136 cell(s) with volume 27.82583051560391

Starting time loop

--> FOAM Warning : 
    From bool Foam::functionObjectList::read()
    in file db/functionObjects/functionObjectList/functionObjectList.C at line 1035
    Reading "system/controlDict" at line 2 to 41
    Entry 'lref' is not a dictionary
--> FOAM Warning : 
    From bool Foam::functionObjectList::read()
    in file db/functionObjects/functionObjectList/functionObjectList.C at line 1035
    Reading "system/controlDict" at line 2 to 41
    Entry 'Aref' is not a dictionary
--> FOAM Warning : 
    From bool Foam::functionObjectList::read()
    in file db/functionObjects/functionObjectList/functionObjectList.C at line 1035
    Reading "system/controlDict" at line 2 to 41
    Entry 'yawAngle' is not a dictionary
--> FOAM Warning : 
    From bool Foam::functionObjectList::read()
    in file db/functionObjects/functionObjectList/functionObjectList.C at line 1035
    Reading "system/controlDict" at line 2 to 41
    Entry 'lDomain' is not a dictionary
--> FOAM Warning : 
    From bool Foam::functionObjectList::read()
    in file db/functionObjects/functionObjectList/functionObjectList.C at line 1035
    Reading "system/controlDict" at line 2 to 41
    Entry 'bDomain' is not a dictionary
--> FOAM Warning : 
    From bool Foam::functionObjectList::read()
    in file db/functionObjects/functionObjectList/functionObjectList.C at line 1035
    Reading "system/controlDict" at line 2 to 41
    Entry 'hDomain' is not a dictionary
--> FOAM Warning : 
    From bool Foam::functionObjectList::read()
    in file db/functionObjects/functionObjectList/functionObjectList.C at line 1035
    Reading "system/controlDict" at line 2 to 41
    Entry 'xCenter' is not a dictionary
--> FOAM Warning : 
    From bool Foam::functionObjectList::read()
    in file db/functionObjects/functionObjectList/functionObjectList.C at line 1035
    Reading "system/controlDict" at line 2 to 41
    Entry 'yCenter' is not a dictionary
--> FOAM Warning : 
    From bool Foam::functionObjectList::read()
    in file db/functionObjects/functionObjectList/functionObjectList.C at line 1035
    Reading "system/controlDict" at line 2 to 41
    Entry 'zCenter' is not a dictionary
--> FOAM Warning : 
    From bool Foam::functionObjectList::read()
    in file db/functionObjects/functionObjectList/functionObjectList.C at line 1035
    Reading "system/controlDict" at line 2 to 41
    Entry 'inletPatch' is not a dictionary
--> FOAM Warning : 
    From bool Foam::functionObjectList::read()
    in file db/functionObjects/functionObjectList/functionObjectList.C at line 1035
    Reading "system/controlDict" at line 2 to 41
    Entry 'outletPatch' is not a dictionary
--> FOAM Warning : 
    From bool Foam::functionObjectList::read()
    in file db/functionObjects/functionObjectList/functionObjectList.C at line 1035
    Reading "system/controlDict" at line 2 to 41
    Entry 'wallPatches' is not a dictionary
--> FOAM Warning : 
    From bool Foam::functionObjectList::read()
    in file db/functionObjects/functionObjectList/functionObjectList.C at line 1035
    Reading "system/controlDict" at line 2 to 41
    Entry 'forcesWallPatches' is not a dictionary
--> FOAM Warning : 
    From bool Foam::functionObjectList::read()
    in file db/functionObjects/functionObjectList/functionObjectList.C at line 1035
    Reading "system/controlDict" at line 2 to 41
    Entry 'symmPatches' is not a dictionary
--> FOAM Warning : 
    From bool Foam::functionObjectList::read()
    in file db/functionObjects/functionObjectList/functionObjectList.C at line 1035
    Reading "system/controlDict" at line 2 to 41
    Entry 'Uinf' is not a dictionary
--> FOAM Warning : 
    From bool Foam::functionObjectList::read()
    in file db/functionObjects/functionObjectList/functionObjectList.C at line 1035
    Reading "system/controlDict" at line 2 to 41
    Entry 'UinfMag' is not a dictionary
--> FOAM Warning : 
    From bool Foam::functionObjectList::read()
    in file db/functionObjects/functionObjectList/functionObjectList.C at line 1035
    Reading "system/controlDict" at line 2 to 41
    Entry 'nu' is not a dictionary
--> FOAM Warning : 
    From bool Foam::functionObjectList::read()
    in file db/functionObjects/functionObjectList/functionObjectList.C at line 1035
    Reading "system/controlDict" at line 2 to 41
    Entry 'pref' is not a dictionary
--> FOAM Warning : 
    From bool Foam::functionObjectList::read()
    in file db/functionObjects/functionObjectList/functionObjectList.C at line 1035
    Reading "system/controlDict" at line 2 to 41
    Entry 'viscRatio' is not a dictionary
--> FOAM Warning : 
    From bool Foam::functionObjectList::read()
    in file db/functionObjects/functionObjectList/functionObjectList.C at line 1035
    Reading "system/controlDict" at line 2 to 41
    Entry 'Tu' is not a dictionary
--> FOAM Warning : 
    From bool Foam::functionObjectList::read()
    in file db/functionObjects/functionObjectList/functionObjectList.C at line 1035
    Reading "system/controlDict" at line 2 to 41
    Entry 'LESturbModel' is not a dictionary
--> FOAM Warning : 
    From bool Foam::functionObjectList::read()
    in file db/functionObjects/functionObjectList/functionObjectList.C at line 1035
    Reading "system/controlDict" at line 2 to 41
    Entry 'RASturbModel' is not a dictionary
--> FOAM Warning : 
    From bool Foam::functionObjectList::read()
    in file db/functionObjects/functionObjectList/functionObjectList.C at line 1035
    Reading "system/controlDict" at line 2 to 41
    Entry 'deltaTurb' is not a dictionary
--> FOAM Warning : 
    From bool Foam::functionObjectList::read()
    in file db/functionObjects/functionObjectList/functionObjectList.C at line 1035
    Reading "system/controlDict" at line 2 to 41
    Entry 'dt' is not a dictionary
--> FOAM Warning : 
    From bool Foam::functionObjectList::read()
    in file db/functionObjects/functionObjectList/functionObjectList.C at line 1035
    Reading "system/controlDict" at line 2 to 41
    Entry 'tAvg' is not a dictionary
--> FOAM Warning : 
    From bool Foam::functionObjectList::read()
    in file db/functionObjects/functionObjectList/functionObjectList.C at line 1035
    Reading "system/controlDict" at line 2 to 41
    Entry 'tEnd' is not a dictionary
--> FOAM Warning : 
    From bool Foam::functionObjectList::read()
    in file db/functionObjects/functionObjectList/functionObjectList.C at line 1035
    Reading "system/controlDict" at line 2 to 41
    Entry 'writeInterval_' is not a dictionary
--> FOAM Warning : 
    From bool Foam::functionObjectList::read()
    in file db/functionObjects/functionObjectList/functionObjectList.C at line 1035
    Reading "system/controlDict" at line 2 to 41
    Entry 'nCores' is not a dictionary
--> FOAM Warning : 
    From bool Foam::functionObjectList::read()
    in file db/functionObjects/functionObjectList/functionObjectList.C at line 1035
    Reading "system/controlDict" at line 2 to 41
    Entry 'interpScheme' is not a dictionary
--> FOAM Warning : 
    From bool Foam::functionObjectList::read()
    in file db/functionObjects/functionObjectList/functionObjectList.C at line 1035
    Reading "system/controlDict" at line 2 to 41
    Entry 'probeField' is not a dictionary
wallShearStress wallShearStress:
    processing wall patches: 
        Windsor_Body
        CFDWT_Floor
        Windsor_Pins
        Windsor_Base

pressure calc_cp:
    Operating mode: staticCoeff
    Not including hydrostatic effects

forceCoeffs forceCoeffsAll:
    rho: rhoInf
    Freestream density (rhoInf) set to 1
    Not including porosity effects
    magUInf: 40
    lRef   : 0.6375
    Aref   : 0.1124
    rhoInf : 1
    Selecting all coefficients
    - Drag force: Cd
    - Drag force front: Cd(f)
    - Drag force rear: Cd(r)
    - Lift force: Cl
    - Lift force front: Cl(f)
    - Lift force rear: Cl(r)
    - Pitch moment: CmPitch
    - Roll moment: CmRoll
    - Yaw moment: CmYaw
    - Side force: Cs
    - Side force front: Cs(f)
    - Side force rear: Cs(r)


forceCoeffs dragCoeffBase:
    rho: rhoInf
    Freestream density (rhoInf) set to 1
    Not including porosity effects
    magUInf: 40
    lRef   : 0.6375
    Aref   : 0.1124
    rhoInf : 1
    Selecting coefficients:
    - Drag force: Cd


--> FOAM Warning : 
    From virtual void Foam::probes::findElements(const Foam::fvMesh&)
    in file probes/probes.C at line 249
    Location (-2 0 1.3) seems to be on multiple domains: cell 382251 on my domain 0 and cell 560069 on some other domain.
This might happen if the probe location is on a processor patch. Change the location slightly to prevent this.
--> FOAM Warning : 
    From virtual void Foam::probes::findElements(const Foam::fvMesh&)
    in file probes/probes.C at line 263
    Location (-2 0 1.3) seems to be on multiple domains: cell 1138605 on my domain 0 and face 4763106 on some other domain.
This might happen if the probe location is on a processor patch. Change the location slightly to prevent this.
Time = 1

velocityDampingConstraint velocityDamping damped 0 (0%) of cells, with max limit 300
[OGL LOG][lduLduBase.H:119] Initialising OGL
	OGL commit:  e75313f+
	Branch: dev 
	Build type: Debug
	Ginkgo version: 1.8.0 ( develop)
	Ginkgo commit: sparse-communicator
	MPI is GPU aware: 1
	Forces host buffer based communication: 0
	CPU ranks per GPU: 1
	Matrix format: Coo
	End OGL_INFO
[OGL LOG][Proc: 0]: global_index_init: 9.763 [ms]
[OGL LOG][Proc: 0]Ux_local_cols: call_init: 0.84 [ms]
[OGL LOG][Proc: 0]Ux_local_rows: call_init: 0.052 [ms]
[OGL LOG][Proc: 0]Ux_local_ldu_map: call_init: 0.3 [ms]
[OGL LOG][Proc: 0]Ux_local_coeffs: call_init: 5.764 [ms]
[OGL LOG][Proc: 0]Ux_non_local_cols: call_init: 0.016 [ms]
[OGL LOG][Proc: 0]Ux_non_local_rows: call_init: 0.005 [ms]
[OGL LOG][Proc: 0]Ux_non_local_ldu_map: call_init: 0.006 [ms]
[OGL LOG][Proc: 0]Ux_non_local_coeffs: call_init: 0.014 [ms]
[OGL LOG][Proc: 0]Ux: init_local_sparsity_pattern: 51216.748 [ms]
[OGL LOG][Proc: 0]Ux: init_non_local_sparsity_pattern: 112.384 [ms]
[OGL LOG][Proc: 0]Ux: update_local_matrix_data: 113.946 [ms]
[OGL LOG][Proc: 0]Ux: update_non_local_matrix_data: 1.03 [ms]
[OGL LOG][Proc: 0]device_partition: call_init: 1.284 [ms]
[OGL LOG][Proc: 0]Ux_matrix: call_init: 135.714 [ms]
[OGL LOG][Proc: 0]Ux_rhs: call_init: 3.293 [ms]
[OGL LOG][Proc: 0]Ux_solution: call_init: 3.252 [ms]
[OGL LOG][Preconditioner.H:121] Generate preconditioner BJ MaxBlockSize 1
[OGL LOG][Proc: 0]Ux: init_precond: 13.5 [ms]
[OGL LOG][StoppingCriterion.H:239] Creating stopping criterion with minIter 0 frequency 1
[OGL LOG][Proc: 0]Ux: generate_solver: 0.294 [ms]
[OGL LOG][Proc: 0]Ux: solve: 126.129 [ms]
[OGL LOG][Proc: 0]Ux: copy_x_back: 4.098 [ms]
[OGL LOG][lduLduBase.H:330] 
Statistics:
	Time per iteration: 18018 [mu s]
	Time per residual norm calculation: 4062.000000 [mu s]
	Time per iteration and DOF: 2.856764 [ns]
	Retrieve results bandwidth 3.082000 [GByte/s]
[OGL LOG][Proc: 0]Ux: solve_multi_gpu: 347.267 [ms]
BJcudaGKOBiCGStab:  Solving for Ux, Initial residual = 1.000000000000162, Final residual = 0.04568454760916787, No Iterations 7
[OGL LOG][lduLduBase.H:119] Initialising OGL
	OGL commit:  e75313f+
	Branch: dev 
	Build type: Debug
	Ginkgo version: 1.8.0 ( develop)
	Ginkgo commit: sparse-communicator
	MPI is GPU aware: 1
	Forces host buffer based communication: 0
	CPU ranks per GPU: 1
	Matrix format: Coo
	End OGL_INFO
[OGL LOG][Proc: 0]: global_index_init: 0.019 [ms]
[OGL LOG][Proc: 0]Uy_local_cols: call_init: 0.508 [ms]
[OGL LOG][Proc: 0]Uy_local_rows: call_init: 0.386 [ms]
[OGL LOG][Proc: 0]Uy_local_ldu_map: call_init: 0.297 [ms]
[OGL LOG][Proc: 0]Uy_local_coeffs: call_init: 0.678 [ms]
[OGL LOG][Proc: 0]Uy_non_local_cols: call_init: 0.322 [ms]
[OGL LOG][Proc: 0]Uy_non_local_rows: call_init: 0.114 [ms]
[OGL LOG][Proc: 0]Uy_non_local_ldu_map: call_init: 0.229 [ms]
[OGL LOG][Proc: 0]Uy_non_local_coeffs: call_init: 0.238 [ms]
[OGL LOG][Proc: 0]Uy: init_local_sparsity_pattern: 51205.496 [ms]
[OGL LOG][Proc: 0]Uy: init_non_local_sparsity_pattern: 112.026 [ms]
[OGL LOG][Proc: 0]Uy: update_local_matrix_data: 71.218 [ms]
[OGL LOG][Proc: 0]Uy: update_non_local_matrix_data: 0.945 [ms]
[OGL LOG][Proc: 0]Uy_matrix: call_init: 135.496 [ms]
[OGL LOG][Proc: 0]Uy_rhs: call_init: 5.754 [ms]
[OGL LOG][Proc: 0]Uy_solution: call_init: 5.305 [ms]
[OGL LOG][Preconditioner.H:121] Generate preconditioner BJ MaxBlockSize 1
[OGL LOG][Proc: 0]Uy: init_precond: 1.044 [ms]
[OGL LOG][StoppingCriterion.H:239] Creating stopping criterion with minIter 0 frequency 1
[OGL LOG][Proc: 0]Uy: generate_solver: 0.024 [ms]
[OGL LOG][Proc: 0]Uy: solve: 96.39700000000001 [ms]
[OGL LOG][Proc: 0]Uy: copy_x_back: 4.031 [ms]
[OGL LOG][lduLduBase.H:330] 
Statistics:
	Time per iteration: 9639 [mu s]
	Time per residual norm calculation: 150.000000 [mu s]
	Time per iteration and DOF: 1.528269 [ns]
	Retrieve results bandwidth 3.133000 [GByte/s]
[OGL LOG][Proc: 0]Uy: solve_multi_gpu: 310.058 [ms]
BJcudaGKOBiCGStab:  Solving for Uy, Initial residual = 1.000000000000033, Final residual = 0.07725065440050434, No Iterations 10
[OGL LOG][lduLduBase.H:119] Initialising OGL
	OGL commit:  e75313f+
	Branch: dev 
	Build type: Debug
	Ginkgo version: 1.8.0 ( develop)
	Ginkgo commit: sparse-communicator
	MPI is GPU aware: 1
	Forces host buffer based communication: 0
	CPU ranks per GPU: 1
	Matrix format: Coo
	End OGL_INFO
[OGL LOG][Proc: 0]: global_index_init: 0.014 [ms]
[OGL LOG][Proc: 0]Uz_local_cols: call_init: 0.041 [ms]
[OGL LOG][Proc: 0]Uz_local_rows: call_init: 0.008999999999999999 [ms]
[OGL LOG][Proc: 0]Uz_local_ldu_map: call_init: 0.008999999999999999 [ms]
[OGL LOG][Proc: 0]Uz_local_coeffs: call_init: 0.518 [ms]
[OGL LOG][Proc: 0]Uz_non_local_cols: call_init: 0.012 [ms]
[OGL LOG][Proc: 0]Uz_non_local_rows: call_init: 0.004 [ms]
[OGL LOG][Proc: 0]Uz_non_local_ldu_map: call_init: 0.003 [ms]
[OGL LOG][Proc: 0]Uz_non_local_coeffs: call_init: 0.007 [ms]
[OGL LOG][Proc: 0]Uz: init_local_sparsity_pattern: 51205.301 [ms]
[OGL LOG][Proc: 0]Uz: init_non_local_sparsity_pattern: 111.775 [ms]
[OGL LOG][Proc: 0]Uz: update_local_matrix_data: 70.80500000000001 [ms]
[OGL LOG][Proc: 0]Uz: update_non_local_matrix_data: 0.9360000000000001 [ms]
[OGL LOG][Proc: 0]Uz_matrix: call_init: 133.943 [ms]
[OGL LOG][Proc: 0]Uz_rhs: call_init: 5.729 [ms]
[OGL LOG][Proc: 0]Uz_solution: call_init: 5.29 [ms]
[OGL LOG][Preconditioner.H:121] Generate preconditioner BJ MaxBlockSize 1
[OGL LOG][Proc: 0]Uz: init_precond: 1.038 [ms]
[OGL LOG][StoppingCriterion.H:239] Creating stopping criterion with minIter 0 frequency 1
[OGL LOG][Proc: 0]Uz: generate_solver: 0.022 [ms]
[OGL LOG][Proc: 0]Uz: solve: 75.404 [ms]
[OGL LOG][Proc: 0]Uz: copy_x_back: 4.05 [ms]
[OGL LOG][lduLduBase.H:330] 
Statistics:
	Time per iteration: 75404 [mu s]
	Time per residual norm calculation: 161.000000 [mu s]
	Time per iteration and DOF: 11.955347 [ns]
	Retrieve results bandwidth 3.118000 [GByte/s]
[OGL LOG][Proc: 0]Uz: solve_multi_gpu: 287.76 [ms]
BJcudaGKOBiCGStab:  Solving for Uz, Initial residual = 1.000000000000043, Final residual = 0.07317246117889528, No Iterations 1
[OGL LOG][lduLduBase.H:119] Initialising OGL
	OGL commit:  e75313f+
	Branch: dev 
	Build type: Debug
	Ginkgo version: 1.8.0 ( develop)
	Ginkgo commit: sparse-communicator
	MPI is GPU aware: 1
	Forces host buffer based communication: 0
	CPU ranks per GPU: 1
	Matrix format: Coo
	End OGL_INFO
[OGL LOG][Proc: 0]: global_index_init: 0.135 [ms]
[OGL LOG][Proc: 0]p_local_cols: call_init: 0.036 [ms]
[OGL LOG][Proc: 0]p_local_rows: call_init: 0.013 [ms]
[OGL LOG][Proc: 0]p_local_ldu_map: call_init: 0.018 [ms]
[OGL LOG][Proc: 0]p_local_coeffs: call_init: 0.499 [ms]
[OGL LOG][Proc: 0]p_non_local_cols: call_init: 0.011 [ms]
[OGL LOG][Proc: 0]p_non_local_rows: call_init: 0.004 [ms]
[OGL LOG][Proc: 0]p_non_local_ldu_map: call_init: 0.004 [ms]
[OGL LOG][Proc: 0]p_non_local_coeffs: call_init: 0.008 [ms]
[OGL LOG][Proc: 0]p: init_local_sparsity_pattern: 51214.451 [ms]
[OGL LOG][Proc: 0]p: init_non_local_sparsity_pattern: 117.524 [ms]
[OGL LOG][Proc: 0]p: update_local_matrix_data: 54.974 [ms]
[OGL LOG][Proc: 0]p: update_non_local_matrix_data: 0.961 [ms]
[OGL LOG][Proc: 0]p_matrix: call_init: 134.702 [ms]
[OGL LOG][Proc: 0]p_rhs: call_init: 1.766 [ms]
[OGL LOG][Proc: 0]p_solution: call_init: 2.847 [ms]
[OGL LOG][Preconditioner.H:346] Generate preconditioner Multigrid MaxLevels 9 MinCoarseRows 10 ZeroGuess 1 Cycle v
[OGL LOG][Proc: 0]p: init_precond: 365.506 [ms]
[OGL LOG][StoppingCriterion.H:239] Creating stopping criterion with minIter 0 frequency 1
[OGL LOG][Proc: 0]p: generate_solver: 0.028 [ms]
[OGL LOG][Proc: 0]p: solve: 623.026 [ms]
[OGL LOG][Proc: 0]p: copy_x_back: 4.017 [ms]
[OGL LOG][lduLduBase.H:330] 
Statistics:
	Time per iteration: 5933 [mu s]
	Time per residual norm calculation: 145.000000 [mu s]
	Time per iteration and DOF: 0.940681 [ns]
	Retrieve results bandwidth 3.144000 [GByte/s]
[OGL LOG][Proc: 0]p: solve_multi_gpu: 1204.595 [ms]
MultigridcudaGKOCG:  Solving for p, Initial residual = 1.000000000000561, Final residual = 0.009970823269073364, No Iterations 105
time step continuity errors : sum local = 0.003613061836794065, global = -2.067220374489661e-05, cumulative = -2.067220374489661e-05
[OGL LOG][lduLduBase.H:119] Initialising OGL
	OGL commit:  e75313f+
	Branch: dev 
	Build type: Debug
	Ginkgo version: 1.8.0 ( develop)
	Ginkgo commit: sparse-communicator
	MPI is GPU aware: 1
	Forces host buffer based communication: 0
	CPU ranks per GPU: 1
	Matrix format: Coo
	End OGL_INFO
[OGL LOG][Proc: 0]: global_index_init: 2.059 [ms]
[OGL LOG][Proc: 0]nuTilda_local_cols: call_init: 0.341 [ms]
[OGL LOG][Proc: 0]nuTilda_local_rows: call_init: 0.215 [ms]
[OGL LOG][Proc: 0]nuTilda_local_ldu_map: call_init: 0.179 [ms]
[OGL LOG][Proc: 0]nuTilda_local_coeffs: call_init: 0.994 [ms]
[OGL LOG][Proc: 0]nuTilda_non_local_cols: call_init: 0.144 [ms]
[OGL LOG][Proc: 0]nuTilda_non_local_rows: call_init: 0.1 [ms]
[OGL LOG][Proc: 0]nuTilda_non_local_ldu_map: call_init: 0.143 [ms]
[OGL LOG][Proc: 0]nuTilda_non_local_coeffs: call_init: 0.174 [ms]
[OGL LOG][Proc: 0]nuTilda: init_local_sparsity_pattern: 52119.966 [ms]
[OGL LOG][Proc: 0]nuTilda: init_non_local_sparsity_pattern: 112.17 [ms]
[OGL LOG][Proc: 0]nuTilda: update_local_matrix_data: 66.504 [ms]
[OGL LOG][Proc: 0]nuTilda: update_non_local_matrix_data: 0.969 [ms]
[OGL LOG][Proc: 0]nuTilda_matrix: call_init: 133.44 [ms]
[OGL LOG][Proc: 0]nuTilda_rhs: call_init: 4.048 [ms]
[OGL LOG][Proc: 0]nuTilda_solution: call_init: 2.37 [ms]
[OGL LOG][Preconditioner.H:121] Generate preconditioner BJ MaxBlockSize 1
[OGL LOG][Proc: 0]nuTilda: init_precond: 1.042 [ms]
[OGL LOG][StoppingCriterion.H:239] Creating stopping criterion with minIter 0 frequency 1
[OGL LOG][Proc: 0]nuTilda: generate_solver: 0.025 [ms]
[OGL LOG][Proc: 0]nuTilda: solve: 67.70699999999999 [ms]
[OGL LOG][Proc: 0]nuTilda: copy_x_back: 4.368 [ms]
[OGL LOG][lduLduBase.H:330] 
Statistics:
	Time per iteration: 22569 [mu s]
	Time per residual norm calculation: 153.000000 [mu s]
	Time per iteration and DOF: 3.578328 [ns]
	Retrieve results bandwidth 2.891000 [GByte/s]
[OGL LOG][Proc: 0]nuTilda: solve_multi_gpu: 276.011 [ms]
BJcudaGKOBiCGStab:  Solving for nuTilda, Initial residual = 0.9999999904597143, Final residual = 0.03402330141069535, No Iterations 3
bounding nuTilda, min: -0.000358284811835609 max: 0.001570133298833465 average: 7.142471862816574e-05
ExecutionTime = 278.85 s  ClockTime = 280 s

--> FOAM Warning : 
    From virtual bool Foam::functionObjects::fieldSelection::checkSelection()
    in file functionObjects/fieldSelections/fieldSelection/fieldSelection.C at line 166
    Field k not found
--> FOAM Warning : 
    From virtual bool Foam::functionObjects::fieldSelection::checkSelection()
    in file functionObjects/fieldSelections/fieldSelection/fieldSelection.C at line 166
    Field gammaInt not found
--> FOAM Warning : 
    From virtual bool Foam::functionObjects::fieldSelection::checkSelection()
    in file functionObjects/fieldSelections/fieldSelection/fieldSelection.C at line 166
    Field omega not found
--> FOAM Warning : 
    From virtual bool Foam::functionObjects::fieldSelection::checkSelection()
    in file functionObjects/fieldSelections/fieldSelection/fieldSelection.C at line 166
    Field ReThetat not found
--> FOAM Warning : 
    From virtual bool Foam::functionObjects::fieldSelection::checkSelection()
    in file functionObjects/fieldSelections/fieldSelection/fieldSelection.C at line 166
    Field epsilon not found
--> FOAM Warning : 
    From virtual bool Foam::functionObjects::solverFieldSelection::updateSelection()
    in file functionObjects/fieldSelections/solverFieldSelection/solverFieldSelection.C at line 85
    Valid solver fields are: 3(U nuTilda p)Time = 2

velocityDampingConstraint velocityDamping damped 0 (0%) of cells, with max limit 300
[OGL LOG][Proc: 0]: global_index_init: 0.012 [ms]
[OGL LOG][Proc: 0]Ux_local_coeffs: call_update: 0.001 [ms]
[OGL LOG][Proc: 0]Ux_non_local_coeffs: call_update: 0 [ms]
[OGL LOG][Proc: 0]Ux: update_local_matrix_data: 79.441 [ms]
[OGL LOG][Proc: 0]Ux: update_non_local_matrix_data: 0.91 [ms]
[OGL LOG][Proc: 0]Ux_matrix: call_update: 1.658 [ms]
[OGL LOG][Proc: 0]Ux_rhs: call_update: 2.053 [ms]
[OGL LOG][Preconditioner.H:121] Generate preconditioner BJ MaxBlockSize 1
[OGL LOG][Proc: 0]Ux: init_precond: 1.008 [ms]
[OGL LOG][StoppingCriterion.H:239] Creating stopping criterion with minIter 8 frequency 1
[OGL LOG][Proc: 0]Ux: generate_solver: 0.014 [ms]
[OGL LOG][Proc: 0]Ux: solve: 67.233 [ms]
[OGL LOG][Proc: 0]Ux: copy_x_back: 3.959 [ms]
[OGL LOG][lduLduBase.H:330] 
Statistics:
	Time per iteration: 16808 [mu s]
	Time per residual norm calculation: 156.000000 [mu s]
	Time per iteration and DOF: 2.664918 [ns]
	Retrieve results bandwidth 3.190000 [GByte/s]
[OGL LOG][Proc: 0]Ux: solve_multi_gpu: 77.89700000000001 [ms]
BJcudaGKOBiCGStab:  Solving for Ux, Initial residual = 0.816213987087103, Final residual = 0.009471555719524237, No Iterations 4
[OGL LOG][Proc: 0]: global_index_init: 0.037 [ms]
[OGL LOG][Proc: 0]Uy_local_coeffs: call_update: 0 [ms]
[OGL LOG][Proc: 0]Uy_non_local_coeffs: call_update: 0 [ms]
[OGL LOG][Proc: 0]Uy: update_local_matrix_data: 76.438 [ms]
[OGL LOG][Proc: 0]Uy: update_non_local_matrix_data: 0.891 [ms]
[OGL LOG][Proc: 0]Uy_matrix: call_update: 1.71 [ms]
[OGL LOG][Proc: 0]Uy_rhs: call_update: 1.669 [ms]
[OGL LOG][Preconditioner.H:121] Generate preconditioner BJ MaxBlockSize 1
[OGL LOG][Proc: 0]Uy: init_precond: 0.978 [ms]
[OGL LOG][StoppingCriterion.H:239] Creating stopping criterion with minIter 12 frequency 1
[OGL LOG][Proc: 0]Uy: generate_solver: 0.014 [ms]
[OGL LOG][Proc: 0]Uy: solve: 65.512 [ms]
[OGL LOG][Proc: 0]Uy: copy_x_back: 3.997 [ms]
[OGL LOG][lduLduBase.H:330] 
Statistics:
	Time per iteration: 9358 [mu s]
	Time per residual norm calculation: 150.000000 [mu s]
	Time per iteration and DOF: 1.483716 [ns]
	Retrieve results bandwidth 3.159000 [GByte/s]
[OGL LOG][Proc: 0]Uy: solve_multi_gpu: 76.39400000000001 [ms]
BJcudaGKOBiCGStab:  Solving for Uy, Initial residual = 0.9991816055707093, Final residual = 0.002347544044061244, No Iterations 7
[OGL LOG][Proc: 0]: global_index_init: 0.021 [ms]
[OGL LOG][Proc: 0]Uz_local_coeffs: call_update: 0 [ms]
[OGL LOG][Proc: 0]Uz_non_local_coeffs: call_update: 0 [ms]
[OGL LOG][Proc: 0]Uz: update_local_matrix_data: 76.235 [ms]
[OGL LOG][Proc: 0]Uz: update_non_local_matrix_data: 0.901 [ms]
[OGL LOG][Proc: 0]Uz_matrix: call_update: 1.68 [ms]
[OGL LOG][Proc: 0]Uz_rhs: call_update: 1.573 [ms]
[OGL LOG][Preconditioner.H:121] Generate preconditioner BJ MaxBlockSize 1
[OGL LOG][Proc: 0]Uz: init_precond: 0.997 [ms]
[OGL LOG][StoppingCriterion.H:239] Creating stopping criterion with minIter 1 frequency 1
[OGL LOG][Proc: 0]Uz: generate_solver: 0.015 [ms]
[OGL LOG][Proc: 0]Uz: solve: 61.077 [ms]
[OGL LOG][Proc: 0]Uz: copy_x_back: 4.099 [ms]
[OGL LOG][lduLduBase.H:330] 
Statistics:
	Time per iteration: 30538 [mu s]
	Time per residual norm calculation: 144.000000 [mu s]
	Time per iteration and DOF: 4.841817 [ns]
	Retrieve results bandwidth 3.081000 [GByte/s]
[OGL LOG][Proc: 0]Uz: solve_multi_gpu: 71.895 [ms]
BJcudaGKOBiCGStab:  Solving for Uz, Initial residual = 0.999980469077508, Final residual = 0.09493198171399617, No Iterations 2
[OGL LOG][Proc: 0]: global_index_init: 0.014 [ms]
[OGL LOG][Proc: 0]p_local_coeffs: call_update: 0 [ms]
[OGL LOG][Proc: 0]p_non_local_coeffs: call_update: 0 [ms]
[OGL LOG][Proc: 0]p: update_local_matrix_data: 58.667 [ms]
[OGL LOG][Proc: 0]p: update_non_local_matrix_data: 0.953 [ms]
[OGL LOG][Proc: 0]p_matrix: call_update: 1.618 [ms]
[OGL LOG][Proc: 0]p_rhs: call_update: 1.709 [ms]
[OGL LOG][Preconditioner.H:346] Generate preconditioner Multigrid MaxLevels 9 MinCoarseRows 10 ZeroGuess 1 Cycle v
[OGL LOG][Proc: 0]p: init_precond: 341.508 [ms]
[OGL LOG][StoppingCriterion.H:239] Creating stopping criterion with minIter 63 frequency 1
[OGL LOG][Proc: 0]p: generate_solver: 0.008999999999999999 [ms]
[OGL LOG][Proc: 0]p: solve: 348.397 [ms]
[OGL LOG][Proc: 0]p: copy_x_back: 4.076 [ms]
[OGL LOG][lduLduBase.H:330] 
Statistics:
	Time per iteration: 5443 [mu s]
	Time per residual norm calculation: 152.000000 [mu s]
	Time per iteration and DOF: 0.862991 [ns]
	Retrieve results bandwidth 3.098000 [GByte/s]
[OGL LOG][Proc: 0]p: solve_multi_gpu: 713.741 [ms]
MultigridcudaGKOCG:  Solving for p, Initial residual = 0.4340844750080117, Final residual = 0.002709399623029341, No Iterations 64
time step continuity errors : sum local = 0.05929405136279729, global = 0.008674898347504442, cumulative = 0.008654226143759545
[OGL LOG][Proc: 0]: global_index_init: 0.016 [ms]
[OGL LOG][Proc: 0]nuTilda_local_coeffs: call_update: 0 [ms]
[OGL LOG][Proc: 0]nuTilda_non_local_coeffs: call_update: 0 [ms]
[OGL LOG][Proc: 0]nuTilda: update_local_matrix_data: 70.726 [ms]
[OGL LOG][Proc: 0]nuTilda: update_non_local_matrix_data: 0.776 [ms]
[OGL LOG][Proc: 0]nuTilda_matrix: call_update: 1.974 [ms]
[OGL LOG][Proc: 0]nuTilda_rhs: call_update: 1.497 [ms]
[OGL LOG][Preconditioner.H:121] Generate preconditioner BJ MaxBlockSize 1
[OGL LOG][Proc: 0]nuTilda: init_precond: 1.025 [ms]
[OGL LOG][StoppingCriterion.H:239] Creating stopping criterion with minIter 3 frequency 1
[OGL LOG][Proc: 0]nuTilda: generate_solver: 0.015 [ms]
[OGL LOG][Proc: 0]nuTilda: solve: 59.882 [ms]
[OGL LOG][Proc: 0]nuTilda: copy_x_back: 4.027 [ms]
[OGL LOG][lduLduBase.H:330] 
Statistics:
	Time per iteration: 29941 [mu s]
	Time per residual norm calculation: 138.000000 [mu s]
	Time per iteration and DOF: 4.747163 [ns]
	Retrieve results bandwidth 3.136000 [GByte/s]
[OGL LOG][Proc: 0]nuTilda: solve_multi_gpu: 70.867 [ms]
BJcudaGKOBiCGStab:  Solving for nuTilda, Initial residual = 0.2461101164934169, Final residual = 0.01614511098879291, No Iterations 2
ExecutionTime = 285.6 s  ClockTime = 287 s

Time = 3

velocityDampingConstraint velocityDamping damped 4884 (0.08%) of cells, with max limit 300
[OGL LOG][Proc: 0]: global_index_init: 0.03 [ms]
[OGL LOG][Proc: 0]Ux_local_coeffs: call_update: 0 [ms]
[OGL LOG][Proc: 0]Ux_non_local_coeffs: call_update: 0 [ms]
[OGL LOG][Proc: 0]Ux: update_local_matrix_data: 76.46899999999999 [ms]
[OGL LOG][Proc: 0]Ux: update_non_local_matrix_data: 0.89 [ms]
[OGL LOG][Proc: 0]Ux_matrix: call_update: 1.693 [ms]
[OGL LOG][Proc: 0]Ux_rhs: call_update: 1.762 [ms]
[OGL LOG][Preconditioner.H:121] Generate preconditioner BJ MaxBlockSize 1
[OGL LOG][Proc: 0]Ux: init_precond: 1.021 [ms]
[OGL LOG][StoppingCriterion.H:239] Creating stopping criterion with minIter 5 frequency 1
[OGL LOG][Proc: 0]Ux: generate_solver: 0.016 [ms]
[OGL LOG][Proc: 0]Ux: solve: 65.33199999999999 [ms]
[OGL LOG][Proc: 0]Ux: copy_x_back: 4.144 [ms]
[OGL LOG][lduLduBase.H:330] 
Statistics:
	Time per iteration: 21777 [mu s]
	Time per residual norm calculation: 159.000000 [mu s]
	Time per iteration and DOF: 3.452756 [ns]
	Retrieve results bandwidth 3.047000 [GByte/s]
[OGL LOG][Proc: 0]Ux: solve_multi_gpu: 75.833 [ms]
BJcudaGKOBiCGStab:  Solving for Ux, Initial residual = 0.3120436031438764, Final residual = 0.003952180049328402, No Iterations 3
[OGL LOG][Proc: 0]: global_index_init: 0.025 [ms]
[OGL LOG][Proc: 0]Uy_local_coeffs: call_update: 0 [ms]
[OGL LOG][Proc: 0]Uy_non_local_coeffs: call_update: 0 [ms]
[OGL LOG][Proc: 0]Uy: update_local_matrix_data: 76.315 [ms]
[OGL LOG][Proc: 0]Uy: update_non_local_matrix_data: 0.886 [ms]
[OGL LOG][Proc: 0]Uy_matrix: call_update: 1.712 [ms]
[OGL LOG][Proc: 0]Uy_rhs: call_update: 1.579 [ms]
[OGL LOG][Preconditioner.H:121] Generate preconditioner BJ MaxBlockSize 1
[OGL LOG][Proc: 0]Uy: init_precond: 1.004 [ms]
[OGL LOG][StoppingCriterion.H:239] Creating stopping criterion with minIter 8 frequency 1
[OGL LOG][Proc: 0]Uy: generate_solver: 0.016 [ms]
[OGL LOG][Proc: 0]Uy: solve: 63.751 [ms]
[OGL LOG][Proc: 0]Uy: copy_x_back: 3.877 [ms]
[OGL LOG][lduLduBase.H:330] 
Statistics:
	Time per iteration: 15937 [mu s]
	Time per residual norm calculation: 156.000000 [mu s]
	Time per iteration and DOF: 2.526820 [ns]
	Retrieve results bandwidth 3.257000 [GByte/s]
[OGL LOG][Proc: 0]Uy: solve_multi_gpu: 74.476 [ms]
BJcudaGKOBiCGStab:  Solving for Uy, Initial residual = 0.280119843530711, Final residual = 0.006168884487786514, No Iterations 4
[OGL LOG][Proc: 0]: global_index_init: 0.054 [ms]
[OGL LOG][Proc: 0]Uz_local_coeffs: call_update: 0 [ms]
[OGL LOG][Proc: 0]Uz_non_local_coeffs: call_update: 0 [ms]
[OGL LOG][Proc: 0]Uz: update_local_matrix_data: 76.33199999999999 [ms]
[OGL LOG][Proc: 0]Uz: update_non_local_matrix_data: 0.867 [ms]
[OGL LOG][Proc: 0]Uz_matrix: call_update: 1.674 [ms]
[OGL LOG][Proc: 0]Uz_rhs: call_update: 1.498 [ms]
[OGL LOG][Preconditioner.H:121] Generate preconditioner BJ MaxBlockSize 1
[OGL LOG][Proc: 0]Uz: init_precond: 0.9389999999999999 [ms]
[OGL LOG][StoppingCriterion.H:239] Creating stopping criterion with minIter 2 frequency 1
[OGL LOG][Proc: 0]Uz: generate_solver: 0.015 [ms]
[OGL LOG][Proc: 0]Uz: solve: 61.194 [ms]
[OGL LOG][Proc: 0]Uz: copy_x_back: 3.939 [ms]
[OGL LOG][lduLduBase.H:330] 
Statistics:
	Time per iteration: 30597 [mu s]
	Time per residual norm calculation: 140.000000 [mu s]
	Time per iteration and DOF: 4.851172 [ns]
	Retrieve results bandwidth 3.206000 [GByte/s]
[OGL LOG][Proc: 0]Uz: solve_multi_gpu: 71.72799999999999 [ms]
BJcudaGKOBiCGStab:  Solving for Uz, Initial residual = 0.2515584330749811, Final residual = 0.02496450029108213, No Iterations 2
[OGL LOG][Proc: 0]: global_index_init: 0.014 [ms]
[OGL LOG][Proc: 0]p_local_coeffs: call_update: 0 [ms]
[OGL LOG][Proc: 0]p_non_local_coeffs: call_update: 0 [ms]
[OGL LOG][Proc: 0]p: update_local_matrix_data: 58.226 [ms]
[OGL LOG][Proc: 0]p: update_non_local_matrix_data: 0.865 [ms]
[OGL LOG][Proc: 0]p_matrix: call_update: 1.531 [ms]
[OGL LOG][Proc: 0]p_rhs: call_update: 1.899 [ms]
[OGL LOG][Preconditioner.H:346] Generate preconditioner Multigrid MaxLevels 9 MinCoarseRows 10 ZeroGuess 1 Cycle v
[OGL LOG][Proc: 0]p: init_precond: 333.925 [ms]
[OGL LOG][StoppingCriterion.H:239] Creating stopping criterion with minIter 38 frequency 1
[OGL LOG][Proc: 0]p: generate_solver: 0.008 [ms]
[OGL LOG][Proc: 0]p: solve: 481.349 [ms]
[OGL LOG][Proc: 0]p: copy_x_back: 4.013 [ms]
[OGL LOG][lduLduBase.H:330] 
Statistics:
	Time per iteration: 5175 [mu s]
	Time per residual norm calculation: 138.000000 [mu s]
	Time per iteration and DOF: 0.820499 [ns]
	Retrieve results bandwidth 3.147000 [GByte/s]
[OGL LOG][Proc: 0]p: solve_multi_gpu: 839.013 [ms]
MultigridcudaGKOCG:  Solving for p, Initial residual = 0.4101125140312892, Final residual = 0.003955039514512332, No Iterations 93
time step continuity errors : sum local = 0.02237741265304254, global = 0.0005421653454149703, cumulative = 0.009196391489174515
[OGL LOG][Proc: 0]: global_index_init: 0.016 [ms]
[OGL LOG][Proc: 0]nuTilda_local_coeffs: call_update: 0 [ms]
[OGL LOG][Proc: 0]nuTilda_non_local_coeffs: call_update: 0 [ms]
[OGL LOG][Proc: 0]nuTilda: update_local_matrix_data: 71.369 [ms]
[OGL LOG][Proc: 0]nuTilda: update_non_local_matrix_data: 0.898 [ms]
[OGL LOG][Proc: 0]nuTilda_matrix: call_update: 1.365 [ms]
[OGL LOG][Proc: 0]nuTilda_rhs: call_update: 1.924 [ms]
[OGL LOG][Preconditioner.H:121] Generate preconditioner BJ MaxBlockSize 1
[OGL LOG][Proc: 0]nuTilda: init_precond: 1.057 [ms]
[OGL LOG][StoppingCriterion.H:239] Creating stopping criterion with minIter 3 frequency 1
[OGL LOG][Proc: 0]nuTilda: generate_solver: 0.015 [ms]
[OGL LOG][Proc: 0]nuTilda: solve: 60.22 [ms]
[OGL LOG][Proc: 0]nuTilda: copy_x_back: 4.099 [ms]
[OGL LOG][lduLduBase.H:330] 
Statistics:
	Time per iteration: 30110 [mu s]
	Time per residual norm calculation: 149.000000 [mu s]
	Time per iteration and DOF: 4.773958 [ns]
	Retrieve results bandwidth 3.081000 [GByte/s]
[OGL LOG][Proc: 0]nuTilda: solve_multi_gpu: 74.64 [ms]
BJcudaGKOBiCGStab:  Solving for nuTilda, Initial residual = 0.2303493784361663, Final residual = 0.01241086804563863, No Iterations 2
ExecutionTime = 292.45 s  ClockTime = 294 s

Time = 4

velocityDampingConstraint velocityDamping damped 116 (0%) of cells, with max limit 300
[OGL LOG][Proc: 0]: global_index_init: 0.014 [ms]
[OGL LOG][Proc: 0]Ux_local_coeffs: call_update: 0 [ms]
[OGL LOG][Proc: 0]Ux_non_local_coeffs: call_update: 0 [ms]
[OGL LOG][Proc: 0]Ux: update_local_matrix_data: 77.11199999999999 [ms]
[OGL LOG][Proc: 0]Ux: update_non_local_matrix_data: 0.8129999999999999 [ms]
[OGL LOG][Proc: 0]Ux_matrix: call_update: 1.719 [ms]
[OGL LOG][Proc: 0]Ux_rhs: call_update: 1.568 [ms]
[OGL LOG][Preconditioner.H:121] Generate preconditioner BJ MaxBlockSize 1
[OGL LOG][Proc: 0]Ux: init_precond: 1.065 [ms]
[OGL LOG][StoppingCriterion.H:239] Creating stopping criterion with minIter 3 frequency 1
[OGL LOG][Proc: 0]Ux: generate_solver: 0.025 [ms]
[OGL LOG][Proc: 0]Ux: solve: 63.926 [ms]
[OGL LOG][Proc: 0]Ux: copy_x_back: 4.001 [ms]
[OGL LOG][lduLduBase.H:330] 
Statistics:
	Time per iteration: 21308 [mu s]
	Time per residual norm calculation: 141.000000 [mu s]
	Time per iteration and DOF: 3.378396 [ns]
	Retrieve results bandwidth 3.156000 [GByte/s]
[OGL LOG][Proc: 0]Ux: solve_multi_gpu: 74.05800000000001 [ms]
BJcudaGKOBiCGStab:  Solving for Ux, Initial residual = 0.04937007438442081, Final residual = 0.004310405480635627, No Iterations 3
[OGL LOG][Proc: 0]: global_index_init: 0.059 [ms]
[OGL LOG][Proc: 0]Uy_local_coeffs: call_update: 0 [ms]
[OGL LOG][Proc: 0]Uy_non_local_coeffs: call_update: 0 [ms]
[OGL LOG][Proc: 0]Uy: update_local_matrix_data: 76.093 [ms]
[OGL LOG][Proc: 0]Uy: update_non_local_matrix_data: 0.778 [ms]
[OGL LOG][Proc: 0]Uy_matrix: call_update: 1.769 [ms]
[OGL LOG][Proc: 0]Uy_rhs: call_update: 3.127 [ms]
[OGL LOG][Preconditioner.H:121] Generate preconditioner BJ MaxBlockSize 1
[OGL LOG][Proc: 0]Uy: init_precond: 1.057 [ms]
[OGL LOG][StoppingCriterion.H:239] Creating stopping criterion with minIter 5 frequency 1
[OGL LOG][Proc: 0]Uy: generate_solver: 0.014 [ms]
[OGL LOG][Proc: 0]Uy: solve: 70.39 [ms]
[OGL LOG][Proc: 0]Uy: copy_x_back: 3.986 [ms]
[OGL LOG][lduLduBase.H:330] 
Statistics:
	Time per iteration: 23463 [mu s]
	Time per residual norm calculation: 145.000000 [mu s]
	Time per iteration and DOF: 3.720072 [ns]
	Retrieve results bandwidth 3.168000 [GByte/s]
[OGL LOG][Proc: 0]Uy: solve_multi_gpu: 82.863 [ms]
BJcudaGKOBiCGStab:  Solving for Uy, Initial residual = 0.1231413871388625, Final residual = 0.01007831835509751, No Iterations 3
[OGL LOG][Proc: 0]: global_index_init: 0.032 [ms]
[OGL LOG][Proc: 0]Uz_local_coeffs: call_update: 0 [ms]
[OGL LOG][Proc: 0]Uz_non_local_coeffs: call_update: 0 [ms]
[OGL LOG][Proc: 0]Uz: update_local_matrix_data: 76.42100000000001 [ms]
[OGL LOG][Proc: 0]Uz: update_non_local_matrix_data: 0.795 [ms]
[OGL LOG][Proc: 0]Uz_matrix: call_update: 1.752 [ms]
[OGL LOG][Proc: 0]Uz_rhs: call_update: 1.506 [ms]
[OGL LOG][Preconditioner.H:121] Generate preconditioner BJ MaxBlockSize 1
[OGL LOG][Proc: 0]Uz: init_precond: 1.003 [ms]
[OGL LOG][StoppingCriterion.H:239] Creating stopping criterion with minIter 3 frequency 1
[OGL LOG][Proc: 0]Uz: generate_solver: 0.014 [ms]
[OGL LOG][Proc: 0]Uz: solve: 60.763 [ms]
[OGL LOG][Proc: 0]Uz: copy_x_back: 4.017 [ms]
[OGL LOG][lduLduBase.H:330] 
Statistics:
	Time per iteration: 20254 [mu s]
	Time per residual norm calculation: 144.000000 [mu s]
	Time per iteration and DOF: 3.211283 [ns]
	Retrieve results bandwidth 3.144000 [GByte/s]
[OGL LOG][Proc: 0]Uz: solve_multi_gpu: 71.57299999999999 [ms]
BJcudaGKOBiCGStab:  Solving for Uz, Initial residual = 0.1046045837677862, Final residual = 0.0101790127612382, No Iterations 3
[OGL LOG][Proc: 0]: global_index_init: 0.095 [ms]
[OGL LOG][Proc: 0]p_local_coeffs: call_update: 0 [ms]
[OGL LOG][Proc: 0]p_non_local_coeffs: call_update: 0 [ms]
[OGL LOG][Proc: 0]p: update_local_matrix_data: 59.87 [ms]
[OGL LOG][Proc: 0]p: update_non_local_matrix_data: 0.8090000000000001 [ms]
[OGL LOG][Proc: 0]p_matrix: call_update: 1.707 [ms]
[OGL LOG][Proc: 0]p_rhs: call_update: 1.634 [ms]
[OGL LOG][Preconditioner.H:346] Generate preconditioner Multigrid MaxLevels 9 MinCoarseRows 10 ZeroGuess 1 Cycle v
[OGL LOG][Proc: 0]p: init_precond: 337.426 [ms]
[OGL LOG][StoppingCriterion.H:239] Creating stopping criterion with minIter 55 frequency 1
[OGL LOG][Proc: 0]p: generate_solver: 0.008999999999999999 [ms]
[OGL LOG][Proc: 0]p: solve: 312.538 [ms]
[OGL LOG][Proc: 0]p: copy_x_back: 3.912 [ms]
[OGL LOG][lduLduBase.H:330] 
Statistics:
	Time per iteration: 5581 [mu s]
	Time per residual norm calculation: 152.000000 [mu s]
	Time per iteration and DOF: 0.884871 [ns]
	Retrieve results bandwidth 3.228000 [GByte/s]
[OGL LOG][Proc: 0]p: solve_multi_gpu: 673.346 [ms]
MultigridcudaGKOCG:  Solving for p, Initial residual = 0.5062555697165991, Final residual = 0.001036522119241589, No Iterations 56
time step continuity errors : sum local = 0.01423989618679984, global = -0.002736780020258694, cumulative = 0.006459611468915822
[OGL LOG][Proc: 0]: global_index_init: 0.018 [ms]
[OGL LOG][Proc: 0]nuTilda_local_coeffs: call_update: 0 [ms]
[OGL LOG][Proc: 0]nuTilda_non_local_coeffs: call_update: 0 [ms]
[OGL LOG][Proc: 0]nuTilda: update_local_matrix_data: 71.611 [ms]
[OGL LOG][Proc: 0]nuTilda: update_non_local_matrix_data: 0.788 [ms]
[OGL LOG][Proc: 0]nuTilda_matrix: call_update: 1.887 [ms]
[OGL LOG][Proc: 0]nuTilda_rhs: call_update: 3.391 [ms]
[OGL LOG][Preconditioner.H:121] Generate preconditioner BJ MaxBlockSize 1
[OGL LOG][Proc: 0]nuTilda: init_precond: 1.027 [ms]
[OGL LOG][StoppingCriterion.H:239] Creating stopping criterion with minIter 2 frequency 1
[OGL LOG][Proc: 0]nuTilda: generate_solver: 0.015 [ms]
[OGL LOG][Proc: 0]nuTilda: solve: 60.385 [ms]
[OGL LOG][Proc: 0]nuTilda: copy_x_back: 4.059 [ms]
[OGL LOG][lduLduBase.H:330] 
Statistics:
	Time per iteration: 30192 [mu s]
	Time per residual norm calculation: 135.000000 [mu s]
	Time per iteration and DOF: 4.786959 [ns]
	Retrieve results bandwidth 3.111000 [GByte/s]
[OGL LOG][Proc: 0]nuTilda: solve_multi_gpu: 73.282 [ms]
BJcudaGKOBiCGStab:  Solving for nuTilda, Initial residual = 0.1306641064935188, Final residual = 0.008433422571004434, No Iterations 2
ExecutionTime = 299.17 s  ClockTime = 300 s

Time = 5

velocityDampingConstraint velocityDamping damped 1916 (0.03%) of cells, with max limit 300
[OGL LOG][Proc: 0]: global_index_init: 0.014 [ms]
[OGL LOG][Proc: 0]Ux_local_coeffs: call_update: 0 [ms]
[OGL LOG][Proc: 0]Ux_non_local_coeffs: call_update: 0 [ms]
[OGL LOG][Proc: 0]Ux: update_local_matrix_data: 75.68899999999999 [ms]
[OGL LOG][Proc: 0]Ux: update_non_local_matrix_data: 0.792 [ms]
[OGL LOG][Proc: 0]Ux_matrix: call_update: 1.373 [ms]
[OGL LOG][Proc: 0]Ux_rhs: call_update: 1.834 [ms]
[OGL LOG][Preconditioner.H:121] Generate preconditioner BJ MaxBlockSize 1
[OGL LOG][Proc: 0]Ux: init_precond: 0.976 [ms]
[OGL LOG][StoppingCriterion.H:239] Creating stopping criterion with minIter 4 frequency 1
[OGL LOG][Proc: 0]Ux: generate_solver: 0.014 [ms]
[OGL LOG][Proc: 0]Ux: solve: 62.891 [ms]
[OGL LOG][Proc: 0]Ux: copy_x_back: 4.051 [ms]
[OGL LOG][lduLduBase.H:330] 
Statistics:
	Time per iteration: 31445 [mu s]
	Time per residual norm calculation: 165.000000 [mu s]
	Time per iteration and DOF: 4.985623 [ns]
	Retrieve results bandwidth 3.117000 [GByte/s]
[OGL LOG][Proc: 0]Ux: solve_multi_gpu: 74.974 [ms]
BJcudaGKOBiCGStab:  Solving for Ux, Initial residual = 0.334132705931803, Final residual = 0.02584381362210332, No Iterations 2
[OGL LOG][Proc: 0]: global_index_init: 0.06 [ms]
[OGL LOG][Proc: 0]Uy_local_coeffs: call_update: 0 [ms]
[OGL LOG][Proc: 0]Uy_non_local_coeffs: call_update: 0 [ms]
[OGL LOG][Proc: 0]Uy: update_local_matrix_data: 76.066 [ms]
[OGL LOG][Proc: 0]Uy: update_non_local_matrix_data: 0.828 [ms]
[OGL LOG][Proc: 0]Uy_matrix: call_update: 1.724 [ms]
[OGL LOG][Proc: 0]Uy_rhs: call_update: 1.565 [ms]
[OGL LOG][Preconditioner.H:121] Generate preconditioner BJ MaxBlockSize 1
[OGL LOG][Proc: 0]Uy: init_precond: 1.005 [ms]
[OGL LOG][StoppingCriterion.H:239] Creating stopping criterion with minIter 4 frequency 1
[OGL LOG][Proc: 0]Uy: generate_solver: 0.014 [ms]
[OGL LOG][Proc: 0]Uy: solve: 62.392 [ms]
[OGL LOG][Proc: 0]Uy: copy_x_back: 3.907 [ms]
[OGL LOG][lduLduBase.H:330] 
Statistics:
	Time per iteration: 20797 [mu s]
	Time per residual norm calculation: 147.000000 [mu s]
	Time per iteration and DOF: 3.297376 [ns]
	Retrieve results bandwidth 3.232000 [GByte/s]
[OGL LOG][Proc: 0]Uy: solve_multi_gpu: 73.05 [ms]
BJcudaGKOBiCGStab:  Solving for Uy, Initial residual = 0.4521977343013323, Final residual = 0.03469986270764801, No Iterations 3
[OGL LOG][Proc: 0]: global_index_init: 0.02 [ms]
[OGL LOG][Proc: 0]Uz_local_coeffs: call_update: 0 [ms]
[OGL LOG][Proc: 0]Uz_non_local_coeffs: call_update: 0 [ms]
[OGL LOG][Proc: 0]Uz: update_local_matrix_data: 76.114 [ms]
[OGL LOG][Proc: 0]Uz: update_non_local_matrix_data: 0.777 [ms]
[OGL LOG][Proc: 0]Uz_matrix: call_update: 1.788 [ms]
[OGL LOG][Proc: 0]Uz_rhs: call_update: 1.534 [ms]
[OGL LOG][Preconditioner.H:121] Generate preconditioner BJ MaxBlockSize 1
[OGL LOG][Proc: 0]Uz: init_precond: 1.262 [ms]
[OGL LOG][StoppingCriterion.H:239] Creating stopping criterion with minIter 3 frequency 1
[OGL LOG][Proc: 0]Uz: generate_solver: 0.015 [ms]
[OGL LOG][Proc: 0]Uz: solve: 62.499 [ms]
[OGL LOG][Proc: 0]Uz: copy_x_back: 4.292 [ms]
[OGL LOG][lduLduBase.H:330] 
Statistics:
	Time per iteration: 20833 [mu s]
	Time per residual norm calculation: 139.000000 [mu s]
	Time per iteration and DOF: 3.303084 [ns]
	Retrieve results bandwidth 2.942000 [GByte/s]
[OGL LOG][Proc: 0]Uz: solve_multi_gpu: 73.929 [ms]
BJcudaGKOBiCGStab:  Solving for Uz, Initial residual = 0.5689316021418507, Final residual = 0.0408212242065071, No Iterations 3
[OGL LOG][Proc: 0]: global_index_init: 0.015 [ms]
[OGL LOG][Proc: 0]p_local_coeffs: call_update: 0 [ms]
[OGL LOG][Proc: 0]p_non_local_coeffs: call_update: 0 [ms]
[OGL LOG][Proc: 0]p: update_local_matrix_data: 58.41 [ms]
[OGL LOG][Proc: 0]p: update_non_local_matrix_data: 0.8110000000000001 [ms]
[OGL LOG][Proc: 0]p_matrix: call_update: 1.392 [ms]
[OGL LOG][Proc: 0]p_rhs: call_update: 1.776 [ms]
[OGL LOG][Preconditioner.H:346] Generate preconditioner Multigrid MaxLevels 9 MinCoarseRows 10 ZeroGuess 1 Cycle v
[OGL LOG][Proc: 0]p: init_precond: 340.348 [ms]
[OGL LOG][StoppingCriterion.H:239] Creating stopping criterion with minIter 33 frequency 1
[OGL LOG][Proc: 0]p: generate_solver: 0.008999999999999999 [ms]
[OGL LOG][Proc: 0]p: solve: 463.011 [ms]
[OGL LOG][Proc: 0]p: copy_x_back: 4.056 [ms]
[OGL LOG][lduLduBase.H:330] 
Statistics:
	Time per iteration: 5383 [mu s]
	Time per residual norm calculation: 134.000000 [mu s]
	Time per iteration and DOF: 0.853478 [ns]
	Retrieve results bandwidth 3.113000 [GByte/s]
[OGL LOG][Proc: 0]p: solve_multi_gpu: 828.321 [ms]
MultigridcudaGKOCG:  Solving for p, Initial residual = 0.2740699173276975, Final residual = 0.002541321891104794, No Iterations 86
time step continuity errors : sum local = 0.03705600901326497, global = -0.001226216864457148, cumulative = 0.005233394604458674
[OGL LOG][Proc: 0]: global_index_init: 0.017 [ms]
[OGL LOG][Proc: 0]nuTilda_local_coeffs: call_update: 0 [ms]
[OGL LOG][Proc: 0]nuTilda_non_local_coeffs: call_update: 0 [ms]
[OGL LOG][Proc: 0]nuTilda: update_local_matrix_data: 71.45699999999999 [ms]
[OGL LOG][Proc: 0]nuTilda: update_non_local_matrix_data: 0.838 [ms]
[OGL LOG][Proc: 0]nuTilda_matrix: call_update: 1.298 [ms]
[OGL LOG][Proc: 0]nuTilda_rhs: call_update: 1.996 [ms]
[OGL LOG][Preconditioner.H:121] Generate preconditioner BJ MaxBlockSize 1
[OGL LOG][Proc: 0]nuTilda: init_precond: 1.012 [ms]
[OGL LOG][StoppingCriterion.H:239] Creating stopping criterion with minIter 3 frequency 1
[OGL LOG][Proc: 0]nuTilda: generate_solver: 0.014 [ms]
[OGL LOG][Proc: 0]nuTilda: solve: 62.5 [ms]
[OGL LOG][Proc: 0]nuTilda: copy_x_back: 4.077 [ms]
[OGL LOG][lduLduBase.H:330] 
Statistics:
	Time per iteration: 31250 [mu s]
	Time per residual norm calculation: 138.000000 [mu s]
	Time per iteration and DOF: 4.954705 [ns]
	Retrieve results bandwidth 3.097000 [GByte/s]
[OGL LOG][Proc: 0]nuTilda: solve_multi_gpu: 76.886 [ms]
BJcudaGKOBiCGStab:  Solving for nuTilda, Initial residual = 0.09077141677454079, Final residual = 0.004897714021226261, No Iterations 2
ExecutionTime = 306.05 s  ClockTime = 307 s

Time = 6

velocityDampingConstraint velocityDamping damped 237 (0%) of cells, with max limit 300
[OGL LOG][Proc: 0]: global_index_init: 0.017 [ms]
[OGL LOG][Proc: 0]Ux_local_coeffs: call_update: 0 [ms]
[OGL LOG][Proc: 0]Ux_non_local_coeffs: call_update: 0 [ms]
[OGL LOG][Proc: 0]Ux: update_local_matrix_data: 76.464 [ms]
[OGL LOG][Proc: 0]Ux: update_non_local_matrix_data: 0.8090000000000001 [ms]
[OGL LOG][Proc: 0]Ux_matrix: call_update: 1.763 [ms]
[OGL LOG][Proc: 0]Ux_rhs: call_update: 1.792 [ms]
[OGL LOG][Preconditioner.H:121] Generate preconditioner BJ MaxBlockSize 1
[OGL LOG][Proc: 0]Ux: init_precond: 1.01 [ms]
[OGL LOG][StoppingCriterion.H:239] Creating stopping criterion with minIter 3 frequency 1
[OGL LOG][Proc: 0]Ux: generate_solver: 0.014 [ms]
[OGL LOG][Proc: 0]Ux: solve: 66.79900000000001 [ms]
[OGL LOG][Proc: 0]Ux: copy_x_back: 3.676 [ms]
[OGL LOG][lduLduBase.H:330] 
Statistics:
	Time per iteration: 22266 [mu s]
	Time per residual norm calculation: 143.000000 [mu s]
	Time per iteration and DOF: 3.530287 [ns]
	Retrieve results bandwidth 3.435000 [GByte/s]
[OGL LOG][Proc: 0]Ux: solve_multi_gpu: 76.744 [ms]
BJcudaGKOBiCGStab:  Solving for Ux, Initial residual = 0.2039061663737463, Final residual = 0.01685153080868674, No Iterations 3
[OGL LOG][Proc: 0]: global_index_init: 0.109 [ms]
[OGL LOG][Proc: 0]Uy_local_coeffs: call_update: 0 [ms]
[OGL LOG][Proc: 0]Uy_non_local_coeffs: call_update: 0 [ms]
[OGL LOG][Proc: 0]Uy: update_local_matrix_data: 76.771 [ms]
[OGL LOG][Proc: 0]Uy: update_non_local_matrix_data: 0.8139999999999999 [ms]
[OGL LOG][Proc: 0]Uy_matrix: call_update: 1.414 [ms]
[OGL LOG][Proc: 0]Uy_rhs: call_update: 1.797 [ms]
[OGL LOG][Preconditioner.H:121] Generate preconditioner BJ MaxBlockSize 1
[OGL LOG][Proc: 0]Uy: init_precond: 0.899 [ms]
[OGL LOG][StoppingCriterion.H:239] Creating stopping criterion with minIter 4 frequency 1
[OGL LOG][Proc: 0]Uy: generate_solver: 0.021 [ms]
[OGL LOG][Proc: 0]Uy: solve: 62.407 [ms]
[OGL LOG][Proc: 0]Uy: copy_x_back: 4.007 [ms]
[OGL LOG][lduLduBase.H:330] 
Statistics:
	Time per iteration: 20802 [mu s]
	Time per residual norm calculation: 160.000000 [mu s]
	Time per iteration and DOF: 3.298169 [ns]
	Retrieve results bandwidth 3.152000 [GByte/s]
[OGL LOG][Proc: 0]Uy: solve_multi_gpu: 82.319 [ms]
BJcudaGKOBiCGStab:  Solving for Uy, Initial residual = 0.3815845989892613, Final residual = 0.02948759636506226, No Iterations 3
[OGL LOG][Proc: 0]: global_index_init: 0.01 [ms]
[OGL LOG][Proc: 0]Uz_local_coeffs: call_update: 0 [ms]
[OGL LOG][Proc: 0]Uz_non_local_coeffs: call_update: 0 [ms]
[OGL LOG][Proc: 0]Uz: update_local_matrix_data: 76.82599999999999 [ms]
[OGL LOG][Proc: 0]Uz: update_non_local_matrix_data: 0.856 [ms]
[OGL LOG][Proc: 0]Uz_matrix: call_update: 1.734 [ms]
[OGL LOG][Proc: 0]Uz_rhs: call_update: 1.485 [ms]
[OGL LOG][Preconditioner.H:121] Generate preconditioner BJ MaxBlockSize 1
[OGL LOG][Proc: 0]Uz: init_precond: 0.983 [ms]
[OGL LOG][StoppingCriterion.H:239] Creating stopping criterion with minIter 4 frequency 1
[OGL LOG][Proc: 0]Uz: generate_solver: 0.014 [ms]
[OGL LOG][Proc: 0]Uz: solve: 61.064 [ms]
[OGL LOG][Proc: 0]Uz: copy_x_back: 3.985 [ms]
[OGL LOG][lduLduBase.H:330] 
Statistics:
	Time per iteration: 20354 [mu s]
	Time per residual norm calculation: 140.000000 [mu s]
	Time per iteration and DOF: 3.227138 [ns]
	Retrieve results bandwidth 3.169000 [GByte/s]
[OGL LOG][Proc: 0]Uz: solve_multi_gpu: 72.00700000000001 [ms]
BJcudaGKOBiCGStab:  Solving for Uz, Initial residual = 0.3455936272848853, Final residual = 0.02726439754867709, No Iterations 3
[OGL LOG][Proc: 0]: global_index_init: 0.014 [ms]
[OGL LOG][Proc: 0]p_local_coeffs: call_update: 0 [ms]
[OGL LOG][Proc: 0]p_non_local_coeffs: call_update: 0 [ms]
[OGL LOG][Proc: 0]p: update_local_matrix_data: 58.427 [ms]
[OGL LOG][Proc: 0]p: update_non_local_matrix_data: 0.864 [ms]
[OGL LOG][Proc: 0]p_matrix: call_update: 1.667 [ms]
[OGL LOG][Proc: 0]p_rhs: call_update: 1.542 [ms]
[OGL LOG][Preconditioner.H:346] Generate preconditioner Multigrid MaxLevels 9 MinCoarseRows 10 ZeroGuess 1 Cycle v
[OGL LOG][Proc: 0]p: init_precond: 333.906 [ms]
[OGL LOG][StoppingCriterion.H:239] Creating stopping criterion with minIter 51 frequency 1
[OGL LOG][Proc: 0]p: generate_solver: 0.008999999999999999 [ms]
[OGL LOG][Proc: 0]p: solve: 306.545 [ms]
[OGL LOG][Proc: 0]p: copy_x_back: 4.041 [ms]
[OGL LOG][lduLduBase.H:330] 
Statistics:
	Time per iteration: 5474 [mu s]
	Time per residual norm calculation: 153.000000 [mu s]
	Time per iteration and DOF: 0.867906 [ns]
	Retrieve results bandwidth 3.125000 [GByte/s]
[OGL LOG][Proc: 0]p: solve_multi_gpu: 663.76 [ms]
MultigridcudaGKOCG:  Solving for p, Initial residual = 0.4785529727942233, Final residual = 0.004565387752046154, No Iterations 56
time step continuity errors : sum local = 0.03819426520277517, global = -0.005284281713009686, cumulative = -5.088710855101226e-05
[OGL LOG][Proc: 0]: global_index_init: 0.017 [ms]
[OGL LOG][Proc: 0]nuTilda_local_coeffs: call_update: 0 [ms]
[OGL LOG][Proc: 0]nuTilda_non_local_coeffs: call_update: 0 [ms]
[OGL LOG][Proc: 0]nuTilda: update_local_matrix_data: 70.64 [ms]
[OGL LOG][Proc: 0]nuTilda: update_non_local_matrix_data: 0.827 [ms]
[OGL LOG][Proc: 0]nuTilda_matrix: call_update: 1.372 [ms]
[OGL LOG][Proc: 0]nuTilda_rhs: call_update: 1.837 [ms]
[OGL LOG][Preconditioner.H:121] Generate preconditioner BJ MaxBlockSize 1
[OGL LOG][Proc: 0]nuTilda: init_precond: 1.088 [ms]
[OGL LOG][StoppingCriterion.H:239] Creating stopping criterion with minIter 3 frequency 1
[OGL LOG][Proc: 0]nuTilda: generate_solver: 0.014 [ms]
[OGL LOG][Proc: 0]nuTilda: solve: 61.431 [ms]
[OGL LOG][Proc: 0]nuTilda: copy_x_back: 3.991 [ms]
[OGL LOG][lduLduBase.H:330] 
Statistics:
	Time per iteration: 30715 [mu s]
	Time per residual norm calculation: 138.000000 [mu s]
	Time per iteration and DOF: 4.869881 [ns]
	Retrieve results bandwidth 3.164000 [GByte/s]
[OGL LOG][Proc: 0]nuTilda: solve_multi_gpu: 75.027 [ms]
BJcudaGKOBiCGStab:  Solving for nuTilda, Initial residual = 0.06194050636543025, Final residual = 0.003656242603088124, No Iterations 2
ExecutionTime = 312.87 s  ClockTime = 314 s

Time = 7

velocityDampingConstraint velocityDamping damped 784 (0.01%) of cells, with max limit 300
[OGL LOG][Proc: 0]: global_index_init: 0.016 [ms]
[OGL LOG][Proc: 0]Ux_local_coeffs: call_update: 0 [ms]
[OGL LOG][Proc: 0]Ux_non_local_coeffs: call_update: 0 [ms]
[OGL LOG][Proc: 0]Ux: update_local_matrix_data: 79.354 [ms]
[OGL LOG][Proc: 0]Ux: update_non_local_matrix_data: 0.781 [ms]
[OGL LOG][Proc: 0]Ux_matrix: call_update: 3.045 [ms]
[OGL LOG][Proc: 0]Ux_rhs: call_update: 1.614 [ms]
[OGL LOG][Preconditioner.H:121] Generate preconditioner BJ MaxBlockSize 1
[OGL LOG][Proc: 0]Ux: init_precond: 1.923 [ms]
[OGL LOG][StoppingCriterion.H:239] Creating stopping criterion with minIter 4 frequency 1
[OGL LOG][Proc: 0]Ux: generate_solver: 0.015 [ms]
[OGL LOG][Proc: 0]Ux: solve: 81.346 [ms]
[OGL LOG][Proc: 0]Ux: copy_x_back: 3.885 [ms]
[OGL LOG][lduLduBase.H:330] 
Statistics:
	Time per iteration: 27115 [mu s]
	Time per residual norm calculation: 136.000000 [mu s]
	Time per iteration and DOF: 4.299099 [ns]
	Retrieve results bandwidth 3.250000 [GByte/s]
[OGL LOG][Proc: 0]Ux: solve_multi_gpu: 96.248 [ms]
BJcudaGKOBiCGStab:  Solving for Ux, Initial residual = 0.2291608288062663, Final residual = 0.02088632718738215, No Iterations 3
[OGL LOG][Proc: 0]: global_index_init: 0.035 [ms]
[OGL LOG][Proc: 0]Uy_local_coeffs: call_update: 0 [ms]
[OGL LOG][Proc: 0]Uy_non_local_coeffs: call_update: 0 [ms]
[OGL LOG][Proc: 0]Uy: update_local_matrix_data: 75.85299999999999 [ms]
[OGL LOG][Proc: 0]Uy: update_non_local_matrix_data: 0.765 [ms]
[OGL LOG][Proc: 0]Uy_matrix: call_update: 1.851 [ms]
[OGL LOG][Proc: 0]Uy_rhs: call_update: 3.234 [ms]
[OGL LOG][Preconditioner.H:121] Generate preconditioner BJ MaxBlockSize 1
[OGL LOG][Proc: 0]Uy: init_precond: 1.025 [ms]
[OGL LOG][StoppingCriterion.H:239] Creating stopping criterion with minIter 3 frequency 1
[OGL LOG][Proc: 0]Uy: generate_solver: 0.015 [ms]
[OGL LOG][Proc: 0]Uy: solve: 69.464 [ms]
[OGL LOG][Proc: 0]Uy: copy_x_back: 3.956 [ms]
[OGL LOG][lduLduBase.H:330] 
Statistics:
	Time per iteration: 23154 [mu s]
	Time per residual norm calculation: 136.000000 [mu s]
	Time per iteration and DOF: 3.671080 [ns]
	Retrieve results bandwidth 3.192000 [GByte/s]
[OGL LOG][Proc: 0]Uy: solve_multi_gpu: 82.105 [ms]
BJcudaGKOBiCGStab:  Solving for Uy, Initial residual = 0.2610361284089405, Final residual = 0.0205306916030909, No Iterations 3
[OGL LOG][Proc: 0]: global_index_init: 0.011 [ms]
[OGL LOG][Proc: 0]Uz_local_coeffs: call_update: 0 [ms]
[OGL LOG][Proc: 0]Uz_non_local_coeffs: call_update: 0 [ms]
[OGL LOG][Proc: 0]Uz: update_local_matrix_data: 75.583 [ms]
[OGL LOG][Proc: 0]Uz: update_non_local_matrix_data: 0.8129999999999999 [ms]
[OGL LOG][Proc: 0]Uz_matrix: call_update: 1.797 [ms]
[OGL LOG][Proc: 0]Uz_rhs: call_update: 1.666 [ms]
[OGL LOG][Preconditioner.H:121] Generate preconditioner BJ MaxBlockSize 1
[OGL LOG][Proc: 0]Uz: init_precond: 0.99 [ms]
[OGL LOG][StoppingCriterion.H:239] Creating stopping criterion with minIter 4 frequency 1
[OGL LOG][Proc: 0]Uz: generate_solver: 0.016 [ms]
[OGL LOG][Proc: 0]Uz: solve: 61.341 [ms]
[OGL LOG][Proc: 0]Uz: copy_x_back: 3.748 [ms]
[OGL LOG][lduLduBase.H:330] 
Statistics:
	Time per iteration: 15335 [mu s]
	Time per residual norm calculation: 139.000000 [mu s]
	Time per iteration and DOF: 2.431373 [ns]
	Retrieve results bandwidth 3.369000 [GByte/s]
[OGL LOG][Proc: 0]Uz: solve_multi_gpu: 71.22 [ms]
BJcudaGKOBiCGStab:  Solving for Uz, Initial residual = 0.210930000531495, Final residual = 0.01839908885564936, No Iterations 4
[OGL LOG][Proc: 0]: global_index_init: 0.026 [ms]
[OGL LOG][Proc: 0]p_local_coeffs: call_update: 0 [ms]
[OGL LOG][Proc: 0]p_non_local_coeffs: call_update: 0 [ms]
[OGL LOG][Proc: 0]p: update_local_matrix_data: 57.896 [ms]
[OGL LOG][Proc: 0]p: update_non_local_matrix_data: 0.8169999999999999 [ms]
[OGL LOG][Proc: 0]p_matrix: call_update: 1.761 [ms]
[OGL LOG][Proc: 0]p_rhs: call_update: 1.55 [ms]
[OGL LOG][Preconditioner.H:346] Generate preconditioner Multigrid MaxLevels 9 MinCoarseRows 10 ZeroGuess 1 Cycle v
[OGL LOG][Proc: 0]p: init_precond: 329.705 [ms]
[OGL LOG][StoppingCriterion.H:239] Creating stopping criterion with minIter 33 frequency 1
[OGL LOG][Proc: 0]p: generate_solver: 0.008999999999999999 [ms]
[OGL LOG][Proc: 0]p: solve: 389.417 [ms]
[OGL LOG][Proc: 0]p: copy_x_back: 4.01 [ms]
[OGL LOG][lduLduBase.H:330] 
Statistics:
	Time per iteration: 5484 [mu s]
	Time per residual norm calculation: 146.000000 [mu s]
	Time per iteration and DOF: 0.869491 [ns]
	Retrieve results bandwidth 3.149000 [GByte/s]
[OGL LOG][Proc: 0]p: solve_multi_gpu: 741.857 [ms]
MultigridcudaGKOCG:  Solving for p, Initial residual = 0.1880639394245296, Final residual = 0.001837444733877224, No Iterations 71
time step continuity errors : sum local = 0.02113442929752385, global = -2.931611203233738e-05, cumulative = -8.020322058334965e-05
[OGL LOG][Proc: 0]: global_index_init: 0.017 [ms]
[OGL LOG][Proc: 0]nuTilda_local_coeffs: call_update: 0 [ms]
[OGL LOG][Proc: 0]nuTilda_non_local_coeffs: call_update: 0 [ms]
[OGL LOG][Proc: 0]nuTilda: update_local_matrix_data: 71.173 [ms]
[OGL LOG][Proc: 0]nuTilda: update_non_local_matrix_data: 0.796 [ms]
[OGL LOG][Proc: 0]nuTilda_matrix: call_update: 1.909 [ms]
[OGL LOG][Proc: 0]nuTilda_rhs: call_update: 1.467 [ms]
[OGL LOG][Preconditioner.H:121] Generate preconditioner BJ MaxBlockSize 1
[OGL LOG][Proc: 0]nuTilda: init_precond: 1.018 [ms]
[OGL LOG][StoppingCriterion.H:239] Creating stopping criterion with minIter 3 frequency 1
[OGL LOG][Proc: 0]nuTilda: generate_solver: 0.018 [ms]
[OGL LOG][Proc: 0]nuTilda: solve: 60.465 [ms]
[OGL LOG][Proc: 0]nuTilda: copy_x_back: 4.186 [ms]
[OGL LOG][lduLduBase.H:330] 
Statistics:
	Time per iteration: 30232 [mu s]
	Time per residual norm calculation: 157.000000 [mu s]
	Time per iteration and DOF: 4.793301 [ns]
	Retrieve results bandwidth 3.017000 [GByte/s]
[OGL LOG][Proc: 0]nuTilda: solve_multi_gpu: 71.629 [ms]
BJcudaGKOBiCGStab:  Solving for nuTilda, Initial residual = 0.05052970393223281, Final residual = 0.002937411638930916, No Iterations 2
ExecutionTime = 319.66 s  ClockTime = 321 s

Time = 8

velocityDampingConstraint velocityDamping damped 445 (0.01%) of cells, with max limit 300
[OGL LOG][Proc: 0]: global_index_init: 0.015 [ms]
[OGL LOG][Proc: 0]Ux_local_coeffs: call_update: 0 [ms]
[OGL LOG][Proc: 0]Ux_non_local_coeffs: call_update: 0 [ms]
[OGL LOG][Proc: 0]Ux: update_local_matrix_data: 76.087 [ms]
[OGL LOG][Proc: 0]Ux: update_non_local_matrix_data: 0.863 [ms]
[OGL LOG][Proc: 0]Ux_matrix: call_update: 1.676 [ms]
[OGL LOG][Proc: 0]Ux_rhs: call_update: 1.808 [ms]
[OGL LOG][Preconditioner.H:121] Generate preconditioner BJ MaxBlockSize 1
[OGL LOG][Proc: 0]Ux: init_precond: 0.968 [ms]
[OGL LOG][StoppingCriterion.H:239] Creating stopping criterion with minIter 4 frequency 1
[OGL LOG][Proc: 0]Ux: generate_solver: 0.014 [ms]
[OGL LOG][Proc: 0]Ux: solve: 64.664 [ms]
[OGL LOG][Proc: 0]Ux: copy_x_back: 3.923 [ms]
[OGL LOG][lduLduBase.H:330] 
Statistics:
	Time per iteration: 21554 [mu s]
	Time per residual norm calculation: 150.000000 [mu s]
	Time per iteration and DOF: 3.417399 [ns]
	Retrieve results bandwidth 3.219000 [GByte/s]
[OGL LOG][Proc: 0]Ux: solve_multi_gpu: 74.878 [ms]
BJcudaGKOBiCGStab:  Solving for Ux, Initial residual = 0.2229313406510031, Final residual = 0.01578189796377619, No Iterations 3
[OGL LOG][Proc: 0]: global_index_init: 0.043 [ms]
[OGL LOG][Proc: 0]Uy_local_coeffs: call_update: 0 [ms]
[OGL LOG][Proc: 0]Uy_non_local_coeffs: call_update: 0 [ms]
[OGL LOG][Proc: 0]Uy: update_local_matrix_data: 76.488 [ms]
[OGL LOG][Proc: 0]Uy: update_non_local_matrix_data: 0.837 [ms]
[OGL LOG][Proc: 0]Uy_matrix: call_update: 1.756 [ms]
[OGL LOG][Proc: 0]Uy_rhs: call_update: 1.534 [ms]
[OGL LOG][Preconditioner.H:121] Generate preconditioner BJ MaxBlockSize 1
[OGL LOG][Proc: 0]Uy: init_precond: 0.916 [ms]
[OGL LOG][StoppingCriterion.H:239] Creating stopping criterion with minIter 4 frequency 1
[OGL LOG][Proc: 0]Uy: generate_solver: 0.015 [ms]
[OGL LOG][Proc: 0]Uy: solve: 60.159 [ms]
[OGL LOG][Proc: 0]Uy: copy_x_back: 3.875 [ms]
[OGL LOG][lduLduBase.H:330] 
Statistics:
	Time per iteration: 20053 [mu s]
	Time per residual norm calculation: 146.000000 [mu s]
	Time per iteration and DOF: 3.179415 [ns]
	Retrieve results bandwidth 3.259000 [GByte/s]
[OGL LOG][Proc: 0]Uy: solve_multi_gpu: 71.02 [ms]
BJcudaGKOBiCGStab:  Solving for Uy, Initial residual = 0.2995606151833908, Final residual = 0.02096367249224042, No Iterations 3
[OGL LOG][Proc: 0]: global_index_init: 0.013 [ms]
[OGL LOG][Proc: 0]Uz_local_coeffs: call_update: 0 [ms]
[OGL LOG][Proc: 0]Uz_non_local_coeffs: call_update: 0 [ms]
[OGL LOG][Proc: 0]Uz: update_local_matrix_data: 73.125 [ms]
[OGL LOG][Proc: 0]Uz: update_non_local_matrix_data: 0.788 [ms]
[OGL LOG][Proc: 0]Uz_matrix: call_update: 1.372 [ms]
[OGL LOG][Proc: 0]Uz_rhs: call_update: 2.069 [ms]
[OGL LOG][Preconditioner.H:121] Generate preconditioner BJ MaxBlockSize 1
[OGL LOG][Proc: 0]Uz: init_precond: 1.03 [ms]
[OGL LOG][StoppingCriterion.H:239] Creating stopping criterion with minIter 4 frequency 1
[OGL LOG][Proc: 0]Uz: generate_solver: 0.017 [ms]
[OGL LOG][Proc: 0]Uz: solve: 59.054 [ms]
[OGL LOG][Proc: 0]Uz: copy_x_back: 4.03 [ms]
[OGL LOG][lduLduBase.H:330] 
Statistics:
	Time per iteration: 19684 [mu s]
	Time per residual norm calculation: 158.000000 [mu s]
	Time per iteration and DOF: 3.120909 [ns]
	Retrieve results bandwidth 3.134000 [GByte/s]
[OGL LOG][Proc: 0]Uz: solve_multi_gpu: 71.94799999999999 [ms]
BJcudaGKOBiCGStab:  Solving for Uz, Initial residual = 0.2543825776959384, Final residual = 0.0232978874795381, No Iterations 3
[OGL LOG][Proc: 0]: global_index_init: 0.014 [ms]
[OGL LOG][Proc: 0]p_local_coeffs: call_update: 0 [ms]
[OGL LOG][Proc: 0]p_non_local_coeffs: call_update: 0 [ms]
[OGL LOG][Proc: 0]p: update_local_matrix_data: 58.605 [ms]
[OGL LOG][Proc: 0]p: update_non_local_matrix_data: 0.773 [ms]
[OGL LOG][Proc: 0]p_matrix: call_update: 1.706 [ms]
[OGL LOG][Proc: 0]p_rhs: call_update: 1.793 [ms]
[OGL LOG][Preconditioner.H:346] Generate preconditioner Multigrid MaxLevels 9 MinCoarseRows 10 ZeroGuess 1 Cycle v
[OGL LOG][Proc: 0]p: init_precond: 338.205 [ms]
[OGL LOG][StoppingCriterion.H:239] Creating stopping criterion with minIter 42 frequency 1
[OGL LOG][Proc: 0]p: generate_solver: 0.008999999999999999 [ms]
[OGL LOG][Proc: 0]p: solve: 439.855 [ms]
[OGL LOG][Proc: 0]p: copy_x_back: 4.522 [ms]
[OGL LOG][lduLduBase.H:330] 
Statistics:
	Time per iteration: 5055 [mu s]
	Time per residual norm calculation: 140.000000 [mu s]
	Time per iteration and DOF: 0.801473 [ns]
	Retrieve results bandwidth 2.793000 [GByte/s]
[OGL LOG][Proc: 0]p: solve_multi_gpu: 801.947 [ms]
MultigridcudaGKOCG:  Solving for p, Initial residual = 0.2710401672050556, Final residual = 0.002634589359366628, No Iterations 87
time step continuity errors : sum local = 0.02298226741723919, global = 0.0008115654180957458, cumulative = 0.0007313621975123961
[OGL LOG][Proc: 0]: global_index_init: 0.015 [ms]
[OGL LOG][Proc: 0]nuTilda_local_coeffs: call_update: 0 [ms]
[OGL LOG][Proc: 0]nuTilda_non_local_coeffs: call_update: 0 [ms]
[OGL LOG][Proc: 0]nuTilda: update_local_matrix_data: 75.45099999999999 [ms]
[OGL LOG][Proc: 0]nuTilda: update_non_local_matrix_data: 0.863 [ms]
[OGL LOG][Proc: 0]nuTilda_matrix: call_update: 1.593 [ms]
[OGL LOG][Proc: 0]nuTilda_rhs: call_update: 1.597 [ms]
[OGL LOG][Preconditioner.H:121] Generate preconditioner BJ MaxBlockSize 1
[OGL LOG][Proc: 0]nuTilda: init_precond: 1.076 [ms]
[OGL LOG][StoppingCriterion.H:239] Creating stopping criterion with minIter 3 frequency 1
[OGL LOG][Proc: 0]nuTilda: generate_solver: 0.021 [ms]
[OGL LOG][Proc: 0]nuTilda: solve: 60.352 [ms]
[OGL LOG][Proc: 0]nuTilda: copy_x_back: 4.111 [ms]
[OGL LOG][lduLduBase.H:330] 
Statistics:
	Time per iteration: 30176 [mu s]
	Time per residual norm calculation: 138.000000 [mu s]
	Time per iteration and DOF: 4.784422 [ns]
	Retrieve results bandwidth 3.072000 [GByte/s]
[OGL LOG][Proc: 0]nuTilda: solve_multi_gpu: 71.367 [ms]
BJcudaGKOBiCGStab:  Solving for nuTilda, Initial residual = 0.0396026295635521, Final residual = 0.002109463669113716, No Iterations 2
ExecutionTime = 326.47 s  ClockTime = 328 s

Time = 9

velocityDampingConstraint velocityDamping damped 42 (0%) of cells, with max limit 300
[OGL LOG][Proc: 0]: global_index_init: 0.018 [ms]
[OGL LOG][Proc: 0]Ux_local_coeffs: call_update: 0 [ms]
[OGL LOG][Proc: 0]Ux_non_local_coeffs: call_update: 0 [ms]
[OGL LOG][Proc: 0]Ux: update_local_matrix_data: 77.291 [ms]
[OGL LOG][Proc: 0]Ux: update_non_local_matrix_data: 0.8169999999999999 [ms]
[OGL LOG][Proc: 0]Ux_matrix: call_update: 1.675 [ms]
[OGL LOG][Proc: 0]Ux_rhs: call_update: 1.851 [ms]
[OGL LOG][Preconditioner.H:121] Generate preconditioner BJ MaxBlockSize 1
[OGL LOG][Proc: 0]Ux: init_precond: 0.998 [ms]
[OGL LOG][StoppingCriterion.H:239] Creating stopping criterion with minIter 4 frequency 1
[OGL LOG][Proc: 0]Ux: generate_solver: 0.015 [ms]
[OGL LOG][Proc: 0]Ux: solve: 66.51600000000001 [ms]
[OGL LOG][Proc: 0]Ux: copy_x_back: 4.26 [ms]
[OGL LOG][lduLduBase.H:330] 
Statistics:
	Time per iteration: 16629 [mu s]
	Time per residual norm calculation: 143.000000 [mu s]
	Time per iteration and DOF: 2.636537 [ns]
	Retrieve results bandwidth 2.964000 [GByte/s]
[OGL LOG][Proc: 0]Ux: solve_multi_gpu: 77.768 [ms]
BJcudaGKOBiCGStab:  Solving for Ux, Initial residual = 0.07967748588218414, Final residual = 0.003109555638605762, No Iterations 4
[OGL LOG][Proc: 0]: global_index_init: 0.03 [ms]
[OGL LOG][Proc: 0]Uy_local_coeffs: call_update: 0 [ms]
[OGL LOG][Proc: 0]Uy_non_local_coeffs: call_update: 0 [ms]
[OGL LOG][Proc: 0]Uy: update_local_matrix_data: 77.40300000000001 [ms]
[OGL LOG][Proc: 0]Uy: update_non_local_matrix_data: 0.762 [ms]
[OGL LOG][Proc: 0]Uy_matrix: call_update: 1.74 [ms]
[OGL LOG][Proc: 0]Uy_rhs: call_update: 1.514 [ms]
[OGL LOG][Preconditioner.H:121] Generate preconditioner BJ MaxBlockSize 1
[OGL LOG][Proc: 0]Uy: init_precond: 1.009 [ms]
[OGL LOG][StoppingCriterion.H:239] Creating stopping criterion with minIter 3 frequency 1
[OGL LOG][Proc: 0]Uy: generate_solver: 0.014 [ms]
[OGL LOG][Proc: 0]Uy: solve: 60.327 [ms]
[OGL LOG][Proc: 0]Uy: copy_x_back: 4.073 [ms]
[OGL LOG][lduLduBase.H:330] 
Statistics:
	Time per iteration: 20109 [mu s]
	Time per residual norm calculation: 145.000000 [mu s]
	Time per iteration and DOF: 3.188293 [ns]
	Retrieve results bandwidth 3.100000 [GByte/s]
[OGL LOG][Proc: 0]Uy: solve_multi_gpu: 71.197 [ms]
BJcudaGKOBiCGStab:  Solving for Uy, Initial residual = 0.1300412282072715, Final residual = 0.01258386181159965, No Iterations 3
[OGL LOG][Proc: 0]: global_index_init: 0.022 [ms]
[OGL LOG][Proc: 0]Uz_local_coeffs: call_update: 0 [ms]
[OGL LOG][Proc: 0]Uz_non_local_coeffs: call_update: 0 [ms]
[OGL LOG][Proc: 0]Uz: update_local_matrix_data: 76.59 [ms]
[OGL LOG][Proc: 0]Uz: update_non_local_matrix_data: 0.781 [ms]
[OGL LOG][Proc: 0]Uz_matrix: call_update: 1.724 [ms]
[OGL LOG][Proc: 0]Uz_rhs: call_update: 1.555 [ms]
[OGL LOG][Preconditioner.H:121] Generate preconditioner BJ MaxBlockSize 1
[OGL LOG][Proc: 0]Uz: init_precond: 1.01 [ms]
[OGL LOG][StoppingCriterion.H:239] Creating stopping criterion with minIter 3 frequency 1
[OGL LOG][Proc: 0]Uz: generate_solver: 0.015 [ms]
[OGL LOG][Proc: 0]Uz: solve: 60.476 [ms]
[OGL LOG][Proc: 0]Uz: copy_x_back: 4.04 [ms]
[OGL LOG][lduLduBase.H:330] 
Statistics:
	Time per iteration: 20158 [mu s]
	Time per residual norm calculation: 141.000000 [mu s]
	Time per iteration and DOF: 3.196062 [ns]
	Retrieve results bandwidth 3.126000 [GByte/s]
[OGL LOG][Proc: 0]Uz: solve_multi_gpu: 71.315 [ms]
BJcudaGKOBiCGStab:  Solving for Uz, Initial residual = 0.1067406990199065, Final residual = 0.008966462619590101, No Iterations 3
[OGL LOG][Proc: 0]: global_index_init: 0.014 [ms]
[OGL LOG][Proc: 0]p_local_coeffs: call_update: 0 [ms]
[OGL LOG][Proc: 0]p_non_local_coeffs: call_update: 0 [ms]
[OGL LOG][Proc: 0]p: update_local_matrix_data: 58.027 [ms]
[OGL LOG][Proc: 0]p: update_non_local_matrix_data: 0.855 [ms]
[OGL LOG][Proc: 0]p_matrix: call_update: 1.666 [ms]
[OGL LOG][Proc: 0]p_rhs: call_update: 1.522 [ms]
[OGL LOG][Preconditioner.H:346] Generate preconditioner Multigrid MaxLevels 9 MinCoarseRows 10 ZeroGuess 1 Cycle v
[OGL LOG][Proc: 0]p: init_precond: 337.096 [ms]
[OGL LOG][StoppingCriterion.H:239] Creating stopping criterion with minIter 52 frequency 1
[OGL LOG][Proc: 0]p: generate_solver: 0.012 [ms]
[OGL LOG][Proc: 0]p: solve: 445.906 [ms]
[OGL LOG][Proc: 0]p: copy_x_back: 4.209 [ms]
[OGL LOG][lduLduBase.H:330] 
Statistics:
	Time per iteration: 5125 [mu s]
	Time per residual norm calculation: 135.000000 [mu s]
	Time per iteration and DOF: 0.812572 [ns]
	Retrieve results bandwidth 3.000000 [GByte/s]
[OGL LOG][Proc: 0]p: solve_multi_gpu: 806.288 [ms]
MultigridcudaGKOCG:  Solving for p, Initial residual = 0.542209757617458, Final residual = 0.00504321531649581, No Iterations 87
time step continuity errors : sum local = 0.01951389817840699, global = 0.000520114164039228, cumulative = 0.001251476361551624
[OGL LOG][Proc: 0]: global_index_init: 0.036 [ms]
[OGL LOG][Proc: 0]nuTilda_local_coeffs: call_update: 0 [ms]
[OGL LOG][Proc: 0]nuTilda_non_local_coeffs: call_update: 0 [ms]
[OGL LOG][Proc: 0]nuTilda: update_local_matrix_data: 70.331 [ms]
[OGL LOG][Proc: 0]nuTilda: update_non_local_matrix_data: 0.822 [ms]
[OGL LOG][Proc: 0]nuTilda_matrix: call_update: 1.846 [ms]
[OGL LOG][Proc: 0]nuTilda_rhs: call_update: 1.56 [ms]
[OGL LOG][Preconditioner.H:121] Generate preconditioner BJ MaxBlockSize 1
[OGL LOG][Proc: 0]nuTilda: init_precond: 1.026 [ms]
[OGL LOG][StoppingCriterion.H:239] Creating stopping criterion with minIter 3 frequency 1
[OGL LOG][Proc: 0]nuTilda: generate_solver: 0.014 [ms]
[OGL LOG][Proc: 0]nuTilda: solve: 60.451 [ms]
[OGL LOG][Proc: 0]nuTilda: copy_x_back: 4.059 [ms]
[OGL LOG][lduLduBase.H:330] 
Statistics:
	Time per iteration: 30225 [mu s]
	Time per residual norm calculation: 146.000000 [mu s]
	Time per iteration and DOF: 4.792191 [ns]
	Retrieve results bandwidth 3.111000 [GByte/s]
[OGL LOG][Proc: 0]nuTilda: solve_multi_gpu: 71.53100000000001 [ms]
BJcudaGKOBiCGStab:  Solving for nuTilda, Initial residual = 0.03453952643075816, Final residual = 0.002059480205049913, No Iterations 2
ExecutionTime = 333.26 s  ClockTime = 335 s

Time = 10

velocityDampingConstraint velocityDamping damped 115 (0%) of cells, with max limit 300
[OGL LOG][Proc: 0]: global_index_init: 0.013 [ms]
[OGL LOG][Proc: 0]Ux_local_coeffs: call_update: 0 [ms]
[OGL LOG][Proc: 0]Ux_non_local_coeffs: call_update: 0 [ms]
[OGL LOG][Proc: 0]Ux: update_local_matrix_data: 76.395 [ms]
[OGL LOG][Proc: 0]Ux: update_non_local_matrix_data: 0.837 [ms]
[OGL LOG][Proc: 0]Ux_matrix: call_update: 1.729 [ms]
[OGL LOG][Proc: 0]Ux_rhs: call_update: 1.567 [ms]
[OGL LOG][Preconditioner.H:121] Generate preconditioner BJ MaxBlockSize 1
[OGL LOG][Proc: 0]Ux: init_precond: 1.001 [ms]
[OGL LOG][StoppingCriterion.H:239] Creating stopping criterion with minIter 4 frequency 1
[OGL LOG][Proc: 0]Ux: generate_solver: 0.015 [ms]
[OGL LOG][Proc: 0]Ux: solve: 66.898 [ms]
[OGL LOG][Proc: 0]Ux: copy_x_back: 4.074 [ms]
[OGL LOG][lduLduBase.H:330] 
Statistics:
	Time per iteration: 22299 [mu s]
	Time per residual norm calculation: 149.000000 [mu s]
	Time per iteration and DOF: 3.535519 [ns]
	Retrieve results bandwidth 3.100000 [GByte/s]
[OGL LOG][Proc: 0]Ux: solve_multi_gpu: 77.509 [ms]
BJcudaGKOBiCGStab:  Solving for Ux, Initial residual = 0.04013028174144243, Final residual = 0.002851913477929481, No Iterations 3
[OGL LOG][Proc: 0]: global_index_init: 0.015 [ms]
[OGL LOG][Proc: 0]Uy_local_coeffs: call_update: 0 [ms]
[OGL LOG][Proc: 0]Uy_non_local_coeffs: call_update: 0 [ms]
[OGL LOG][Proc: 0]Uy: update_local_matrix_data: 76.79900000000001 [ms]
[OGL LOG][Proc: 0]Uy: update_non_local_matrix_data: 0.842 [ms]
[OGL LOG][Proc: 0]Uy_matrix: call_update: 1.762 [ms]
[OGL LOG][Proc: 0]Uy_rhs: call_update: 1.48 [ms]
[OGL LOG][Preconditioner.H:121] Generate preconditioner BJ MaxBlockSize 1
[OGL LOG][Proc: 0]Uy: init_precond: 0.965 [ms]
[OGL LOG][StoppingCriterion.H:239] Creating stopping criterion with minIter 3 frequency 1
[OGL LOG][Proc: 0]Uy: generate_solver: 0.015 [ms]
[OGL LOG][Proc: 0]Uy: solve: 61.96 [ms]
[OGL LOG][Proc: 0]Uy: copy_x_back: 3.987 [ms]
[OGL LOG][lduLduBase.H:330] 
Statistics:
	Time per iteration: 20653 [mu s]
	Time per residual norm calculation: 141.000000 [mu s]
	Time per iteration and DOF: 3.274545 [ns]
	Retrieve results bandwidth 3.167000 [GByte/s]
[OGL LOG][Proc: 0]Uy: solve_multi_gpu: 72.752 [ms]
BJcudaGKOBiCGStab:  Solving for Uy, Initial residual = 0.1084696660202446, Final residual = 0.01013056683085633, No Iterations 3
[OGL LOG][Proc: 0]: global_index_init: 0.011 [ms]
[OGL LOG][Proc: 0]Uz_local_coeffs: call_update: 0 [ms]
[OGL LOG][Proc: 0]Uz_non_local_coeffs: call_update: 0 [ms]
[OGL LOG][Proc: 0]Uz: update_local_matrix_data: 76.754 [ms]
[OGL LOG][Proc: 0]Uz: update_non_local_matrix_data: 0.8139999999999999 [ms]
[OGL LOG][Proc: 0]Uz_matrix: call_update: 1.763 [ms]
[OGL LOG][Proc: 0]Uz_rhs: call_update: 1.47 [ms]
[OGL LOG][Preconditioner.H:121] Generate preconditioner BJ MaxBlockSize 1
[OGL LOG][Proc: 0]Uz: init_precond: 0.976 [ms]
[OGL LOG][StoppingCriterion.H:239] Creating stopping criterion with minIter 4 frequency 1
[OGL LOG][Proc: 0]Uz: generate_solver: 0.014 [ms]
[OGL LOG][Proc: 0]Uz: solve: 62.833 [ms]
[OGL LOG][Proc: 0]Uz: copy_x_back: 4.348 [ms]
[OGL LOG][lduLduBase.H:330] 
Statistics:
	Time per iteration: 15708 [mu s]
	Time per residual norm calculation: 145.000000 [mu s]
	Time per iteration and DOF: 2.490512 [ns]
	Retrieve results bandwidth 2.904000 [GByte/s]
[OGL LOG][Proc: 0]Uz: solve_multi_gpu: 73.94799999999999 [ms]
BJcudaGKOBiCGStab:  Solving for Uz, Initial residual = 0.09189758933307791, Final residual = 0.003996258174740207, No Iterations 4
[OGL LOG][Proc: 0]: global_index_init: 0.016 [ms]
[OGL LOG][Proc: 0]p_local_coeffs: call_update: 0 [ms]
[OGL LOG][Proc: 0]p_non_local_coeffs: call_update: 0 [ms]
[OGL LOG][Proc: 0]p: update_local_matrix_data: 57.801 [ms]
[OGL LOG][Proc: 0]p: update_non_local_matrix_data: 0.795 [ms]
[OGL LOG][Proc: 0]p_matrix: call_update: 1.699 [ms]
[OGL LOG][Proc: 0]p_rhs: call_update: 1.656 [ms]
[OGL LOG][Preconditioner.H:346] Generate preconditioner Multigrid MaxLevels 9 MinCoarseRows 10 ZeroGuess 1 Cycle v
[OGL LOG][Proc: 0]p: init_precond: 335.028 [ms]
[OGL LOG][StoppingCriterion.H:239] Creating stopping criterion with minIter 52 frequency 1
[OGL LOG][Proc: 0]p: generate_solver: 0.01 [ms]
[OGL LOG][Proc: 0]p: solve: 294.42 [ms]
[OGL LOG][Proc: 0]p: copy_x_back: 4.171 [ms]
[OGL LOG][lduLduBase.H:330] 
Statistics:
	Time per iteration: 5555 [mu s]
	Time per residual norm calculation: 152.000000 [mu s]
	Time per iteration and DOF: 0.880748 [ns]
	Retrieve results bandwidth 3.028000 [GByte/s]
[OGL LOG][Proc: 0]p: solve_multi_gpu: 653.026 [ms]
MultigridcudaGKOCG:  Solving for p, Initial residual = 0.4059271507901682, Final residual = 0.002042412405922894, No Iterations 53
time step continuity errors : sum local = 0.01314536879602301, global = 0.0008287120447519883, cumulative = 0.002080188406303612
[OGL LOG][Proc: 0]: global_index_init: 0.017 [ms]
[OGL LOG][Proc: 0]nuTilda_local_coeffs: call_update: 0 [ms]
[OGL LOG][Proc: 0]nuTilda_non_local_coeffs: call_update: 0 [ms]
[OGL LOG][Proc: 0]nuTilda: update_local_matrix_data: 71.44499999999999 [ms]
[OGL LOG][Proc: 0]nuTilda: update_non_local_matrix_data: 0.8129999999999999 [ms]
[OGL LOG][Proc: 0]nuTilda_matrix: call_update: 1.369 [ms]
[OGL LOG][Proc: 0]nuTilda_rhs: call_update: 1.858 [ms]
[OGL LOG][Preconditioner.H:121] Generate preconditioner BJ MaxBlockSize 1
[OGL LOG][Proc: 0]nuTilda: init_precond: 1.039 [ms]
[OGL LOG][StoppingCriterion.H:239] Creating stopping criterion with minIter 3 frequency 1
[OGL LOG][Proc: 0]nuTilda: generate_solver: 0.014 [ms]
[OGL LOG][Proc: 0]nuTilda: solve: 60.376 [ms]
[OGL LOG][Proc: 0]nuTilda: copy_x_back: 4.217 [ms]
[OGL LOG][lduLduBase.H:330] 
Statistics:
	Time per iteration: 30188 [mu s]
	Time per residual norm calculation: 143.000000 [mu s]
	Time per iteration and DOF: 4.786325 [ns]
	Retrieve results bandwidth 2.995000 [GByte/s]
[OGL LOG][Proc: 0]nuTilda: solve_multi_gpu: 73.986 [ms]
BJcudaGKOBiCGStab:  Solving for nuTilda, Initial residual = 0.02967804799053155, Final residual = 0.001680241356466124, No Iterations 2
ExecutionTime = 339.88 s  ClockTime = 341 s

Time = 11

velocityDampingConstraint velocityDamping damped 75 (0%) of cells, with max limit 300
[OGL LOG][Proc: 0]: global_index_init: 0.037 [ms]
[OGL LOG][Proc: 0]Ux_local_coeffs: call_update: 0 [ms]
[OGL LOG][Proc: 0]Ux_non_local_coeffs: call_update: 0 [ms]
[OGL LOG][Proc: 0]Ux: update_local_matrix_data: 77.723 [ms]
[OGL LOG][Proc: 0]Ux: update_non_local_matrix_data: 0.908 [ms]
[OGL LOG][Proc: 0]Ux_matrix: call_update: 1.586 [ms]
[OGL LOG][Proc: 0]Ux_rhs: call_update: 1.768 [ms]
[OGL LOG][Preconditioner.H:121] Generate preconditioner BJ MaxBlockSize 1
[OGL LOG][Proc: 0]Ux: init_precond: 0.949 [ms]
[OGL LOG][StoppingCriterion.H:239] Creating stopping criterion with minIter 4 frequency 1
[OGL LOG][Proc: 0]Ux: generate_solver: 0.014 [ms]
[OGL LOG][Proc: 0]Ux: solve: 68.61199999999999 [ms]
[OGL LOG][Proc: 0]Ux: copy_x_back: 4.078 [ms]
[OGL LOG][lduLduBase.H:330] 
Statistics:
	Time per iteration: 17153 [mu s]
	Time per residual norm calculation: 151.000000 [mu s]
	Time per iteration and DOF: 2.719618 [ns]
	Retrieve results bandwidth 3.097000 [GByte/s]
[OGL LOG][Proc: 0]Ux: solve_multi_gpu: 79.33499999999999 [ms]
[...]
[OGL LOG][Proc: 0]nuTilda_non_local_coeffs: call_update: 0 [ms]
[OGL LOG][Proc: 0]nuTilda: update_local_matrix_data: 72.053 [ms]
[OGL LOG][Proc: 0]nuTilda: update_non_local_matrix_data: 0.822 [ms]
[OGL LOG][Proc: 0]nuTilda_matrix: call_update: 1.788 [ms]
[OGL LOG][Proc: 0]nuTilda_rhs: call_update: 1.567 [ms]
[OGL LOG][Preconditioner.H:121] Generate preconditioner BJ MaxBlockSize 1
[OGL LOG][Proc: 0]nuTilda: init_precond: 1.025 [ms]
[OGL LOG][StoppingCriterion.H:239] Creating stopping criterion with minIter 3 frequency 1
[OGL LOG][Proc: 0]nuTilda: generate_solver: 0.016 [ms]
[OGL LOG][Proc: 0]nuTilda: solve: 61.761 [ms]
[OGL LOG][Proc: 0]nuTilda: copy_x_back: 4.262 [ms]
[OGL LOG][lduLduBase.H:330] 
Statistics:
	Time per iteration: 30880 [mu s]
	Time per residual norm calculation: 143.000000 [mu s]
	Time per iteration and DOF: 4.896042 [ns]
	Retrieve results bandwidth 2.963000 [GByte/s]
[OGL LOG][Proc: 0]nuTilda: solve_multi_gpu: 73.033 [ms]
BJcudaGKOBiCGStab:  Solving for nuTilda, Initial residual = 0.009317801309019106, Final residual = 0.0006257585429586925, No Iterations 2
bounding nuTilda, min: -6.643708180980055e-05 max: 0.02262913511099479 average: 0.0009229944282822183
ExecutionTime = 916.3 s  ClockTime = 920 s

Time = 98

velocityDampingConstraint velocityDamping damped 0 (0%) of cells, with max limit 300
[OGL LOG][Proc: 0]: global_index_init: 0.026 [ms]
[OGL LOG][Proc: 0]Ux_local_coeffs: call_update: 0 [ms]
[OGL LOG][Proc: 0]Ux_non_local_coeffs: call_update: 0 [ms]
[OGL LOG][Proc: 0]Ux: update_local_matrix_data: 76.44 [ms]
[OGL LOG][Proc: 0]Ux: update_non_local_matrix_data: 0.78 [ms]
[OGL LOG][Proc: 0]Ux_matrix: call_update: 2.131 [ms]
[OGL LOG][Proc: 0]Ux_rhs: call_update: 1.503 [ms]
[OGL LOG][Preconditioner.H:121] Generate preconditioner BJ MaxBlockSize 1
[OGL LOG][Proc: 0]Ux: init_precond: 0.997 [ms]
[OGL LOG][StoppingCriterion.H:239] Creating stopping criterion with minIter 3 frequency 1
[OGL LOG][Proc: 0]Ux: generate_solver: 0.015 [ms]
[OGL LOG][Proc: 0]Ux: solve: 64.578 [ms]
[OGL LOG][Proc: 0]Ux: copy_x_back: 4.179 [ms]
[OGL LOG][lduLduBase.H:330] 
Statistics:
	Time per iteration: 21526 [mu s]
	Time per residual norm calculation: 144.000000 [mu s]
	Time per iteration and DOF: 3.412960 [ns]
	Retrieve results bandwidth 3.022000 [GByte/s]
[OGL LOG][Proc: 0]Ux: solve_multi_gpu: 76.098 [ms]
BJcudaGKOBiCGStab:  Solving for Ux, Initial residual = 0.003390175671628055, Final residual = 0.0003304596023513586, No Iterations 3
[OGL LOG][Proc: 0]: global_index_init: 0.018 [ms]
[OGL LOG][Proc: 0]Uy_local_coeffs: call_update: 0 [ms]
[OGL LOG][Proc: 0]Uy_non_local_coeffs: call_update: 0 [ms]
[OGL LOG][Proc: 0]Uy: update_local_matrix_data: 73.792 [ms]
[OGL LOG][Proc: 0]Uy: update_non_local_matrix_data: 0.779 [ms]
[OGL LOG][Proc: 0]Uy_matrix: call_update: 1.2 [ms]
[OGL LOG][Proc: 0]Uy_rhs: call_update: 2.215 [ms]
[OGL LOG][Preconditioner.H:121] Generate preconditioner BJ MaxBlockSize 1
[OGL LOG][Proc: 0]Uy: init_precond: 0.99 [ms]
[OGL LOG][StoppingCriterion.H:239] Creating stopping criterion with minIter 4 frequency 1
[OGL LOG][Proc: 0]Uy: generate_solver: 0.016 [ms]
[OGL LOG][Proc: 0]Uy: solve: 72.42100000000001 [ms]
[OGL LOG][Proc: 0]Uy: copy_x_back: 3.817 [ms]
[OGL LOG][lduLduBase.H:330] 
Statistics:
	Time per iteration: 18105 [mu s]
	Time per residual norm calculation: 143.000000 [mu s]
	Time per iteration and DOF: 2.870558 [ns]
	Retrieve results bandwidth 3.308000 [GByte/s]
[OGL LOG][Proc: 0]Uy: solve_multi_gpu: 84.417 [ms]
BJcudaGKOBiCGStab:  Solving for Uy, Initial residual = 0.01823545463813075, Final residual = 0.0008495540370867386, No Iterations 4
[OGL LOG][Proc: 0]: global_index_init: 0.014 [ms]
[OGL LOG][Proc: 0]Uz_local_coeffs: call_update: 0 [ms]
[OGL LOG][Proc: 0]Uz_non_local_coeffs: call_update: 0 [ms]
[OGL LOG][Proc: 0]Uz: update_local_matrix_data: 76.53 [ms]
[OGL LOG][Proc: 0]Uz: update_non_local_matrix_data: 0.876 [ms]
[OGL LOG][Proc: 0]Uz_matrix: call_update: 1.522 [ms]
[OGL LOG][Proc: 0]Uz_rhs: call_update: 1.531 [ms]
[OGL LOG][Preconditioner.H:121] Generate preconditioner BJ MaxBlockSize 1
[OGL LOG][Proc: 0]Uz: init_precond: 0.879 [ms]
[OGL LOG][StoppingCriterion.H:239] Creating stopping criterion with minIter 4 frequency 1
[OGL LOG][Proc: 0]Uz: generate_solver: 0.016 [ms]
[OGL LOG][Proc: 0]Uz: solve: 62.513 [ms]
[OGL LOG][Proc: 0]Uz: copy_x_back: 4.312 [ms]
[OGL LOG][lduLduBase.H:330] 
Statistics:
	Time per iteration: 15628 [mu s]
	Time per residual norm calculation: 142.000000 [mu s]
	Time per iteration and DOF: 2.477828 [ns]
	Retrieve results bandwidth 2.929000 [GByte/s]
[OGL LOG][Proc: 0]Uz: solve_multi_gpu: 73.264 [ms]
BJcudaGKOBiCGStab:  Solving for Uz, Initial residual = 0.01714435578912213, Final residual = 0.0007463497891889057, No Iterations 4
[OGL LOG][Proc: 0]: global_index_init: 0.014 [ms]
[OGL LOG][Proc: 0]p_local_coeffs: call_update: 0 [ms]
[OGL LOG][Proc: 0]p_non_local_coeffs: call_update: 0 [ms]
[OGL LOG][Proc: 0]p: update_local_matrix_data: 52.926 [ms]
[OGL LOG][Proc: 0]p: update_non_local_matrix_data: 0.768 [ms]
[OGL LOG][Proc: 0]p_matrix: call_update: 1.4 [ms]
[OGL LOG][Proc: 0]p_rhs: call_update: 1.811 [ms]
[OGL LOG][Preconditioner.H:346] Generate preconditioner Multigrid MaxLevels 9 MinCoarseRows 10 ZeroGuess 1 Cycle v
[OGL LOG][Proc: 0]p: init_precond: 334.089 [ms]
[OGL LOG][StoppingCriterion.H:239] Creating stopping criterion with minIter 15 frequency 1
[OGL LOG][Proc: 0]p: generate_solver: 0.008999999999999999 [ms]
[OGL LOG][Proc: 0]p: solve: 265.034 [ms]
[OGL LOG][Proc: 0]p: copy_x_back: 4.114 [ms]
[OGL LOG][lduLduBase.H:330] 
Statistics:
	Time per iteration: 5889 [mu s]
	Time per residual norm calculation: 135.000000 [mu s]
	Time per iteration and DOF: 0.933704 [ns]
	Retrieve results bandwidth 3.070000 [GByte/s]
[OGL LOG][Proc: 0]p: solve_multi_gpu: 625.6130000000001 [ms]
MultigridcudaGKOCG:  Solving for p, Initial residual = 0.08260156968729336, Final residual = 0.0008024258070041553, No Iterations 45
time step continuity errors : sum local = 0.0006340914058682425, global = -1.876149059881374e-05, cumulative = -0.006432323611329848
[OGL LOG][Proc: 0]: global_index_init: 0.015 [ms]
[OGL LOG][Proc: 0]nuTilda_local_coeffs: call_update: 0 [ms]
[OGL LOG][Proc: 0]nuTilda_non_local_coeffs: call_update: 0 [ms]
[OGL LOG][Proc: 0]nuTilda: update_local_matrix_data: 71.25700000000001 [ms]
[OGL LOG][Proc: 0]nuTilda: update_non_local_matrix_data: 0.799 [ms]
[OGL LOG][Proc: 0]nuTilda_matrix: call_update: 1.86 [ms]
[OGL LOG][Proc: 0]nuTilda_rhs: call_update: 1.579 [ms]
[OGL LOG][Preconditioner.H:121] Generate preconditioner BJ MaxBlockSize 1
[OGL LOG][Proc: 0]nuTilda: init_precond: 1.051 [ms]
[OGL LOG][StoppingCriterion.H:239] Creating stopping criterion with minIter 3 frequency 1
[OGL LOG][Proc: 0]nuTilda: generate_solver: 0.015 [ms]
[OGL LOG][Proc: 0]nuTilda: solve: 61.244 [ms]
[OGL LOG][Proc: 0]nuTilda: copy_x_back: 4.234 [ms]
[OGL LOG][lduLduBase.H:330] 
Statistics:
	Time per iteration: 30622 [mu s]
	Time per residual norm calculation: 142.000000 [mu s]
	Time per iteration and DOF: 4.855136 [ns]
	Retrieve results bandwidth 2.983000 [GByte/s]
[OGL LOG][Proc: 0]nuTilda: solve_multi_gpu: 72.51900000000001 [ms]
BJcudaGKOBiCGStab:  Solving for nuTilda, Initial residual = 0.006537155713945512, Final residual = 0.0005101097009142813, No Iterations 2
bounding nuTilda, min: -9.723095618324463e-05 max: 0.02329845395266146 average: 0.0009459065284161861
ExecutionTime = 922.98 s  ClockTime = 926 s

Time = 99

velocityDampingConstraint velocityDamping damped 0 (0%) of cells, with max limit 300
[OGL LOG][Proc: 0]: global_index_init: 0.014 [ms]
[OGL LOG][Proc: 0]Ux_local_coeffs: call_update: 0 [ms]
[OGL LOG][Proc: 0]Ux_non_local_coeffs: call_update: 0 [ms]
[OGL LOG][Proc: 0]Ux: update_local_matrix_data: 76.74299999999999 [ms]
[OGL LOG][Proc: 0]Ux: update_non_local_matrix_data: 0.835 [ms]
[OGL LOG][Proc: 0]Ux_matrix: call_update: 1.383 [ms]
[OGL LOG][Proc: 0]Ux_rhs: call_update: 1.731 [ms]
[OGL LOG][Preconditioner.H:121] Generate preconditioner BJ MaxBlockSize 1
[OGL LOG][Proc: 0]Ux: init_precond: 0.998 [ms]
[OGL LOG][StoppingCriterion.H:239] Creating stopping criterion with minIter 3 frequency 1
[OGL LOG][Proc: 0]Ux: generate_solver: 0.025 [ms]
[OGL LOG][Proc: 0]Ux: solve: 64.70399999999999 [ms]
[OGL LOG][Proc: 0]Ux: copy_x_back: 4.192 [ms]
[OGL LOG][lduLduBase.H:330] 
Statistics:
	Time per iteration: 21568 [mu s]
	Time per residual norm calculation: 146.000000 [mu s]
	Time per iteration and DOF: 3.419619 [ns]
	Retrieve results bandwidth 3.012000 [GByte/s]
[OGL LOG][Proc: 0]Ux: solve_multi_gpu: 75.312 [ms]
BJcudaGKOBiCGStab:  Solving for Ux, Initial residual = 0.003348484063057024, Final residual = 0.0003004900507235737, No Iterations 3
[OGL LOG][Proc: 0]: global_index_init: 0.025 [ms]
[OGL LOG][Proc: 0]Uy_local_coeffs: call_update: 0 [ms]
[OGL LOG][Proc: 0]Uy_non_local_coeffs: call_update: 0 [ms]
[OGL LOG][Proc: 0]Uy: update_local_matrix_data: 71.501 [ms]
[OGL LOG][Proc: 0]Uy: update_non_local_matrix_data: 0.806 [ms]
[OGL LOG][Proc: 0]Uy_matrix: call_update: 1.174 [ms]
[OGL LOG][Proc: 0]Uy_rhs: call_update: 1.933 [ms]
[OGL LOG][Preconditioner.H:121] Generate preconditioner BJ MaxBlockSize 1
[OGL LOG][Proc: 0]Uy: init_precond: 1.001 [ms]
[OGL LOG][StoppingCriterion.H:239] Creating stopping criterion with minIter 4 frequency 1
[OGL LOG][Proc: 0]Uy: generate_solver: 0.015 [ms]
[OGL LOG][Proc: 0]Uy: solve: 62.021 [ms]
[OGL LOG][Proc: 0]Uy: copy_x_back: 3.924 [ms]
[OGL LOG][lduLduBase.H:330] 
Statistics:
	Time per iteration: 15505 [mu s]
	Time per residual norm calculation: 145.000000 [mu s]
	Time per iteration and DOF: 2.458327 [ns]
	Retrieve results bandwidth 3.218000 [GByte/s]
[OGL LOG][Proc: 0]Uy: solve_multi_gpu: 76.21299999999999 [ms]
BJcudaGKOBiCGStab:  Solving for Uy, Initial residual = 0.01808654036486681, Final residual = 0.001044445509979056, No Iterations 4
[OGL LOG][Proc: 0]: global_index_init: 0.012 [ms]
[OGL LOG][Proc: 0]Uz_local_coeffs: call_update: 0 [ms]
[OGL LOG][Proc: 0]Uz_non_local_coeffs: call_update: 0 [ms]
[OGL LOG][Proc: 0]Uz: update_local_matrix_data: 69.792 [ms]
[OGL LOG][Proc: 0]Uz: update_non_local_matrix_data: 0.892 [ms]
[OGL LOG][Proc: 0]Uz_matrix: call_update: 1.163 [ms]
[OGL LOG][Proc: 0]Uz_rhs: call_update: 4.205 [ms]
[OGL LOG][Preconditioner.H:121] Generate preconditioner BJ MaxBlockSize 1
[OGL LOG][Proc: 0]Uz: init_precond: 1.054 [ms]
[OGL LOG][StoppingCriterion.H:239] Creating stopping criterion with minIter 4 frequency 1
[OGL LOG][Proc: 0]Uz: generate_solver: 0.014 [ms]
[OGL LOG][Proc: 0]Uz: solve: 67.869 [ms]
[OGL LOG][Proc: 0]Uz: copy_x_back: 3.835 [ms]
[OGL LOG][lduLduBase.H:330] 
Statistics:
	Time per iteration: 22623 [mu s]
	Time per residual norm calculation: 142.000000 [mu s]
	Time per iteration and DOF: 3.586890 [ns]
	Retrieve results bandwidth 3.293000 [GByte/s]
[OGL LOG][Proc: 0]Uz: solve_multi_gpu: 85.66 [ms]
BJcudaGKOBiCGStab:  Solving for Uz, Initial residual = 0.01977524985806335, Final residual = 0.001209051089541315, No Iterations 3
[OGL LOG][Proc: 0]: global_index_init: 0.015 [ms]
[OGL LOG][Proc: 0]p_local_coeffs: call_update: 0 [ms]
[OGL LOG][Proc: 0]p_non_local_coeffs: call_update: 0 [ms]
[OGL LOG][Proc: 0]p: update_local_matrix_data: 58.431 [ms]
[OGL LOG][Proc: 0]p: update_non_local_matrix_data: 0.864 [ms]
[OGL LOG][Proc: 0]p_matrix: call_update: 1.603 [ms]
[OGL LOG][Proc: 0]p_rhs: call_update: 1.72 [ms]
[OGL LOG][Preconditioner.H:346] Generate preconditioner Multigrid MaxLevels 9 MinCoarseRows 10 ZeroGuess 1 Cycle v
[OGL LOG][Proc: 0]p: init_precond: 332.156 [ms]
[OGL LOG][StoppingCriterion.H:239] Creating stopping criterion with minIter 27 frequency 1
[OGL LOG][Proc: 0]p: generate_solver: 0.008999999999999999 [ms]
[OGL LOG][Proc: 0]p: solve: 190.173 [ms]
[OGL LOG][Proc: 0]p: copy_x_back: 4.115 [ms]
[OGL LOG][lduLduBase.H:330] 
Statistics:
	Time per iteration: 6791 [mu s]
	Time per residual norm calculation: 149.000000 [mu s]
	Time per iteration and DOF: 1.076717 [ns]
	Retrieve results bandwidth 3.069000 [GByte/s]
[OGL LOG][Proc: 0]p: solve_multi_gpu: 545.929 [ms]
MultigridcudaGKOCG:  Solving for p, Initial residual = 0.07339477828162684, Final residual = 0.0002992996209576542, No Iterations 28
time step continuity errors : sum local = 0.000256948463955213, global = -4.093383452183896e-05, cumulative = -0.006473257445851687
[OGL LOG][Proc: 0]: global_index_init: 0.02 [ms]
[OGL LOG][Proc: 0]nuTilda_local_coeffs: call_update: 0 [ms]
[OGL LOG][Proc: 0]nuTilda_non_local_coeffs: call_update: 0 [ms]
[OGL LOG][Proc: 0]nuTilda: update_local_matrix_data: 70.892 [ms]
[OGL LOG][Proc: 0]nuTilda: update_non_local_matrix_data: 0.795 [ms]
[OGL LOG][Proc: 0]nuTilda_matrix: call_update: 1.784 [ms]
[OGL LOG][Proc: 0]nuTilda_rhs: call_update: 1.522 [ms]
[OGL LOG][Preconditioner.H:121] Generate preconditioner BJ MaxBlockSize 1
[OGL LOG][Proc: 0]nuTilda: init_precond: 1.059 [ms]
[OGL LOG][StoppingCriterion.H:239] Creating stopping criterion with minIter 3 frequency 1
[OGL LOG][Proc: 0]nuTilda: generate_solver: 0.015 [ms]
[OGL LOG][Proc: 0]nuTilda: solve: 60.245 [ms]
[OGL LOG][Proc: 0]nuTilda: copy_x_back: 4.109 [ms]
[OGL LOG][lduLduBase.H:330] 
Statistics:
	Time per iteration: 30122 [mu s]
	Time per residual norm calculation: 138.000000 [mu s]
	Time per iteration and DOF: 4.775860 [ns]
	Retrieve results bandwidth 3.073000 [GByte/s]
[OGL LOG][Proc: 0]nuTilda: solve_multi_gpu: 71.331 [ms]
BJcudaGKOBiCGStab:  Solving for nuTilda, Initial residual = 0.009147777959061515, Final residual = 0.0006317906767141574, No Iterations 2
bounding nuTilda, min: -8.240896917197424e-05 max: 0.02420130080452041 average: 0.0009664538665508922
ExecutionTime = 929.55 s  ClockTime = 933 s

Time = 100

velocityDampingConstraint velocityDamping damped 0 (0%) of cells, with max limit 300
[OGL LOG][Proc: 0]: global_index_init: 0.013 [ms]
[OGL LOG][Proc: 0]Ux_local_coeffs: call_update: 0 [ms]
[OGL LOG][Proc: 0]Ux_non_local_coeffs: call_update: 0 [ms]
[OGL LOG][Proc: 0]Ux: update_local_matrix_data: 77.20099999999999 [ms]
[OGL LOG][Proc: 0]Ux: update_non_local_matrix_data: 0.853 [ms]
[OGL LOG][Proc: 0]Ux_matrix: call_update: 1.624 [ms]
[OGL LOG][Proc: 0]Ux_rhs: call_update: 1.498 [ms]
[OGL LOG][Preconditioner.H:121] Generate preconditioner BJ MaxBlockSize 1
[OGL LOG][Proc: 0]Ux: init_precond: 0.872 [ms]
[OGL LOG][StoppingCriterion.H:239] Creating stopping criterion with minIter 3 frequency 1
[OGL LOG][Proc: 0]Ux: generate_solver: 0.015 [ms]
[OGL LOG][Proc: 0]Ux: solve: 63.322 [ms]
[OGL LOG][Proc: 0]Ux: copy_x_back: 4.028 [ms]
[OGL LOG][lduLduBase.H:330] 
Statistics:
	Time per iteration: 21107 [mu s]
	Time per residual norm calculation: 160.000000 [mu s]
	Time per iteration and DOF: 3.346527 [ns]
	Retrieve results bandwidth 3.135000 [GByte/s]
[OGL LOG][Proc: 0]Ux: solve_multi_gpu: 73.399 [ms]
BJcudaGKOBiCGStab:  Solving for Ux, Initial residual = 0.003317203839377916, Final residual = 0.0003264388628221371, No Iterations 3
[OGL LOG][Proc: 0]: global_index_init: 0.028 [ms]
[OGL LOG][Proc: 0]Uy_local_coeffs: call_update: 0 [ms]
[OGL LOG][Proc: 0]Uy_non_local_coeffs: call_update: 0 [ms]
[OGL LOG][Proc: 0]Uy: update_local_matrix_data: 76.43300000000001 [ms]
[OGL LOG][Proc: 0]Uy: update_non_local_matrix_data: 0.8149999999999999 [ms]
[OGL LOG][Proc: 0]Uy_matrix: call_update: 1.645 [ms]
[OGL LOG][Proc: 0]Uy_rhs: call_update: 1.611 [ms]
[OGL LOG][Preconditioner.H:121] Generate preconditioner BJ MaxBlockSize 1
[OGL LOG][Proc: 0]Uy: init_precond: 0.889 [ms]
[OGL LOG][StoppingCriterion.H:239] Creating stopping criterion with minIter 4 frequency 1
[OGL LOG][Proc: 0]Uy: generate_solver: 0.022 [ms]
[OGL LOG][Proc: 0]Uy: solve: 62.622 [ms]
[OGL LOG][Proc: 0]Uy: copy_x_back: 3.979 [ms]
[OGL LOG][lduLduBase.H:330] 
Statistics:
	Time per iteration: 15655 [mu s]
	Time per residual norm calculation: 146.000000 [mu s]
	Time per iteration and DOF: 2.482109 [ns]
	Retrieve results bandwidth 3.174000 [GByte/s]
[OGL LOG][Proc: 0]Uy: solve_multi_gpu: 73.20099999999999 [ms]
BJcudaGKOBiCGStab:  Solving for Uy, Initial residual = 0.01810637870555566, Final residual = 0.001455032008737964, No Iterations 4
[OGL LOG][Proc: 0]: global_index_init: 0.012 [ms]
[OGL LOG][Proc: 0]Uz_local_coeffs: call_update: 0 [ms]
[OGL LOG][Proc: 0]Uz_non_local_coeffs: call_update: 0 [ms]
[OGL LOG][Proc: 0]Uz: update_local_matrix_data: 76.45399999999999 [ms]
[OGL LOG][Proc: 0]Uz: update_non_local_matrix_data: 0.832 [ms]
[OGL LOG][Proc: 0]Uz_matrix: call_update: 1.679 [ms]
[OGL LOG][Proc: 0]Uz_rhs: call_update: 1.514 [ms]
[OGL LOG][Preconditioner.H:121] Generate preconditioner BJ MaxBlockSize 1
[OGL LOG][Proc: 0]Uz: init_precond: 0.931 [ms]
[OGL LOG][StoppingCriterion.H:239] Creating stopping criterion with minIter 4 frequency 1
[OGL LOG][Proc: 0]Uz: generate_solver: 0.014 [ms]
[OGL LOG][Proc: 0]Uz: solve: 62.354 [ms]
[OGL LOG][Proc: 0]Uz: copy_x_back: 3.963 [ms]
[OGL LOG][lduLduBase.H:330] 
Statistics:
	Time per iteration: 15588 [mu s]
	Time per residual norm calculation: 143.000000 [mu s]
	Time per iteration and DOF: 2.471486 [ns]
	Retrieve results bandwidth 3.187000 [GByte/s]
[OGL LOG][Proc: 0]Uz: solve_multi_gpu: 73.04000000000001 [ms]
BJcudaGKOBiCGStab:  Solving for Uz, Initial residual = 0.01752488721826063, Final residual = 0.0006622550794375263, No Iterations 4
[OGL LOG][Proc: 0]: global_index_init: 0.018 [ms]
[OGL LOG][Proc: 0]p_local_coeffs: call_update: 0 [ms]
[OGL LOG][Proc: 0]p_non_local_coeffs: call_update: 0 [ms]
[OGL LOG][Proc: 0]p: update_local_matrix_data: 58.414 [ms]
[OGL LOG][Proc: 0]p: update_non_local_matrix_data: 0.834 [ms]
[OGL LOG][Proc: 0]p_matrix: call_update: 1.625 [ms]
[OGL LOG][Proc: 0]p_rhs: call_update: 1.56 [ms]
[OGL LOG][Preconditioner.H:346] Generate preconditioner Multigrid MaxLevels 9 MinCoarseRows 10 ZeroGuess 1 Cycle v
[OGL LOG][Proc: 0]p: init_precond: 335.56 [ms]
[OGL LOG][StoppingCriterion.H:239] Creating stopping criterion with minIter 16 frequency 1
[OGL LOG][Proc: 0]p: generate_solver: 0.01 [ms]
[OGL LOG][Proc: 0]p: solve: 306.876 [ms]
[OGL LOG][Proc: 0]p: copy_x_back: 3.915 [ms]
[OGL LOG][lduLduBase.H:330] 
Statistics:
	Time per iteration: 6017 [mu s]
	Time per residual norm calculation: 139.000000 [mu s]
	Time per iteration and DOF: 0.953999 [ns]
	Retrieve results bandwidth 3.226000 [GByte/s]
[OGL LOG][Proc: 0]p: solve_multi_gpu: 665.647 [ms]
MultigridcudaGKOCG:  Solving for p, Initial residual = 0.07036961078996232, Final residual = 0.0006751882806397409, No Iterations 51
time step continuity errors : sum local = 0.0005737614818369878, global = -9.381539496324012e-06, cumulative = -0.00648263898534801
[OGL LOG][Proc: 0]: global_index_init: 0.016 [ms]
[OGL LOG][Proc: 0]nuTilda_local_coeffs: call_update: 0 [ms]
[OGL LOG][Proc: 0]nuTilda_non_local_coeffs: call_update: 0 [ms]
[OGL LOG][Proc: 0]nuTilda: update_local_matrix_data: 75.53100000000001 [ms]
[OGL LOG][Proc: 0]nuTilda: update_non_local_matrix_data: 0.762 [ms]
[OGL LOG][Proc: 0]nuTilda_matrix: call_update: 1.731 [ms]
[OGL LOG][Proc: 0]nuTilda_rhs: call_update: 1.549 [ms]
[OGL LOG][Preconditioner.H:121] Generate preconditioner BJ MaxBlockSize 1
[OGL LOG][Proc: 0]nuTilda: init_precond: 1.039 [ms]
[OGL LOG][StoppingCriterion.H:239] Creating stopping criterion with minIter 3 frequency 1
[OGL LOG][Proc: 0]nuTilda: generate_solver: 0.014 [ms]
[OGL LOG][Proc: 0]nuTilda: solve: 60.616 [ms]
[OGL LOG][Proc: 0]nuTilda: copy_x_back: 4.022 [ms]
[OGL LOG][lduLduBase.H:330] 
Statistics:
	Time per iteration: 30308 [mu s]
	Time per residual norm calculation: 137.000000 [mu s]
	Time per iteration and DOF: 4.805351 [ns]
	Retrieve results bandwidth 3.140000 [GByte/s]
[OGL LOG][Proc: 0]nuTilda: solve_multi_gpu: 71.547 [ms]
BJcudaGKOBiCGStab:  Solving for nuTilda, Initial residual = 0.006485832809891678, Final residual = 0.0005394392263590557, No Iterations 2
bounding nuTilda, min: -0.0001311731126467169 max: 0.02503328758817465 average: 0.000990643967947191
ExecutionTime = 936.3 s  ClockTime = 940 s

End

Finalising parallel run
