/*---------------------------------------------------------------------------*\
| =========                 |                                                 |
| \\      /  F ield         | OpenFOAM: The Open Source CFD Toolbox           |
|  \\    /   O peration     | Version:  2306                                  |
|   \\  /    A nd           | Website:  www.openfoam.com                      |
|    \\/     M anipulation  |                                                 |
\*---------------------------------------------------------------------------*/
Build  : a6e826bd55-20230630 OPENFOAM=2306 version=v2306
Arch   : "LSB;label=32;scalar=64"
Exec   : icoFoam -parallel -case /tmp/lidDrivenCavity3D/workspace/9bcdfbf6fea68157ff0089bcc0b8b0ef/case
Date   : Dec 05 2023
Time   : 16:17:19
Host   : nla-gpu2.ianm.kit.edu
PID    : 3922804
I/O    : uncollated
Case   : /tmp/lidDrivenCavity3D/workspace/9bcdfbf6fea68157ff0089bcc0b8b0ef/case
nProcs : 32
Hosts  :
(
    (nla-gpu2.ianm.kit.edu 32)
)
Pstream initialized with:
    floatTransfer      : false
    nProcsSimpleSum    : 0
    nonBlockingExchange: 0 (tuning: 0)
    exchange algorithm : -1
    commsType          : nonBlocking
    polling iterations : 0
trapFpe: Floating point exception trapping enabled (FOAM_SIGFPE).
fileModificationChecking : Monitoring run-time modified files using timeStampMaster (fileModificationSkew 5, maxFileModificationPolls 20)
allowSystemOperations : Allowing user-supplied system call operations

// * * * * * * * * * * * * * * * * * * * * * * * * * * * * * * * * * * * * * //
Create time

--> FOAM Warning : 
    From void* Foam::dlLibraryTable::openLibrary(const Foam::fileName&, bool)
    in file db/dynamicLibrary/dlLibraryTable/dlLibraryTable.C at line 188
    Could not load "libpetscFoam.so"
libpetscFoam.so: cannot open shared object file: No such file or directory
Create mesh for time = 0


PISO: Operating solver in PISO mode

Reading transportProperties

Reading field p

Reading field U

Reading/calculating face flux field phi


Starting time loop

Time = 0.0005

Courant Number mean: 8.62851e-18 max: 8.67362e-15
momentum setup 6.151 [ms]
DILUPBiCGStab:  Solving for Ux, Initial residual = 1, Final residual = 0.00283431, No Iterations 5
DILUPBiCGStab:  Solving for Uy:  solution singularity
DILUPBiCGStab:  Solving for Uz:  solution singularity
piso setup 5.956 [ms]
 correctNonOrthogonal 
 setRef 
 startSolve 
GAMG:  Solving for p, Initial residual = 1, Final residual = 8.84664e-05, No Iterations 22
piso step 126.638 [ms]
 contErrors 
time step continuity errors : sum local = 1.9169e-08, global = 2.03574e-21, cumulative = 2.03574e-21
piso setup 5.659 [ms]
 correctNonOrthogonal 
 setRef 
 startSolve 
GAMG:  Solving for p, Initial residual = 0.73116, Final residual = 8.26601e-05, No Iterations 26
piso step 130.766 [ms]
 contErrors 
time step continuity errors : sum local = 2.36391e-08, global = -1.96011e-21, cumulative = 7.56353e-23
ExecutionTime = 0.67 s  ClockTime = 1 s

Time = 0.001

Courant Number mean: 0.0215183 max: 0.377124
momentum setup 3.588 [ms]
DILUPBiCGStab:  Solving for Ux, Initial residual = 0.15031, Final residual = 0.0014087, No Iterations 5
DILUPBiCGStab:  Solving for Uy, Initial residual = 0.368269, Final residual = 0.0028708, No Iterations 5
DILUPBiCGStab:  Solving for Uz, Initial residual = 0.984465, Final residual = 0.00793905, No Iterations 5
piso setup 5.801 [ms]
 correctNonOrthogonal 
 setRef 
 startSolve 
GAMG:  Solving for p, Initial residual = 0.693069, Final residual = 8.43377e-05, No Iterations 21
piso step 126.48 [ms]
 contErrors 
time step continuity errors : sum local = 2.70427e-08, global = -1.11261e-20, cumulative = -1.10505e-20
piso setup 9.539 [ms]
 correctNonOrthogonal 
 setRef 
 startSolve 
GAMG:  Solving for p, Initial residual = 0.622451, Final residual = 9.12443e-05, No Iterations 24
piso step 124.158 [ms]
 contErrors 
time step continuity errors : sum local = 2.9936e-08, global = 3.45296e-21, cumulative = -7.5975e-21
ExecutionTime = 0.98 s  ClockTime = 1 s

Time = 0.0015

Courant Number mean: 0.0324761 max: 0.441228
momentum setup 3.5 [ms]
DILUPBiCGStab:  Solving for Ux, Initial residual = 0.0531254, Final residual = 0.000432349, No Iterations 5
DILUPBiCGStab:  Solving for Uy, Initial residual = 0.124795, Final residual = 0.000734787, No Iterations 5
DILUPBiCGStab:  Solving for Uz, Initial residual = 0.597935, Final residual = 0.00558584, No Iterations 5
piso setup 5.747 [ms]
 correctNonOrthogonal 
 setRef 
 startSolve 
GAMG:  Solving for p, Initial residual = 0.63373, Final residual = 9.33132e-05, No Iterations 20
piso step 103.002 [ms]
 contErrors 
time step continuity errors : sum local = 2.15629e-08, global = -5.44409e-21, cumulative = -1.30416e-20
piso setup 7.838 [ms]
 correctNonOrthogonal 
 setRef 
 startSolve 
GAMG:  Solving for p, Initial residual = 0.581231, Final residual = 9.29626e-05, No Iterations 20
piso step 111.222 [ms]
 contErrors 
time step continuity errors : sum local = 2.09176e-08, global = 3.28835e-21, cumulative = -9.75323e-21
ExecutionTime = 1.26 s  ClockTime = 2 s

Time = 0.002

Courant Number mean: 0.0388755 max: 0.452935
momentum setup 3.552 [ms]
DILUPBiCGStab:  Solving for Ux, Initial residual = 0.0319205, Final residual = 0.000229, No Iterations 5
DILUPBiCGStab:  Solving for Uy, Initial residual = 0.0814083, Final residual = 0.000474758, No Iterations 5
DILUPBiCGStab:  Solving for Uz, Initial residual = 0.314308, Final residual = 0.00242892, No Iterations 5
piso setup 5.727 [ms]
 correctNonOrthogonal 
 setRef 
 startSolve 
GAMG:  Solving for p, Initial residual = 0.41492, Final residual = 9.78216e-05, No Iterations 18
piso step 90.57 [ms]
 contErrors 
time step continuity errors : sum local = 1.93715e-08, global = 9.99544e-22, cumulative = -8.75369e-21
piso setup 5.404 [ms]
 correctNonOrthogonal 
 setRef 
 startSolve 
GAMG:  Solving for p, Initial residual = 0.352935, Final residual = 8.7455e-05, No Iterations 18
piso step 89.018 [ms]
 contErrors 
time step continuity errors : sum local = 1.74903e-08, global = -1.64842e-21, cumulative = -1.04021e-20
ExecutionTime = 1.5 s  ClockTime = 2 s

Time = 0.0025

Courant Number mean: 0.0439279 max: 0.459606
momentum setup 4.018 [ms]
DILUPBiCGStab:  Solving for Ux, Initial residual = 0.023522, Final residual = 0.000146217, No Iterations 5
DILUPBiCGStab:  Solving for Uy, Initial residual = 0.0515472, Final residual = 0.000276616, No Iterations 5
DILUPBiCGStab:  Solving for Uz, Initial residual = 0.128436, Final residual = 0.000862305, No Iterations 5
piso setup 5.762 [ms]
 correctNonOrthogonal 
 setRef 
 startSolve 
GAMG:  Solving for p, Initial residual = 0.316619, Final residual = 9.65961e-05, No Iterations 19
piso step 94.458 [ms]
 contErrors 
time step continuity errors : sum local = 1.57051e-08, global = -5.76121e-21, cumulative = -1.61633e-20
piso setup 5.591 [ms]
 correctNonOrthogonal 
 setRef 
 startSolve 
GAMG:  Solving for p, Initial residual = 0.27108, Final residual = 9.21474e-05, No Iterations 18
piso step 103.033 [ms]
 contErrors 
time step continuity errors : sum local = 1.49302e-08, global = -5.54149e-21, cumulative = -2.17048e-20
ExecutionTime = 1.76 s  ClockTime = 2 s

Time = 0.003

Courant Number mean: 0.0479688 max: 0.463849
momentum setup 3.27 [ms]
DILUPBiCGStab:  Solving for Ux, Initial residual = 0.0179098, Final residual = 0.000103914, No Iterations 5
DILUPBiCGStab:  Solving for Uy, Initial residual = 0.0401365, Final residual = 0.000165323, No Iterations 5
DILUPBiCGStab:  Solving for Uz, Initial residual = 0.108923, Final residual = 0.000732041, No Iterations 5
piso setup 5.723 [ms]
 correctNonOrthogonal 
 setRef 
 startSolve 
GAMG:  Solving for p, Initial residual = 0.198788, Final residual = 9.52726e-05, No Iterations 18
piso step 89.806 [ms]
 contErrors 
time step continuity errors : sum local = 1.49558e-08, global = -4.87121e-21, cumulative = -2.6576e-20
piso setup 5.743 [ms]
 correctNonOrthogonal 
 setRef 
 startSolve 
GAMG:  Solving for p, Initial residual = 0.16549, Final residual = 8.61563e-05, No Iterations 17
piso step 84.773 [ms]
 contErrors 
time step continuity errors : sum local = 1.35077e-08, global = -4.95543e-21, cumulative = -3.15315e-20
ExecutionTime = 2 s  ClockTime = 2 s

Time = 0.0035

Courant Number mean: 0.051379 max: 0.466725
momentum setup 3.481 [ms]
DILUPBiCGStab:  Solving for Ux, Initial residual = 0.0146495, Final residual = 7.21975e-05, No Iterations 5
DILUPBiCGStab:  Solving for Uy, Initial residual = 0.0317705, Final residual = 0.000141641, No Iterations 5
DILUPBiCGStab:  Solving for Uz, Initial residual = 0.0760963, Final residual = 0.000446754, No Iterations 5
piso setup 7.15 [ms]
 correctNonOrthogonal 
 setRef 
 startSolve 
GAMG:  Solving for p, Initial residual = 0.140765, Final residual = 9.17103e-05, No Iterations 19
piso step 103.447 [ms]
 contErrors 
time step continuity errors : sum local = 1.36669e-08, global = 2.56473e-21, cumulative = -2.89667e-20
piso setup 6.581 [ms]
 correctNonOrthogonal 
 setRef 
 startSolve 
GAMG:  Solving for p, Initial residual = 0.117898, Final residual = 8.72729e-05, No Iterations 19
piso step 99.755 [ms]
 contErrors 
time step continuity errors : sum local = 1.30036e-08, global = -3.45038e-21, cumulative = -3.24171e-20
ExecutionTime = 2.27 s  ClockTime = 3 s

Time = 0.004

Courant Number mean: 0.0543192 max: 0.468936
momentum setup 3.965 [ms]
DILUPBiCGStab:  Solving for Ux, Initial residual = 0.0122995, Final residual = 5.46262e-05, No Iterations 5
DILUPBiCGStab:  Solving for Uy, Initial residual = 0.0265115, Final residual = 8.82013e-05, No Iterations 5
DILUPBiCGStab:  Solving for Uz, Initial residual = 0.0665551, Final residual = 0.000309461, No Iterations 5
piso setup 5.738 [ms]
 correctNonOrthogonal 
 setRef 
 startSolve 
GAMG:  Solving for p, Initial residual = 0.0925042, Final residual = 8.24775e-05, No Iterations 17
piso step 85.608 [ms]
 contErrors 
time step continuity errors : sum local = 1.20149e-08, global = -1.29604e-20, cumulative = -4.53775e-20
piso setup 5.396 [ms]
 correctNonOrthogonal 
 setRef 
 startSolve 
GAMG:  Solving for p, Initial residual = 0.0768003, Final residual = 8.15091e-05, No Iterations 17
piso step 84.136 [ms]
 contErrors 
time step continuity errors : sum local = 1.19418e-08, global = 5.76527e-21, cumulative = -3.96122e-20
ExecutionTime = 2.5 s  ClockTime = 3 s

Time = 0.0045

Courant Number mean: 0.0568976 max: 0.47064
momentum setup 3.537 [ms]
DILUPBiCGStab:  Solving for Ux, Initial residual = 0.010542, Final residual = 4.2624e-05, No Iterations 5
DILUPBiCGStab:  Solving for Uy, Initial residual = 0.022675, Final residual = 7.57301e-05, No Iterations 5
DILUPBiCGStab:  Solving for Uz, Initial residual = 0.0549385, Final residual = 0.000234741, No Iterations 5
piso setup 7.321 [ms]
 correctNonOrthogonal 
 setRef 
 startSolve 
GAMG:  Solving for p, Initial residual = 0.0681183, Final residual = 9.34869e-05, No Iterations 18
piso step 92.351 [ms]
 contErrors 
time step continuity errors : sum local = 1.3459e-08, global = -5.64551e-21, cumulative = -4.52577e-20
piso setup 5.92 [ms]
 correctNonOrthogonal 
 setRef 
 startSolve 
GAMG:  Solving for p, Initial residual = 0.05702, Final residual = 8.86703e-05, No Iterations 18
piso step 89.366 [ms]
 contErrors 
time step continuity errors : sum local = 1.27519e-08, global = -1.65736e-21, cumulative = -4.69151e-20
ExecutionTime = 2.74 s  ClockTime = 3 s

Time = 0.005

Courant Number mean: 0.0591941 max: 0.472035
momentum setup 3.514 [ms]
DILUPBiCGStab:  Solving for Ux, Initial residual = 0.00923116, Final residual = 3.56562e-05, No Iterations 5
DILUPBiCGStab:  Solving for Uy, Initial residual = 0.0197242, Final residual = 5.86976e-05, No Iterations 5
DILUPBiCGStab:  Solving for Uz, Initial residual = 0.0498951, Final residual = 0.000196144, No Iterations 5
piso setup 5.719 [ms]
 correctNonOrthogonal 
 setRef 
 startSolve 
GAMG:  Solving for p, Initial residual = 0.0467577, Final residual = 9.81211e-05, No Iterations 18
piso step 101.931 [ms]
 contErrors 
time step continuity errors : sum local = 1.39647e-08, global = -6.14957e-22, cumulative = -4.753e-20
piso setup 6.665 [ms]
 correctNonOrthogonal 
 setRef 
 startSolve 
GAMG:  Solving for p, Initial residual = 0.0397012, Final residual = 8.51032e-05, No Iterations 17
piso step 84.92 [ms]
 contErrors 
time step continuity errors : sum local = 1.21064e-08, global = -4.08053e-21, cumulative = -5.16106e-20
ExecutionTime = 2.99 s  ClockTime = 3 s

Time = 0.0055

Courant Number mean: 0.061255 max: 0.473186
momentum setup 3.625 [ms]
DILUPBiCGStab:  Solving for Ux, Initial residual = 0.00814662, Final residual = 2.9832e-05, No Iterations 5
DILUPBiCGStab:  Solving for Uy, Initial residual = 0.0174479, Final residual = 5.23521e-05, No Iterations 5
DILUPBiCGStab:  Solving for Uz, Initial residual = 0.0452996, Final residual = 0.000175042, No Iterations 5
piso setup 6.107 [ms]
 correctNonOrthogonal 
 setRef 
 startSolve 
GAMG:  Solving for p, Initial residual = 0.0371276, Final residual = 8.00576e-05, No Iterations 18
piso step 90.476 [ms]
 contErrors 
time step continuity errors : sum local = 1.13235e-08, global = 2.22643e-21, cumulative = -4.93841e-20
piso setup 6.396 [ms]
 correctNonOrthogonal 
 setRef 
 startSolve 
GAMG:  Solving for p, Initial residual = 0.0317826, Final residual = 9.77723e-05, No Iterations 17
piso step 92.481 [ms]
 contErrors 
time step continuity errors : sum local = 1.39114e-08, global = 1.86152e-21, cumulative = -4.75226e-20
ExecutionTime = 3.24 s  ClockTime = 3 s

Time = 0.006

Courant Number mean: 0.0631276 max: 0.474166
momentum setup 3.634 [ms]
DILUPBiCGStab:  Solving for Ux, Initial residual = 0.00729596, Final residual = 2.60982e-05, No Iterations 5
DILUPBiCGStab:  Solving for Uy, Initial residual = 0.0155732, Final residual = 4.55678e-05, No Iterations 5
DILUPBiCGStab:  Solving for Uz, Initial residual = 0.0401719, Final residual = 0.000150704, No Iterations 5
piso setup 5.711 [ms]
 correctNonOrthogonal 
 setRef 
 startSolve 
GAMG:  Solving for p, Initial residual = 0.0275001, Final residual = 9.47112e-05, No Iterations 18
piso step 89.55 [ms]
 contErrors 
time step continuity errors : sum local = 1.33605e-08, global = -9.95982e-21, cumulative = -5.74824e-20
piso setup 5.491 [ms]
 correctNonOrthogonal 
 setRef 
 startSolve 
GAMG:  Solving for p, Initial residual = 0.0241625, Final residual = 9.76619e-05, No Iterations 17
piso step 84.152 [ms]
 contErrors 
time step continuity errors : sum local = 1.38419e-08, global = 4.28273e-22, cumulative = -5.70542e-20
ExecutionTime = 3.47 s  ClockTime = 4 s

Time = 0.0065

Courant Number mean: 0.0648324 max: 0.475002
momentum setup 3.573 [ms]
DILUPBiCGStab:  Solving for Ux, Initial residual = 0.00656279, Final residual = 2.28424e-05, No Iterations 5
DILUPBiCGStab:  Solving for Uy, Initial residual = 0.0140503, Final residual = 4.09489e-05, No Iterations 5
DILUPBiCGStab:  Solving for Uz, Initial residual = 0.0374705, Final residual = 0.000140548, No Iterations 5
piso setup 5.729 [ms]
 correctNonOrthogonal 
 setRef 
 startSolve 
GAMG:  Solving for p, Initial residual = 0.0233163, Final residual = 9.22319e-05, No Iterations 18
piso step 89.535 [ms]
 contErrors 
time step continuity errors : sum local = 1.30104e-08, global = -3.01306e-21, cumulative = -6.00672e-20
piso setup 5.447 [ms]
 correctNonOrthogonal 
 setRef 
 startSolve 
GAMG:  Solving for p, Initial residual = 0.0206878, Final residual = 8.71975e-05, No Iterations 17
piso step 85.207 [ms]
 contErrors 
time step continuity errors : sum local = 1.2344e-08, global = -3.16919e-21, cumulative = -6.32364e-20
ExecutionTime = 3.71 s  ClockTime = 4 s

Time = 0.007

Courant Number mean: 0.0664008 max: 0.475734
momentum setup 3.57 [ms]
DILUPBiCGStab:  Solving for Ux, Initial residual = 0.00596611, Final residual = 2.05307e-05, No Iterations 5
DILUPBiCGStab:  Solving for Uy, Initial residual = 0.0127533, Final residual = 3.68919e-05, No Iterations 5
DILUPBiCGStab:  Solving for Uz, Initial residual = 0.0339303, Final residual = 0.000126626, No Iterations 5
piso setup 5.745 [ms]
 correctNonOrthogonal 
 setRef 
 startSolve 
GAMG:  Solving for p, Initial residual = 0.0189188, Final residual = 9.34753e-05, No Iterations 17
piso step 85.462 [ms]
 contErrors 
time step continuity errors : sum local = 1.32179e-08, global = 3.95289e-22, cumulative = -6.28411e-20
piso setup 5.368 [ms]
 correctNonOrthogonal 
 setRef 
 startSolve 
GAMG:  Solving for p, Initial residual = 0.0171855, Final residual = 8.5955e-05, No Iterations 17
piso step 84.116 [ms]
 contErrors 
time step continuity errors : sum local = 1.2159e-08, global = -8.17844e-21, cumulative = -7.10196e-20
ExecutionTime = 3.94 s  ClockTime = 4 s

Time = 0.0075

Courant Number mean: 0.0678484 max: 0.476374
momentum setup 3.475 [ms]
DILUPBiCGStab:  Solving for Ux, Initial residual = 0.00543863, Final residual = 1.8501e-05, No Iterations 5
DILUPBiCGStab:  Solving for Uy, Initial residual = 0.0116614, Final residual = 3.35335e-05, No Iterations 5
DILUPBiCGStab:  Solving for Uz, Initial residual = 0.031054, Final residual = 0.000114912, No Iterations 5
piso setup 5.713 [ms]
 correctNonOrthogonal 
 setRef 
 startSolve 
GAMG:  Solving for p, Initial residual = 0.0166441, Final residual = 8.93111e-05, No Iterations 17
piso step 84.732 [ms]
 contErrors 
time step continuity errors : sum local = 1.26119e-08, global = -1.12543e-21, cumulative = -7.2145e-20
piso setup 5.384 [ms]
 correctNonOrthogonal 
 setRef 
 startSolve 
GAMG:  Solving for p, Initial residual = 0.0152247, Final residual = 9.03481e-05, No Iterations 18
piso step 90.057 [ms]
 contErrors 
time step continuity errors : sum local = 1.27307e-08, global = -5.37719e-22, cumulative = -7.26827e-20
ExecutionTime = 4.17 s  ClockTime = 4 s

Time = 0.008

Courant Number mean: 0.0691861 max: 0.476944
momentum setup 3.923 [ms]
DILUPBiCGStab:  Solving for Ux, Initial residual = 0.00499608, Final residual = 1.69116e-05, No Iterations 5
DILUPBiCGStab:  Solving for Uy, Initial residual = 0.0107096, Final residual = 3.06871e-05, No Iterations 5
DILUPBiCGStab:  Solving for Uz, Initial residual = 0.0291616, Final residual = 0.000108429, No Iterations 5
piso setup 5.754 [ms]
 correctNonOrthogonal 
 setRef 
 startSolve 
GAMG:  Solving for p, Initial residual = 0.0148734, Final residual = 7.96658e-05, No Iterations 19
piso step 102.327 [ms]
 contErrors 
time step continuity errors : sum local = 1.12089e-08, global = -2.55578e-21, cumulative = -7.52385e-20
piso setup 6.812 [ms]
 correctNonOrthogonal 
 setRef 
 startSolve 
GAMG:  Solving for p, Initial residual = 0.0138128, Final residual = 9.55375e-05, No Iterations 18
piso step 91.702 [ms]
 contErrors 
time step continuity errors : sum local = 1.34949e-08, global = -3.99477e-21, cumulative = -7.92333e-20
ExecutionTime = 4.43 s  ClockTime = 5 s

Time = 0.0085

Courant Number mean: 0.0704321 max: 0.477454
momentum setup 3.853 [ms]
DILUPBiCGStab:  Solving for Ux, Initial residual = 0.00459926, Final residual = 1.55016e-05, No Iterations 5
DILUPBiCGStab:  Solving for Uy, Initial residual = 0.00988721, Final residual = 2.81956e-05, No Iterations 5
DILUPBiCGStab:  Solving for Uz, Initial residual = 0.0274489, Final residual = 0.000102916, No Iterations 5
piso setup 5.75 [ms]
 correctNonOrthogonal 
 setRef 
 startSolve 
GAMG:  Solving for p, Initial residual = 0.0135429, Final residual = 8.45794e-05, No Iterations 18
piso step 89.951 [ms]
 contErrors 
time step continuity errors : sum local = 1.1898e-08, global = 3.45425e-21, cumulative = -7.5779e-20
piso setup 5.408 [ms]
 correctNonOrthogonal 
 setRef 
 startSolve 
GAMG:  Solving for p, Initial residual = 0.0126211, Final residual = 9.70265e-05, No Iterations 14
piso step 74.389 [ms]
 contErrors 
time step continuity errors : sum local = 1.36474e-08, global = -1.42368e-21, cumulative = -7.72027e-20
ExecutionTime = 4.65 s  ClockTime = 5 s

Time = 0.009

Courant Number mean: 0.0715957 max: 0.477912
momentum setup 4.033 [ms]
DILUPBiCGStab:  Solving for Ux, Initial residual = 0.00425935, Final residual = 1.43159e-05, No Iterations 5
DILUPBiCGStab:  Solving for Uy, Initial residual = 0.0091587, Final residual = 2.60588e-05, No Iterations 5
DILUPBiCGStab:  Solving for Uz, Initial residual = 0.0260728, Final residual = 9.84764e-05, No Iterations 5
piso setup 6.954 [ms]
 correctNonOrthogonal 
 setRef 
 startSolve 
GAMG:  Solving for p, Initial residual = 0.0128423, Final residual = 8.26288e-05, No Iterations 19
piso step 95.997 [ms]
 contErrors 
time step continuity errors : sum local = 1.16626e-08, global = -5.58693e-21, cumulative = -8.27896e-20
piso setup 7.704 [ms]
 correctNonOrthogonal 
 setRef 
 startSolve 
GAMG:  Solving for p, Initial residual = 0.0120468, Final residual = 8.97071e-05, No Iterations 18
piso step 94.68 [ms]
 contErrors 
time step continuity errors : sum local = 1.26374e-08, global = -6.33496e-21, cumulative = -8.91246e-20
ExecutionTime = 4.91 s  ClockTime = 5 s

Time = 0.0095

Courant Number mean: 0.0726829 max: 0.478327
momentum setup 3.556 [ms]
DILUPBiCGStab:  Solving for Ux, Initial residual = 0.00395002, Final residual = 1.32675e-05, No Iterations 5
DILUPBiCGStab:  Solving for Uy, Initial residual = 0.00851821, Final residual = 2.41556e-05, No Iterations 5
DILUPBiCGStab:  Solving for Uz, Initial residual = 0.0244343, Final residual = 9.30408e-05, No Iterations 5
piso setup 5.83 [ms]
 correctNonOrthogonal 
 setRef 
 startSolve 
GAMG:  Solving for p, Initial residual = 0.0117627, Final residual = 8.11762e-05, No Iterations 15
piso step 75.05 [ms]
 contErrors 
time step continuity errors : sum local = 1.14708e-08, global = 3.18651e-21, cumulative = -8.59381e-20
piso setup 5.367 [ms]
 correctNonOrthogonal 
 setRef 
 startSolve 
GAMG:  Solving for p, Initial residual = 0.0110731, Final residual = 8.23209e-05, No Iterations 18
piso step 89.156 [ms]
 contErrors 
time step continuity errors : sum local = 1.15939e-08, global = -3.64745e-21, cumulative = -8.95855e-20
ExecutionTime = 5.13 s  ClockTime = 5 s

Time = 0.01

Courant Number mean: 0.0737005 max: 0.478704
momentum setup 3.914 [ms]
DILUPBiCGStab:  Solving for Ux, Initial residual = 0.00368084, Final residual = 1.23312e-05, No Iterations 5
DILUPBiCGStab:  Solving for Uy, Initial residual = 0.00794218, Final residual = 2.24811e-05, No Iterations 5
DILUPBiCGStab:  Solving for Uz, Initial residual = 0.0223933, Final residual = 8.50041e-05, No Iterations 5
piso setup 6.245 [ms]
 correctNonOrthogonal 
 setRef 
 startSolve 
GAMG:  Solving for p, Initial residual = 0.0109821, Final residual = 8.98002e-05, No Iterations 18
piso step 93.833 [ms]
 contErrors 
time step continuity errors : sum local = 1.26864e-08, global = -5.07036e-21, cumulative = -9.46559e-20
piso setup 6.397 [ms]
 correctNonOrthogonal 
 setRef 
 startSolve 
GAMG:  Solving for p, Initial residual = 0.0103294, Final residual = 7.47855e-05, No Iterations 16
piso step 82.588 [ms]
 contErrors 
time step continuity errors : sum local = 1.0511e-08, global = -1.04305e-20, cumulative = -1.05086e-19
ExecutionTime = 5.37 s  ClockTime = 6 s

End

Finalising parallel run
