/*---------------------------------------------------------------------------*\
| =========                 |                                                 |
| \\      /  F ield         | OpenFOAM: The Open Source CFD Toolbox           |
|  \\    /   O peration     | Version:  2306                                  |
|   \\  /    A nd           | Website:  www.openfoam.com                      |
|    \\/     M anipulation  |                                                 |
\*---------------------------------------------------------------------------*/
Build  : c423ebec-20231012 OPENFOAM=2306 version=v2306
Arch   : "LSB;label=32;scalar=64"
Exec   : decomposePar -force
Date   : Feb 04 2024
Time   : 20:38:40
Host   : hkn1249.localdomain
PID    : 2982488
--> FOAM Warning : 
    From Foam::fileName Foam::cwd_L()
    in file POSIX.C at line 552
    PWD is not the cwd() - reverting to physical description
I/O    : uncollated
--> FOAM Warning : 
    From Foam::fileName Foam::cwd_L()
    in file POSIX.C at line 552
    PWD is not the cwd() - reverting to physical description
Case   : /hkfs/work/workspace/scratch/eq4036-l3d_multi/workspace/d9cb57392bb4fc479fd0e9a8e700a753/case
nProcs : 1
trapFpe: Floating point exception trapping enabled (FOAM_SIGFPE).
fileModificationChecking : Monitoring run-time modified files using timeStampMaster (fileModificationSkew 5, maxFileModificationPolls 20)
allowSystemOperations : Allowing user-supplied system call operations

// * * * * * * * * * * * * * * * * * * * * * * * * * * * * * * * * * * * * * //
Create time

--> FOAM Warning : 
    From void* Foam::dlLibraryTable::openLibrary(const Foam::fileName&, bool)
    in file db/dynamicLibrary/dlLibraryTable/dlLibraryTable.C at line 188
    Could not load "libpetscFoam.so"
libpetscFoam.so: cannot open shared object file: No such file or directory


Decomposing mesh

Create mesh

Calculating distribution of cells
Decomposition method simple [760] (region region0)

Finished decomposition in 96.11 s

Calculating original mesh data

Distributing cells to processors

Distributing faces to processors

Distributing points to processors

Constructing processor meshes

Processor 0
    Number of cells = 156299
    Number of points = 189826
    Number of faces shared with processor 1 = 1250
    Number of faces shared with processor 4 = 638
    Number of faces shared with processor 8 = 31270
    Number of processor patches = 3
    Number of processor faces = 33158
    Number of boundary faces = 33132

Processor 1
    Number of cells = 156250
    Number of points = 189756
    Number of faces shared with processor 0 = 1250
    Number of faces shared with processor 2 = 1250
    Number of faces shared with processor 5 = 625
    Number of faces shared with processor 9 = 31250
    Number of processor patches = 4
    Number of processor faces = 34375
    Number of boundary faces = 31875

Processor 2
    Number of cells = 156250
    Number of points = 189756
    Number of faces shared with processor 1 = 1250
    Number of faces shared with processor 3 = 1250
    Number of faces shared with processor 6 = 625
    Number of faces shared with processor 10 = 31250
    Number of processor patches = 4
    Number of processor faces = 34375
    Number of boundary faces = 31875

Processor 3
    Number of cells = 156250
    Number of points = 189756
    Number of faces shared with processor 2 = 1250
    Number of faces shared with processor 7 = 625
    Number of faces shared with processor 11 = 31250
    Number of processor patches = 3
    Number of processor faces = 33125
    Number of boundary faces = 33125

Processor 4
    Number of cells = 184397
    Number of points = 218279
    Number of faces shared with processor 0 = 638
    Number of faces shared with processor 5 = 1444
    Number of faces shared with processor 8 = 2
    Number of faces shared with processor 12 = 31416
    Number of processor patches = 4
    Number of processor faces = 33500
    Number of boundary faces = 33500

Processor 5
    Number of cells = 176594
    Number of points = 210420
    Number of faces shared with processor 1 = 625
    Number of faces shared with processor 4 = 1444
    Number of faces shared with processor 6 = 1381
    Number of faces shared with processor 13 = 31437
    Number of faces shared with processor 14 = 1
    Number of processor patches = 5
    Number of processor faces = 34888
    Number of boundary faces = 32000

Processor 6
    Number of cells = 168781
    Number of points = 202544
    Number of faces shared with processor 2 = 625
    Number of faces shared with processor 5 = 1381
    Number of faces shared with processor 7 = 1319
    Number of faces shared with processor 14 = 31437
    Number of processor patches = 4
    Number of processor faces = 34762
    Number of boundary faces = 32000

Processor 7
    Number of cells = 160969
    Number of points = 194670
    Number of faces shared with processor 3 = 625
    Number of faces shared with processor 6 = 1319
    Number of faces shared with processor 15 = 31437
    Number of processor patches = 3
    Number of processor faces = 33381
    Number of boundary faces = 33257

Processor 8
    Number of cells = 169607
    Number of points = 203377
    Number of faces shared with processor 0 = 31270
    Number of faces shared with processor 4 = 2
    Number of faces shared with processor 9 = 1326
    Number of faces shared with processor 12 = 735
    Number of faces shared with processor 16 = 31437
    Number of processor patches = 5
    Number of processor faces = 64770
    Number of boundary faces = 2006

Processor 9
    Number of cells = 161799
    Number of points = 195507
    Number of faces shared with processor 1 = 31250
    Number of faces shared with processor 8 = 1326
    Number of faces shared with processor 10 = 1263
    Number of faces shared with processor 13 = 750
    Number of faces shared with processor 17 = 31438
    Number of processor patches = 5
    Number of processor faces = 66027
    Number of boundary faces = 625

Processor 10
    Number of cells = 156419
    Number of points = 189964
    Number of faces shared with processor 2 = 31250
    Number of faces shared with processor 9 = 1263
    Number of faces shared with processor 11 = 1250
    Number of faces shared with processor 14 = 650
    Number of faces shared with processor 18 = 31288
    Number of processor patches = 5
    Number of processor faces = 65701
    Number of boundary faces = 625

Processor 11
    Number of cells = 156250
    Number of points = 189756
    Number of faces shared with processor 3 = 31250
    Number of faces shared with processor 10 = 1250
    Number of faces shared with processor 15 = 625
    Number of faces shared with processor 19 = 31250
    Number of processor patches = 4
    Number of processor faces = 64375
    Number of boundary faces = 1875

Processor 12
    Number of cells = 159353
    Number of points = 193026
    Number of faces shared with processor 4 = 31416
    Number of faces shared with processor 8 = 735
    Number of faces shared with processor 13 = 1306
    Number of faces shared with processor 20 = 31250
    Number of processor patches = 4
    Number of processor faces = 64707
    Number of boundary faces = 1875

Processor 13
    Number of cells = 167156
    Number of points = 200906
    Number of faces shared with processor 5 = 31437
    Number of faces shared with processor 9 = 750
    Number of faces shared with processor 12 = 1306
    Number of faces shared with processor 14 = 1368
    Number of faces shared with processor 21 = 31250
    Number of processor patches = 5
    Number of processor faces = 66111
    Number of boundary faces = 625

Processor 14
    Number of cells = 172519
    Number of points = 206332
    Number of faces shared with processor 5 = 1
    Number of faces shared with processor 6 = 31437
    Number of faces shared with processor 10 = 650
    Number of faces shared with processor 13 = 1368
    Number of faces shared with processor 15 = 1381
    Number of faces shared with processor 18 = 2
    Number of faces shared with processor 22 = 31397
    Number of faces shared with processor 23 = 1
    Number of processor patches = 8
    Number of processor faces = 66237
    Number of boundary faces = 625

Processor 15
    Number of cells = 172687
    Number of points = 206512
    Number of faces shared with processor 7 = 31437
    Number of faces shared with processor 11 = 625
    Number of faces shared with processor 14 = 1381
    Number of faces shared with processor 23 = 31437
    Number of processor patches = 4
    Number of processor faces = 64880
    Number of boundary faces = 2006

Processor 16
    Number of cells = 172288
    Number of points = 206094
    Number of faces shared with processor 8 = 31437
    Number of faces shared with processor 17 = 1381
    Number of faces shared with processor 20 = 625
    Number of faces shared with processor 24 = 31376
    Number of faces shared with processor 25 = 1
    Number of processor patches = 5
    Number of processor faces = 64820
    Number of boundary faces = 2028

Processor 17
    Number of cells = 172727
    Number of points = 206553
    Number of faces shared with processor 9 = 31438
    Number of faces shared with processor 16 = 1381
    Number of faces shared with processor 18 = 1381
    Number of faces shared with processor 21 = 625
    Number of faces shared with processor 25 = 31437
    Number of faces shared with processor 26 = 1
    Number of processor patches = 6
    Number of processor faces = 66263
    Number of boundary faces = 625

Processor 18
    Number of cells = 170237
    Number of points = 204013
    Number of faces shared with processor 10 = 31288
    Number of faces shared with processor 14 = 2
    Number of faces shared with processor 17 = 1381
    Number of faces shared with processor 19 = 1332
    Number of faces shared with processor 22 = 723
    Number of faces shared with processor 26 = 31437
    Number of processor patches = 6
    Number of processor faces = 66163
    Number of boundary faces = 625

Processor 19
    Number of cells = 162594
    Number of points = 196308
    Number of faces shared with processor 11 = 31250
    Number of faces shared with processor 18 = 1332
    Number of faces shared with processor 23 = 750
    Number of faces shared with processor 27 = 31437
    Number of processor patches = 4
    Number of processor faces = 64769
    Number of boundary faces = 1895

Processor 20
    Number of cells = 156650
    Number of points = 190216
    Number of faces shared with processor 12 = 31250
    Number of faces shared with processor 16 = 625
    Number of faces shared with processor 21 = 1250
    Number of faces shared with processor 28 = 31309
    Number of processor patches = 4
    Number of processor faces = 64434
    Number of boundary faces = 1934

Processor 21
    Number of cells = 156250
    Number of points = 189756
    Number of faces shared with processor 13 = 31250
    Number of faces shared with processor 17 = 625
    Number of faces shared with processor 20 = 1250
    Number of faces shared with processor 22 = 1250
    Number of faces shared with processor 29 = 31250
    Number of processor patches = 5
    Number of processor faces = 65625
    Number of boundary faces = 625

Processor 22
    Number of cells = 158700
    Number of points = 192354
    Number of faces shared with processor 14 = 31397
    Number of faces shared with processor 18 = 723
    Number of faces shared with processor 21 = 1250
    Number of faces shared with processor 23 = 1299
    Number of faces shared with processor 30 = 31250
    Number of processor patches = 5
    Number of processor faces = 65919
    Number of boundary faces = 625

Processor 23
    Number of cells = 166344
    Number of points = 200088
    Number of faces shared with processor 14 = 1
    Number of faces shared with processor 15 = 31437
    Number of faces shared with processor 19 = 750
    Number of faces shared with processor 22 = 1299
    Number of faces shared with processor 31 = 31250
    Number of processor patches = 5
    Number of processor faces = 64737
    Number of boundary faces = 1987

Processor 24
    Number of cells = 158056
    Number of points = 191689
    Number of faces shared with processor 16 = 31376
    Number of faces shared with processor 25 = 1292
    Number of faces shared with processor 28 = 625
    Number of faces shared with processor 32 = 31250
    Number of processor patches = 4
    Number of processor faces = 64543
    Number of boundary faces = 1959

Processor 25
    Number of cells = 165474
    Number of points = 199211
    Number of faces shared with processor 16 = 1
    Number of faces shared with processor 17 = 31437
    Number of faces shared with processor 24 = 1292
    Number of faces shared with processor 26 = 1355
    Number of faces shared with processor 29 = 625
    Number of faces shared with processor 33 = 31250
    Number of processor patches = 6
    Number of processor faces = 65960
    Number of boundary faces = 750

Processor 26
    Number of cells = 172021
    Number of points = 205821
    Number of faces shared with processor 17 = 1
    Number of faces shared with processor 18 = 31437
    Number of faces shared with processor 25 = 1355
    Number of faces shared with processor 27 = 1381
    Number of faces shared with processor 30 = 625
    Number of faces shared with processor 34 = 31357
    Number of faces shared with processor 35 = 1
    Number of processor patches = 7
    Number of processor faces = 66157
    Number of boundary faces = 679

Processor 27
    Number of cells = 172687
    Number of points = 206512
    Number of faces shared with processor 19 = 31437
    Number of faces shared with processor 26 = 1381
    Number of faces shared with processor 31 = 625
    Number of faces shared with processor 35 = 31437
    Number of processor patches = 4
    Number of processor faces = 64880
    Number of boundary faces = 2006

Processor 28
    Number of cells = 170881
    Number of points = 204664
    Number of faces shared with processor 20 = 31309
    Number of faces shared with processor 24 = 625
    Number of faces shared with processor 29 = 1339
    Number of faces shared with processor 36 = 31437
    Number of processor patches = 4
    Number of processor faces = 64710
    Number of boundary faces = 2092

Processor 29
    Number of cells = 163469
    Number of points = 197190
    Number of faces shared with processor 21 = 31250
    Number of faces shared with processor 25 = 625
    Number of faces shared with processor 28 = 1339
    Number of faces shared with processor 30 = 1276
    Number of faces shared with processor 37 = 31437
    Number of faces shared with processor 38 = 1
    Number of processor patches = 6
    Number of processor faces = 65928
    Number of boundary faces = 750

Processor 30
    Number of cells = 156952
    Number of points = 190537
    Number of faces shared with processor 22 = 31250
    Number of faces shared with processor 26 = 625
    Number of faces shared with processor 29 = 1276
    Number of faces shared with processor 31 = 1250
    Number of faces shared with processor 38 = 31328
    Number of processor patches = 5
    Number of processor faces = 65729
    Number of boundary faces = 677

Processor 31
    Number of cells = 156250
    Number of points = 189756
    Number of faces shared with processor 23 = 31250
    Number of faces shared with processor 27 = 625
    Number of faces shared with processor 30 = 1250
    Number of faces shared with processor 39 = 31250
    Number of processor patches = 4
    Number of processor faces = 64375
    Number of boundary faces = 1875

Processor 32
    Number of cells = 157339
    Number of points = 190944
    Number of faces shared with processor 24 = 31250
    Number of faces shared with processor 33 = 1250
    Number of faces shared with processor 36 = 690
    Number of faces shared with processor 40 = 31348
    Number of processor patches = 4
    Number of processor faces = 64538
    Number of boundary faces = 1908

Processor 33
    Number of cells = 156250
    Number of points = 189756
    Number of faces shared with processor 25 = 31250
    Number of faces shared with processor 32 = 1250
    Number of faces shared with processor 34 = 1250
    Number of faces shared with processor 37 = 625
    Number of faces shared with processor 41 = 31250
    Number of processor patches = 5
    Number of processor faces = 65625
    Number of boundary faces = 625

Processor 34
    Number of cells = 157573
    Number of points = 191187
    Number of faces shared with processor 26 = 31357
    Number of faces shared with processor 33 = 1250
    Number of faces shared with processor 35 = 1286
    Number of faces shared with processor 38 = 625
    Number of faces shared with processor 42 = 31250
    Number of processor patches = 5
    Number of processor faces = 65768
    Number of boundary faces = 696

Processor 35
    Number of cells = 164719
    Number of points = 198450
    Number of faces shared with processor 26 = 1
    Number of faces shared with processor 27 = 31437
    Number of faces shared with processor 34 = 1286
    Number of faces shared with processor 39 = 625
    Number of faces shared with processor 43 = 31250
    Number of processor patches = 5
    Number of processor faces = 64599
    Number of boundary faces = 2099

Processor 36
    Number of cells = 171599
    Number of points = 205392
    Number of faces shared with processor 28 = 31437
    Number of faces shared with processor 32 = 690
    Number of faces shared with processor 37 = 1381
    Number of faces shared with processor 40 = 2
    Number of faces shared with processor 44 = 31337
    Number of faces shared with processor 45 = 1
    Number of processor patches = 6
    Number of processor faces = 64848
    Number of boundary faces = 1974

Processor 37
    Number of cells = 172687
    Number of points = 206512
    Number of faces shared with processor 29 = 31437
    Number of faces shared with processor 33 = 625
    Number of faces shared with processor 36 = 1381
    Number of faces shared with processor 38 = 1381
    Number of faces shared with processor 45 = 31437
    Number of processor patches = 5
    Number of processor faces = 66261
    Number of boundary faces = 625

Processor 38
    Number of cells = 171392
    Number of points = 205182
    Number of faces shared with processor 29 = 1
    Number of faces shared with processor 30 = 31328
    Number of faces shared with processor 34 = 625
    Number of faces shared with processor 37 = 1381
    Number of faces shared with processor 39 = 1345
    Number of faces shared with processor 46 = 31437
    Number of faces shared with processor 47 = 1
    Number of processor patches = 7
    Number of processor faces = 66118
    Number of boundary faces = 698

Processor 39
    Number of cells = 164231
    Number of points = 197958
    Number of faces shared with processor 31 = 31250
    Number of faces shared with processor 35 = 625
    Number of faces shared with processor 38 = 1345
    Number of faces shared with processor 47 = 31437
    Number of processor patches = 4
    Number of processor faces = 64657
    Number of boundary faces = 2033

Processor 40
    Number of cells = 171817
    Number of points = 205613
    Number of faces shared with processor 32 = 31348
    Number of faces shared with processor 36 = 2
    Number of faces shared with processor 41 = 1352
    Number of faces shared with processor 44 = 683
    Number of faces shared with processor 48 = 31437
    Number of processor patches = 5
    Number of processor faces = 64822
    Number of boundary faces = 2006

Processor 41
    Number of cells = 165094
    Number of points = 198828
    Number of faces shared with processor 33 = 31250
    Number of faces shared with processor 40 = 1352
    Number of faces shared with processor 42 = 1289
    Number of faces shared with processor 45 = 750
    Number of faces shared with processor 49 = 31437
    Number of faces shared with processor 50 = 1
    Number of processor patches = 6
    Number of processor faces = 66079
    Number of boundary faces = 625

Processor 42
    Number of cells = 157810
    Number of points = 191434
    Number of faces shared with processor 34 = 31250
    Number of faces shared with processor 41 = 1289
    Number of faces shared with processor 43 = 1250
    Number of faces shared with processor 46 = 703
    Number of faces shared with processor 50 = 31367
    Number of processor patches = 5
    Number of processor faces = 65859
    Number of boundary faces = 625

Processor 43
    Number of cells = 156250
    Number of points = 189756
    Number of faces shared with processor 35 = 31250
    Number of faces shared with processor 42 = 1250
    Number of faces shared with processor 47 = 625
    Number of faces shared with processor 51 = 31250
    Number of processor patches = 4
    Number of processor faces = 64375
    Number of boundary faces = 1875

Processor 44
    Number of cells = 157120
    Number of points = 190714
    Number of faces shared with processor 36 = 31337
    Number of faces shared with processor 40 = 683
    Number of faces shared with processor 45 = 1279
    Number of faces shared with processor 52 = 31250
    Number of processor patches = 4
    Number of processor faces = 64549
    Number of boundary faces = 1875

Processor 45
    Number of cells = 163844
    Number of points = 197568
    Number of faces shared with processor 36 = 1
    Number of faces shared with processor 37 = 31437
    Number of faces shared with processor 41 = 750
    Number of faces shared with processor 44 = 1279
    Number of faces shared with processor 46 = 1342
    Number of faces shared with processor 53 = 31250
    Number of processor patches = 6
    Number of processor faces = 66059
    Number of boundary faces = 625

Processor 46
    Number of cells = 171127
    Number of points = 204913
    Number of faces shared with processor 38 = 31437
    Number of faces shared with processor 42 = 703
    Number of faces shared with processor 45 = 1342
    Number of faces shared with processor 47 = 1381
    Number of faces shared with processor 50 = 2
    Number of faces shared with processor 54 = 31318
    Number of processor patches = 6
    Number of processor faces = 66183
    Number of boundary faces = 625

Processor 47
    Number of cells = 172728
    Number of points = 206554
    Number of faces shared with processor 38 = 1
    Number of faces shared with processor 39 = 31437
    Number of faces shared with processor 43 = 625
    Number of faces shared with processor 46 = 1381
    Number of faces shared with processor 55 = 31438
    Number of processor patches = 5
    Number of processor faces = 64882
    Number of boundary faces = 2006

Processor 48
    Number of cells = 170572
    Number of points = 204352
    Number of faces shared with processor 40 = 31437
    Number of faces shared with processor 49 = 1381
    Number of faces shared with processor 52 = 625
    Number of faces shared with processor 56 = 31298
    Number of faces shared with processor 57 = 1
    Number of processor patches = 5
    Number of processor faces = 64742
    Number of boundary faces = 2054

Processor 49
    Number of cells = 172687
    Number of points = 206512
    Number of faces shared with processor 41 = 31437
    Number of faces shared with processor 48 = 1381
    Number of faces shared with processor 50 = 1381
    Number of faces shared with processor 53 = 625
    Number of faces shared with processor 57 = 31437
    Number of processor patches = 5
    Number of processor faces = 66261
    Number of boundary faces = 625

Processor 50
    Number of cells = 172159
    Number of points = 205962
    Number of faces shared with processor 41 = 1
    Number of faces shared with processor 42 = 31367
    Number of faces shared with processor 46 = 2
    Number of faces shared with processor 49 = 1381
    Number of faces shared with processor 51 = 1358
    Number of faces shared with processor 54 = 670
    Number of faces shared with processor 58 = 31437
    Number of faces shared with processor 59 = 1
    Number of processor patches = 8
    Number of processor faces = 66217
    Number of boundary faces = 625

Processor 51
    Number of cells = 165906
    Number of points = 199646
    Number of faces shared with processor 43 = 31250
    Number of faces shared with processor 50 = 1358
    Number of faces shared with processor 55 = 750
    Number of faces shared with processor 59 = 31437
    Number of processor patches = 4
    Number of processor faces = 64795
    Number of boundary faces = 1921

Processor 52
    Number of cells = 158396
    Number of points = 192040
    Number of faces shared with processor 44 = 31250
    Number of faces shared with processor 48 = 625
    Number of faces shared with processor 53 = 1250
    Number of faces shared with processor 60 = 31387
    Number of processor patches = 4
    Number of processor faces = 64512
    Number of boundary faces = 2012

Processor 53
    Number of cells = 156250
    Number of points = 189756
    Number of faces shared with processor 45 = 31250
    Number of faces shared with processor 49 = 625
    Number of faces shared with processor 52 = 1250
    Number of faces shared with processor 54 = 1250
    Number of faces shared with processor 61 = 31250
    Number of processor patches = 5
    Number of processor faces = 65625
    Number of boundary faces = 625

Processor 54
    Number of cells = 156779
    Number of points = 190354
    Number of faces shared with processor 46 = 31318
    Number of faces shared with processor 50 = 670
    Number of faces shared with processor 53 = 1250
    Number of faces shared with processor 55 = 1273
    Number of faces shared with processor 62 = 31250
    Number of processor patches = 5
    Number of processor faces = 65761
    Number of boundary faces = 625

Processor 55
    Number of cells = 163041
    Number of points = 196759
    Number of faces shared with processor 47 = 31438
    Number of faces shared with processor 51 = 750
    Number of faces shared with processor 54 = 1273
    Number of faces shared with processor 63 = 31250
    Number of processor patches = 4
    Number of processor faces = 64711
    Number of boundary faces = 1961

Processor 56
    Number of cells = 156522
    Number of points = 190077
    Number of faces shared with processor 48 = 31298
    Number of faces shared with processor 57 = 1266
    Number of faces shared with processor 60 = 625
    Number of faces shared with processor 64 = 31250
    Number of processor patches = 4
    Number of processor faces = 64439
    Number of boundary faces = 1907

Processor 57
    Number of cells = 162219
    Number of points = 195930
    Number of faces shared with processor 48 = 1
    Number of faces shared with processor 49 = 31437
    Number of faces shared with processor 56 = 1266
    Number of faces shared with processor 58 = 1329
    Number of faces shared with processor 61 = 625
    Number of faces shared with processor 65 = 31250
    Number of processor patches = 6
    Number of processor faces = 65908
    Number of boundary faces = 750

Processor 58
    Number of cells = 169931
    Number of points = 203704
    Number of faces shared with processor 50 = 31437
    Number of faces shared with processor 57 = 1329
    Number of faces shared with processor 59 = 1381
    Number of faces shared with processor 62 = 625
    Number of faces shared with processor 66 = 31279
    Number of processor patches = 5
    Number of processor faces = 66051
    Number of boundary faces = 731

Processor 59
    Number of cells = 172688
    Number of points = 206514
    Number of faces shared with processor 50 = 1
    Number of faces shared with processor 51 = 31437
    Number of faces shared with processor 58 = 1381
    Number of faces shared with processor 63 = 625
    Number of faces shared with processor 67 = 31437
    Number of processor patches = 5
    Number of processor faces = 64881
    Number of boundary faces = 2007

Processor 60
    Number of cells = 172448
    Number of points = 206258
    Number of faces shared with processor 52 = 31387
    Number of faces shared with processor 56 = 625
    Number of faces shared with processor 61 = 1365
    Number of faces shared with processor 68 = 31437
    Number of faces shared with processor 69 = 1
    Number of processor patches = 5
    Number of processor faces = 64815
    Number of boundary faces = 2041

Processor 61
    Number of cells = 166726
    Number of points = 200473
    Number of faces shared with processor 53 = 31250
    Number of faces shared with processor 57 = 625
    Number of faces shared with processor 60 = 1365
    Number of faces shared with processor 62 = 1302
    Number of faces shared with processor 69 = 31437
    Number of faces shared with processor 70 = 1
    Number of processor patches = 6
    Number of processor faces = 65980
    Number of boundary faces = 750

Processor 62
    Number of cells = 159006
    Number of points = 192669
    Number of faces shared with processor 54 = 31250
    Number of faces shared with processor 58 = 625
    Number of faces shared with processor 61 = 1302
    Number of faces shared with processor 63 = 1250
    Number of faces shared with processor 70 = 31406
    Number of processor patches = 5
    Number of processor faces = 65833
    Number of boundary faces = 729

Processor 63
    Number of cells = 156250
    Number of points = 189756
    Number of faces shared with processor 55 = 31250
    Number of faces shared with processor 59 = 625
    Number of faces shared with processor 62 = 1250
    Number of faces shared with processor 71 = 31250
    Number of processor patches = 4
    Number of processor faces = 64375
    Number of boundary faces = 1875

Processor 64
    Number of cells = 159790
    Number of points = 193474
    Number of faces shared with processor 56 = 31250
    Number of faces shared with processor 65 = 1250
    Number of faces shared with processor 68 = 743
    Number of faces shared with processor 72 = 31427
    Number of processor patches = 4
    Number of processor faces = 64670
    Number of boundary faces = 1934

Processor 65
    Number of cells = 156250
    Number of points = 189756
    Number of faces shared with processor 57 = 31250
    Number of faces shared with processor 64 = 1250
    Number of faces shared with processor 66 = 1250
    Number of faces shared with processor 69 = 625
    Number of faces shared with processor 73 = 31250
    Number of processor patches = 5
    Number of processor faces = 65625
    Number of boundary faces = 625

Processor 66
    Number of cells = 156350
    Number of points = 189886
    Number of faces shared with processor 58 = 31279
    Number of faces shared with processor 65 = 1250
    Number of faces shared with processor 67 = 1260
    Number of faces shared with processor 70 = 625
    Number of faces shared with processor 74 = 31250
    Number of processor patches = 5
    Number of processor faces = 65664
    Number of boundary faces = 644

Processor 67
    Number of cells = 161406
    Number of points = 195110
    Number of faces shared with processor 59 = 31437
    Number of faces shared with processor 66 = 1260
    Number of faces shared with processor 71 = 625
    Number of faces shared with processor 75 = 31250
    Number of processor patches = 4
    Number of processor faces = 64572
    Number of boundary faces = 2072

Processor 68
    Number of cells = 169147
    Number of points = 202913
    Number of faces shared with processor 60 = 31437
    Number of faces shared with processor 64 = 743
    Number of faces shared with processor 69 = 1381
    Number of faces shared with processor 72 = 2
    Number of faces shared with processor 76 = 31258
    Number of processor patches = 5
    Number of processor faces = 64821
    Number of boundary faces = 1947

Processor 69
    Number of cells = 172728
    Number of points = 206554
    Number of faces shared with processor 60 = 1
    Number of faces shared with processor 61 = 31437
    Number of faces shared with processor 65 = 625
    Number of faces shared with processor 68 = 1381
    Number of faces shared with processor 70 = 1381
    Number of faces shared with processor 77 = 31438
    Number of processor patches = 6
    Number of processor faces = 66263
    Number of boundary faces = 625

Processor 70
    Number of cells = 172588
    Number of points = 206404
    Number of faces shared with processor 61 = 1
    Number of faces shared with processor 62 = 31406
    Number of faces shared with processor 66 = 625
    Number of faces shared with processor 69 = 1381
    Number of faces shared with processor 71 = 1371
    Number of faces shared with processor 78 = 31437
    Number of faces shared with processor 79 = 1
    Number of processor patches = 7
    Number of processor faces = 66222
    Number of boundary faces = 646

Processor 71
    Number of cells = 167531
    Number of points = 201284
    Number of faces shared with processor 63 = 31250
    Number of faces shared with processor 67 = 625
    Number of faces shared with processor 70 = 1371
    Number of faces shared with processor 79 = 31437
    Number of processor patches = 4
    Number of processor faces = 64683
    Number of boundary faces = 2059

Processor 72
    Number of cells = 172679
    Number of points = 206502
    Number of faces shared with processor 64 = 31427
    Number of faces shared with processor 68 = 2
    Number of faces shared with processor 73 = 1378
    Number of faces shared with processor 76 = 630
    Number of faces shared with processor 80 = 31437
    Number of faces shared with processor 81 = 1
    Number of processor patches = 6
    Number of processor faces = 64875
    Number of boundary faces = 2007

Processor 73
    Number of cells = 168406
    Number of points = 202166
    Number of faces shared with processor 65 = 31250
    Number of faces shared with processor 72 = 1378
    Number of faces shared with processor 74 = 1316
    Number of faces shared with processor 77 = 750
    Number of faces shared with processor 81 = 31437
    Number of processor patches = 5
    Number of processor faces = 66131
    Number of boundary faces = 625

Processor 74
    Number of cells = 160556
    Number of points = 194254
    Number of faces shared with processor 66 = 31250
    Number of faces shared with processor 73 = 1316
    Number of faces shared with processor 75 = 1253
    Number of faces shared with processor 78 = 750
    Number of faces shared with processor 82 = 31438
    Number of processor patches = 5
    Number of processor faces = 66007
    Number of boundary faces = 625

Processor 75
    Number of cells = 156259
    Number of points = 189774
    Number of faces shared with processor 67 = 31250
    Number of faces shared with processor 74 = 1253
    Number of faces shared with processor 79 = 630
    Number of faces shared with processor 83 = 31258
    Number of processor patches = 4
    Number of processor faces = 64391
    Number of boundary faces = 1875

Processor 76
    Number of cells = 156259
    Number of points = 189774
    Number of faces shared with processor 68 = 31258
    Number of faces shared with processor 72 = 630
    Number of faces shared with processor 77 = 1253
    Number of faces shared with processor 84 = 31250
    Number of processor patches = 4
    Number of processor faces = 64391
    Number of boundary faces = 1875

Processor 77
    Number of cells = 160546
    Number of points = 194244
    Number of faces shared with processor 69 = 31438
    Number of faces shared with processor 73 = 750
    Number of faces shared with processor 76 = 1253
    Number of faces shared with processor 78 = 1316
    Number of faces shared with processor 85 = 31250
    Number of processor patches = 5
    Number of processor faces = 66007
    Number of boundary faces = 625

Processor 78
    Number of cells = 168406
    Number of points = 202166
    Number of faces shared with processor 70 = 31437
    Number of faces shared with processor 74 = 750
    Number of faces shared with processor 77 = 1316
    Number of faces shared with processor 79 = 1378
    Number of faces shared with processor 86 = 31250
    Number of processor patches = 5
    Number of processor faces = 66131
    Number of boundary faces = 625

Processor 79
    Number of cells = 172679
    Number of points = 206502
    Number of faces shared with processor 70 = 1
    Number of faces shared with processor 71 = 31437
    Number of faces shared with processor 75 = 630
    Number of faces shared with processor 78 = 1378
    Number of faces shared with processor 83 = 2
    Number of faces shared with processor 87 = 31427
    Number of processor patches = 6
    Number of processor faces = 64875
    Number of boundary faces = 2007

Processor 80
    Number of cells = 167531
    Number of points = 201284
    Number of faces shared with processor 72 = 31437
    Number of faces shared with processor 81 = 1371
    Number of faces shared with processor 84 = 625
    Number of faces shared with processor 88 = 31250
    Number of processor patches = 4
    Number of processor faces = 64683
    Number of boundary faces = 2059

Processor 81
    Number of cells = 172588
    Number of points = 206404
    Number of faces shared with processor 72 = 1
    Number of faces shared with processor 73 = 31437
    Number of faces shared with processor 80 = 1371
    Number of faces shared with processor 82 = 1381
    Number of faces shared with processor 85 = 625
    Number of faces shared with processor 89 = 31406
    Number of faces shared with processor 90 = 1
    Number of processor patches = 7
    Number of processor faces = 66222
    Number of boundary faces = 646

Processor 82
    Number of cells = 172725
    Number of points = 206551
    Number of faces shared with processor 74 = 31438
    Number of faces shared with processor 81 = 1381
    Number of faces shared with processor 83 = 1382
    Number of faces shared with processor 86 = 625
    Number of faces shared with processor 90 = 31437
    Number of processor patches = 5
    Number of processor faces = 66263
    Number of boundary faces = 625

Processor 83
    Number of cells = 169150
    Number of points = 202917
    Number of faces shared with processor 75 = 31258
    Number of faces shared with processor 79 = 2
    Number of faces shared with processor 82 = 1382
    Number of faces shared with processor 87 = 743
    Number of faces shared with processor 91 = 31438
    Number of processor patches = 5
    Number of processor faces = 64823
    Number of boundary faces = 1947

Processor 84
    Number of cells = 161406
    Number of points = 195110
    Number of faces shared with processor 76 = 31250
    Number of faces shared with processor 80 = 625
    Number of faces shared with processor 85 = 1260
    Number of faces shared with processor 92 = 31437
    Number of processor patches = 4
    Number of processor faces = 64572
    Number of boundary faces = 2072

Processor 85
    Number of cells = 156350
    Number of points = 189886
    Number of faces shared with processor 77 = 31250
    Number of faces shared with processor 81 = 625
    Number of faces shared with processor 84 = 1260
    Number of faces shared with processor 86 = 1250
    Number of faces shared with processor 93 = 31279
    Number of processor patches = 5
    Number of processor faces = 65664
    Number of boundary faces = 644

Processor 86
    Number of cells = 156250
    Number of points = 189756
    Number of faces shared with processor 78 = 31250
    Number of faces shared with processor 82 = 625
    Number of faces shared with processor 85 = 1250
    Number of faces shared with processor 87 = 1250
    Number of faces shared with processor 94 = 31250
    Number of processor patches = 5
    Number of processor faces = 65625
    Number of boundary faces = 625

Processor 87
    Number of cells = 159790
    Number of points = 193474
    Number of faces shared with processor 79 = 31427
    Number of faces shared with processor 83 = 743
    Number of faces shared with processor 86 = 1250
    Number of faces shared with processor 95 = 31250
    Number of processor patches = 4
    Number of processor faces = 64670
    Number of boundary faces = 1934

Processor 88
    Number of cells = 156250
    Number of points = 189756
    Number of faces shared with processor 80 = 31250
    Number of faces shared with processor 89 = 1250
    Number of faces shared with processor 92 = 625
    Number of faces shared with processor 96 = 31250
    Number of processor patches = 4
    Number of processor faces = 64375
    Number of boundary faces = 1875

Processor 89
    Number of cells = 159006
    Number of points = 192669
    Number of faces shared with processor 81 = 31406
    Number of faces shared with processor 88 = 1250
    Number of faces shared with processor 90 = 1302
    Number of faces shared with processor 93 = 625
    Number of faces shared with processor 97 = 31250
    Number of processor patches = 5
    Number of processor faces = 65833
    Number of boundary faces = 729

Processor 90
    Number of cells = 166719
    Number of points = 200466
    Number of faces shared with processor 81 = 1
    Number of faces shared with processor 82 = 31437
    Number of faces shared with processor 89 = 1302
    Number of faces shared with processor 91 = 1365
    Number of faces shared with processor 94 = 625
    Number of faces shared with processor 98 = 31250
    Number of processor patches = 6
    Number of processor faces = 65980
    Number of boundary faces = 750

Processor 91
    Number of cells = 172455
    Number of points = 206265
    Number of faces shared with processor 83 = 31438
    Number of faces shared with processor 90 = 1365
    Number of faces shared with processor 95 = 625
    Number of faces shared with processor 99 = 31387
    Number of processor patches = 4
    Number of processor faces = 64815
    Number of boundary faces = 2041

Processor 92
    Number of cells = 172688
    Number of points = 206514
    Number of faces shared with processor 84 = 31437
    Number of faces shared with processor 88 = 625
    Number of faces shared with processor 93 = 1381
    Number of faces shared with processor 100 = 31437
    Number of faces shared with processor 101 = 1
    Number of processor patches = 5
    Number of processor faces = 64881
    Number of boundary faces = 2007

Processor 93
    Number of cells = 169931
    Number of points = 203704
    Number of faces shared with processor 85 = 31279
    Number of faces shared with processor 89 = 625
    Number of faces shared with processor 92 = 1381
    Number of faces shared with processor 94 = 1329
    Number of faces shared with processor 101 = 31437
    Number of processor patches = 5
    Number of processor faces = 66051
    Number of boundary faces = 731

Processor 94
    Number of cells = 162219
    Number of points = 195930
    Number of faces shared with processor 86 = 31250
    Number of faces shared with processor 90 = 625
    Number of faces shared with processor 93 = 1329
    Number of faces shared with processor 95 = 1266
    Number of faces shared with processor 102 = 31437
    Number of faces shared with processor 103 = 1
    Number of processor patches = 6
    Number of processor faces = 65908
    Number of boundary faces = 750

Processor 95
    Number of cells = 156522
    Number of points = 190077
    Number of faces shared with processor 87 = 31250
    Number of faces shared with processor 91 = 625
    Number of faces shared with processor 94 = 1266
    Number of faces shared with processor 103 = 31298
    Number of processor patches = 4
    Number of processor faces = 64439
    Number of boundary faces = 1907

Processor 96
    Number of cells = 163051
    Number of points = 196769
    Number of faces shared with processor 88 = 31250
    Number of faces shared with processor 97 = 1273
    Number of faces shared with processor 100 = 750
    Number of faces shared with processor 104 = 31438
    Number of processor patches = 4
    Number of processor faces = 64711
    Number of boundary faces = 1961

Processor 97
    Number of cells = 156779
    Number of points = 190354
    Number of faces shared with processor 89 = 31250
    Number of faces shared with processor 96 = 1273
    Number of faces shared with processor 98 = 1250
    Number of faces shared with processor 101 = 670
    Number of faces shared with processor 105 = 31318
    Number of processor patches = 5
    Number of processor faces = 65761
    Number of boundary faces = 625

Processor 98
    Number of cells = 156250
    Number of points = 189756
    Number of faces shared with processor 90 = 31250
    Number of faces shared with processor 97 = 1250
    Number of faces shared with processor 99 = 1250
    Number of faces shared with processor 102 = 625
    Number of faces shared with processor 106 = 31250
    Number of processor patches = 5
    Number of processor faces = 65625
    Number of boundary faces = 625

Processor 99
    Number of cells = 158386
    Number of points = 192030
    Number of faces shared with processor 91 = 31387
    Number of faces shared with processor 98 = 1250
    Number of faces shared with processor 103 = 625
    Number of faces shared with processor 107 = 31250
    Number of processor patches = 4
    Number of processor faces = 64512
    Number of boundary faces = 2012

Processor 100
    Number of cells = 165906
    Number of points = 199646
    Number of faces shared with processor 92 = 31437
    Number of faces shared with processor 96 = 750
    Number of faces shared with processor 101 = 1358
    Number of faces shared with processor 108 = 31250
    Number of processor patches = 4
    Number of processor faces = 64795
    Number of boundary faces = 1921

Processor 101
    Number of cells = 172159
    Number of points = 205962
    Number of faces shared with processor 92 = 1
    Number of faces shared with processor 93 = 31437
    Number of faces shared with processor 97 = 670
    Number of faces shared with processor 100 = 1358
    Number of faces shared with processor 102 = 1381
    Number of faces shared with processor 105 = 2
    Number of faces shared with processor 109 = 31367
    Number of faces shared with processor 110 = 1
    Number of processor patches = 8
    Number of processor faces = 66217
    Number of boundary faces = 625

Processor 102
    Number of cells = 172687
    Number of points = 206512
    Number of faces shared with processor 94 = 31437
    Number of faces shared with processor 98 = 625
    Number of faces shared with processor 101 = 1381
    Number of faces shared with processor 103 = 1381
    Number of faces shared with processor 110 = 31437
    Number of processor patches = 5
    Number of processor faces = 66261
    Number of boundary faces = 625

Processor 103
    Number of cells = 170572
    Number of points = 204352
    Number of faces shared with processor 94 = 1
    Number of faces shared with processor 95 = 31298
    Number of faces shared with processor 99 = 625
    Number of faces shared with processor 102 = 1381
    Number of faces shared with processor 111 = 31437
    Number of processor patches = 5
    Number of processor faces = 64742
    Number of boundary faces = 2054

Processor 104
    Number of cells = 172728
    Number of points = 206554
    Number of faces shared with processor 96 = 31438
    Number of faces shared with processor 105 = 1381
    Number of faces shared with processor 108 = 625
    Number of faces shared with processor 112 = 31437
    Number of faces shared with processor 113 = 1
    Number of processor patches = 5
    Number of processor faces = 64882
    Number of boundary faces = 2006

Processor 105
    Number of cells = 171127
    Number of points = 204913
    Number of faces shared with processor 97 = 31318
    Number of faces shared with processor 101 = 2
    Number of faces shared with processor 104 = 1381
    Number of faces shared with processor 106 = 1342
    Number of faces shared with processor 109 = 703
    Number of faces shared with processor 113 = 31437
    Number of processor patches = 6
    Number of processor faces = 66183
    Number of boundary faces = 625

Processor 106
    Number of cells = 163844
    Number of points = 197568
    Number of faces shared with processor 98 = 31250
    Number of faces shared with processor 105 = 1342
    Number of faces shared with processor 107 = 1279
    Number of faces shared with processor 110 = 750
    Number of faces shared with processor 114 = 31437
    Number of faces shared with processor 115 = 1
    Number of processor patches = 6
    Number of processor faces = 66059
    Number of boundary faces = 625

Processor 107
    Number of cells = 157120
    Number of points = 190714
    Number of faces shared with processor 99 = 31250
    Number of faces shared with processor 106 = 1279
    Number of faces shared with processor 111 = 683
    Number of faces shared with processor 115 = 31337
    Number of processor patches = 4
    Number of processor faces = 64549
    Number of boundary faces = 1875

Processor 108
    Number of cells = 156250
    Number of points = 189756
    Number of faces shared with processor 100 = 31250
    Number of faces shared with processor 104 = 625
    Number of faces shared with processor 109 = 1250
    Number of faces shared with processor 116 = 31250
    Number of processor patches = 4
    Number of processor faces = 64375
    Number of boundary faces = 1875

Processor 109
    Number of cells = 157810
    Number of points = 191434
    Number of faces shared with processor 101 = 31367
    Number of faces shared with processor 105 = 703
    Number of faces shared with processor 108 = 1250
    Number of faces shared with processor 110 = 1289
    Number of faces shared with processor 117 = 31250
    Number of processor patches = 5
    Number of processor faces = 65859
    Number of boundary faces = 625

Processor 110
    Number of cells = 165094
    Number of points = 198828
    Number of faces shared with processor 101 = 1
    Number of faces shared with processor 102 = 31437
    Number of faces shared with processor 106 = 750
    Number of faces shared with processor 109 = 1289
    Number of faces shared with processor 111 = 1352
    Number of faces shared with processor 118 = 31250
    Number of processor patches = 6
    Number of processor faces = 66079
    Number of boundary faces = 625

Processor 111
    Number of cells = 171817
    Number of points = 205613
    Number of faces shared with processor 103 = 31437
    Number of faces shared with processor 107 = 683
    Number of faces shared with processor 110 = 1352
    Number of faces shared with processor 115 = 2
    Number of faces shared with processor 119 = 31348
    Number of processor patches = 5
    Number of processor faces = 64822
    Number of boundary faces = 2006

Processor 112
    Number of cells = 164221
    Number of points = 197948
    Number of faces shared with processor 104 = 31437
    Number of faces shared with processor 113 = 1345
    Number of faces shared with processor 116 = 625
    Number of faces shared with processor 120 = 31250
    Number of processor patches = 4
    Number of processor faces = 64657
    Number of boundary faces = 2033

Processor 113
    Number of cells = 171393
    Number of points = 205183
    Number of faces shared with processor 104 = 1
    Number of faces shared with processor 105 = 31437
    Number of faces shared with processor 112 = 1345
    Number of faces shared with processor 114 = 1381
    Number of faces shared with processor 117 = 625
    Number of faces shared with processor 121 = 31327
    Number of faces shared with processor 122 = 1
    Number of processor patches = 7
    Number of processor faces = 66117
    Number of boundary faces = 699

Processor 114
    Number of cells = 172687
    Number of points = 206512
    Number of faces shared with processor 106 = 31437
    Number of faces shared with processor 113 = 1381
    Number of faces shared with processor 115 = 1381
    Number of faces shared with processor 118 = 625
    Number of faces shared with processor 122 = 31437
    Number of processor patches = 5
    Number of processor faces = 66261
    Number of boundary faces = 625

Processor 115
    Number of cells = 171599
    Number of points = 205392
    Number of faces shared with processor 106 = 1
    Number of faces shared with processor 107 = 31337
    Number of faces shared with processor 111 = 2
    Number of faces shared with processor 114 = 1381
    Number of faces shared with processor 119 = 690
    Number of faces shared with processor 123 = 31437
    Number of processor patches = 6
    Number of processor faces = 64848
    Number of boundary faces = 1974

Processor 116
    Number of cells = 164719
    Number of points = 198450
    Number of faces shared with processor 108 = 31250
    Number of faces shared with processor 112 = 625
    Number of faces shared with processor 117 = 1286
    Number of faces shared with processor 124 = 31437
    Number of faces shared with processor 125 = 1
    Number of processor patches = 5
    Number of processor faces = 64599
    Number of boundary faces = 2099

Processor 117
    Number of cells = 157582
    Number of points = 191197
    Number of faces shared with processor 109 = 31250
    Number of faces shared with processor 113 = 625
    Number of faces shared with processor 116 = 1286
    Number of faces shared with processor 118 = 1250
    Number of faces shared with processor 125 = 31358
    Number of processor patches = 5
    Number of processor faces = 65769
    Number of boundary faces = 697

Processor 118
    Number of cells = 156250
    Number of points = 189756
    Number of faces shared with processor 110 = 31250
    Number of faces shared with processor 114 = 625
    Number of faces shared with processor 117 = 1250
    Number of faces shared with processor 119 = 1250
    Number of faces shared with processor 126 = 31250
    Number of processor patches = 5
    Number of processor faces = 65625
    Number of boundary faces = 625

Processor 119
    Number of cells = 157339
    Number of points = 190944
    Number of faces shared with processor 111 = 31348
    Number of faces shared with processor 115 = 690
    Number of faces shared with processor 118 = 1250
    Number of faces shared with processor 127 = 31250
    Number of processor patches = 4
    Number of processor faces = 64538
    Number of boundary faces = 1908

Processor 120
    Number of cells = 156250
    Number of points = 189756
    Number of faces shared with processor 128 = 31250
    Number of faces shared with processor 112 = 31250
    Number of faces shared with processor 121 = 1250
    Number of faces shared with processor 124 = 625
    Number of processor patches = 4
    Number of processor faces = 64375
    Number of boundary faces = 1875

Processor 121
    Number of cells = 156951
    Number of points = 190535
    Number of faces shared with processor 129 = 31250
    Number of faces shared with processor 113 = 31327
    Number of faces shared with processor 120 = 1250
    Number of faces shared with processor 122 = 1276
    Number of faces shared with processor 125 = 625
    Number of processor patches = 5
    Number of processor faces = 65728
    Number of boundary faces = 676

Processor 122
    Number of cells = 163469
    Number of points = 197190
    Number of faces shared with processor 130 = 31250
    Number of faces shared with processor 113 = 1
    Number of faces shared with processor 114 = 31437
    Number of faces shared with processor 121 = 1276
    Number of faces shared with processor 123 = 1339
    Number of faces shared with processor 126 = 625
    Number of processor patches = 6
    Number of processor faces = 65928
    Number of boundary faces = 750

Processor 123
    Number of cells = 170881
    Number of points = 204664
    Number of faces shared with processor 131 = 31309
    Number of faces shared with processor 115 = 31437
    Number of faces shared with processor 122 = 1339
    Number of faces shared with processor 127 = 625
    Number of processor patches = 4
    Number of processor faces = 64710
    Number of boundary faces = 2092

Processor 124
    Number of cells = 172687
    Number of points = 206512
    Number of faces shared with processor 132 = 31437
    Number of faces shared with processor 116 = 31437
    Number of faces shared with processor 120 = 625
    Number of faces shared with processor 125 = 1381
    Number of processor patches = 4
    Number of processor faces = 64880
    Number of boundary faces = 2006

Processor 125
    Number of cells = 172012
    Number of points = 205812
    Number of faces shared with processor 133 = 31437
    Number of faces shared with processor 134 = 1
    Number of faces shared with processor 116 = 1
    Number of faces shared with processor 117 = 31358
    Number of faces shared with processor 121 = 625
    Number of faces shared with processor 124 = 1381
    Number of faces shared with processor 126 = 1355
    Number of processor patches = 7
    Number of processor faces = 66158
    Number of boundary faces = 678

Processor 126
    Number of cells = 165484
    Number of points = 199221
    Number of faces shared with processor 134 = 31437
    Number of faces shared with processor 135 = 1
    Number of faces shared with processor 118 = 31250
    Number of faces shared with processor 122 = 625
    Number of faces shared with processor 125 = 1355
    Number of faces shared with processor 127 = 1292
    Number of processor patches = 6
    Number of processor faces = 65960
    Number of boundary faces = 750

Processor 127
    Number of cells = 158056
    Number of points = 191689
    Number of faces shared with processor 135 = 31376
    Number of faces shared with processor 119 = 31250
    Number of faces shared with processor 123 = 625
    Number of faces shared with processor 126 = 1292
    Number of processor patches = 4
    Number of processor faces = 64543
    Number of boundary faces = 1959

Processor 128
    Number of cells = 166344
    Number of points = 200088
    Number of faces shared with processor 129 = 1299
    Number of faces shared with processor 132 = 750
    Number of faces shared with processor 136 = 31437
    Number of faces shared with processor 137 = 1
    Number of faces shared with processor 120 = 31250
    Number of processor patches = 5
    Number of processor faces = 64737
    Number of boundary faces = 1987

Processor 129
    Number of cells = 158700
    Number of points = 192354
    Number of faces shared with processor 128 = 1299
    Number of faces shared with processor 130 = 1250
    Number of faces shared with processor 133 = 723
    Number of faces shared with processor 137 = 31397
    Number of faces shared with processor 121 = 31250
    Number of processor patches = 5
    Number of processor faces = 65919
    Number of boundary faces = 625

Processor 130
    Number of cells = 156250
    Number of points = 189756
    Number of faces shared with processor 129 = 1250
    Number of faces shared with processor 131 = 1250
    Number of faces shared with processor 134 = 625
    Number of faces shared with processor 138 = 31250
    Number of faces shared with processor 122 = 31250
    Number of processor patches = 5
    Number of processor faces = 65625
    Number of boundary faces = 625

Processor 131
    Number of cells = 156650
    Number of points = 190216
    Number of faces shared with processor 130 = 1250
    Number of faces shared with processor 135 = 625
    Number of faces shared with processor 139 = 31250
    Number of faces shared with processor 123 = 31309
    Number of processor patches = 4
    Number of processor faces = 64434
    Number of boundary faces = 1934

Processor 132
    Number of cells = 162594
    Number of points = 196308
    Number of faces shared with processor 128 = 750
    Number of faces shared with processor 133 = 1332
    Number of faces shared with processor 140 = 31250
    Number of faces shared with processor 124 = 31437
    Number of processor patches = 4
    Number of processor faces = 64769
    Number of boundary faces = 1895

Processor 133
    Number of cells = 170237
    Number of points = 204013
    Number of faces shared with processor 129 = 723
    Number of faces shared with processor 132 = 1332
    Number of faces shared with processor 134 = 1381
    Number of faces shared with processor 137 = 2
    Number of faces shared with processor 141 = 31288
    Number of faces shared with processor 125 = 31437
    Number of processor patches = 6
    Number of processor faces = 66163
    Number of boundary faces = 625

Processor 134
    Number of cells = 172727
    Number of points = 206553
    Number of faces shared with processor 130 = 625
    Number of faces shared with processor 133 = 1381
    Number of faces shared with processor 135 = 1381
    Number of faces shared with processor 142 = 31438
    Number of faces shared with processor 125 = 1
    Number of faces shared with processor 126 = 31437
    Number of processor patches = 6
    Number of processor faces = 66263
    Number of boundary faces = 625

Processor 135
    Number of cells = 172288
    Number of points = 206094
    Number of faces shared with processor 131 = 625
    Number of faces shared with processor 134 = 1381
    Number of faces shared with processor 143 = 31437
    Number of faces shared with processor 126 = 1
    Number of faces shared with processor 127 = 31376
    Number of processor patches = 5
    Number of processor faces = 64820
    Number of boundary faces = 2028

Processor 136
    Number of cells = 172687
    Number of points = 206512
    Number of faces shared with processor 128 = 31437
    Number of faces shared with processor 137 = 1381
    Number of faces shared with processor 140 = 625
    Number of faces shared with processor 144 = 31437
    Number of processor patches = 4
    Number of processor faces = 64880
    Number of boundary faces = 2006

Processor 137
    Number of cells = 172519
    Number of points = 206332
    Number of faces shared with processor 128 = 1
    Number of faces shared with processor 129 = 31397
    Number of faces shared with processor 133 = 2
    Number of faces shared with processor 136 = 1381
    Number of faces shared with processor 138 = 1368
    Number of faces shared with processor 141 = 650
    Number of faces shared with processor 145 = 31437
    Number of faces shared with processor 146 = 1
    Number of processor patches = 8
    Number of processor faces = 66237
    Number of boundary faces = 625

Processor 138
    Number of cells = 167156
    Number of points = 200906
    Number of faces shared with processor 130 = 31250
    Number of faces shared with processor 137 = 1368
    Number of faces shared with processor 139 = 1306
    Number of faces shared with processor 142 = 750
    Number of faces shared with processor 146 = 31437
    Number of processor patches = 5
    Number of processor faces = 66111
    Number of boundary faces = 625

Processor 139
    Number of cells = 159363
    Number of points = 193036
    Number of faces shared with processor 131 = 31250
    Number of faces shared with processor 138 = 1306
    Number of faces shared with processor 143 = 735
    Number of faces shared with processor 147 = 31416
    Number of processor patches = 4
    Number of processor faces = 64707
    Number of boundary faces = 1875

Processor 140
    Number of cells = 156250
    Number of points = 189756
    Number of faces shared with processor 132 = 31250
    Number of faces shared with processor 136 = 625
    Number of faces shared with processor 141 = 1250
    Number of faces shared with processor 148 = 31250
    Number of processor patches = 4
    Number of processor faces = 64375
    Number of boundary faces = 1875

Processor 141
    Number of cells = 156419
    Number of points = 189964
    Number of faces shared with processor 133 = 31288
    Number of faces shared with processor 137 = 650
    Number of faces shared with processor 140 = 1250
    Number of faces shared with processor 142 = 1263
    Number of faces shared with processor 149 = 31250
    Number of processor patches = 5
    Number of processor faces = 65701
    Number of boundary faces = 625

Processor 142
    Number of cells = 161789
    Number of points = 195497
    Number of faces shared with processor 134 = 31438
    Number of faces shared with processor 138 = 750
    Number of faces shared with processor 141 = 1263
    Number of faces shared with processor 143 = 1326
    Number of faces shared with processor 150 = 31250
    Number of processor patches = 5
    Number of processor faces = 66027
    Number of boundary faces = 625

Processor 143
    Number of cells = 169607
    Number of points = 203377
    Number of faces shared with processor 135 = 31437
    Number of faces shared with processor 139 = 735
    Number of faces shared with processor 142 = 1326
    Number of faces shared with processor 147 = 2
    Number of faces shared with processor 151 = 31270
    Number of processor patches = 5
    Number of processor faces = 64770
    Number of boundary faces = 2006

Processor 144
    Number of cells = 160969
    Number of points = 194670
    Number of faces shared with processor 136 = 31437
    Number of faces shared with processor 145 = 1319
    Number of faces shared with processor 148 = 625
    Number of faces shared with processor 152 = 31250
    Number of processor patches = 4
    Number of processor faces = 64631
    Number of boundary faces = 2007

Processor 145
    Number of cells = 168781
    Number of points = 202544
    Number of faces shared with processor 137 = 31437
    Number of faces shared with processor 144 = 1319
    Number of faces shared with processor 146 = 1381
    Number of faces shared with processor 149 = 625
    Number of faces shared with processor 153 = 31250
    Number of processor patches = 5
    Number of processor faces = 66012
    Number of boundary faces = 750

Processor 146
    Number of cells = 172688
    Number of points = 206514
    Number of faces shared with processor 137 = 1
    Number of faces shared with processor 138 = 31437
    Number of faces shared with processor 145 = 1381
    Number of faces shared with processor 147 = 1381
    Number of faces shared with processor 150 = 625
    Number of faces shared with processor 154 = 31436
    Number of faces shared with processor 155 = 1
    Number of processor patches = 7
    Number of processor faces = 66262
    Number of boundary faces = 626

Processor 147
    Number of cells = 172668
    Number of points = 206487
    Number of faces shared with processor 139 = 31416
    Number of faces shared with processor 143 = 2
    Number of faces shared with processor 146 = 1381
    Number of faces shared with processor 151 = 638
    Number of faces shared with processor 155 = 31437
    Number of processor patches = 5
    Number of processor faces = 64874
    Number of boundary faces = 2000

Processor 148
    Number of cells = 167979
    Number of points = 201736
    Number of faces shared with processor 140 = 31250
    Number of faces shared with processor 144 = 625
    Number of faces shared with processor 149 = 1312
    Number of faces shared with processor 156 = 31437
    Number of faces shared with processor 157 = 1
    Number of processor patches = 5
    Number of processor faces = 64625
    Number of boundary faces = 2125

Processor 149
    Number of cells = 160156
    Number of points = 193849
    Number of faces shared with processor 141 = 31250
    Number of faces shared with processor 145 = 625
    Number of faces shared with processor 148 = 1312
    Number of faces shared with processor 150 = 1250
    Number of faces shared with processor 157 = 31436
    Number of processor patches = 5
    Number of processor faces = 65873
    Number of boundary faces = 749

Processor 150
    Number of cells = 156250
    Number of points = 189756
    Number of faces shared with processor 142 = 31250
    Number of faces shared with processor 146 = 625
    Number of faces shared with processor 149 = 1250
    Number of faces shared with processor 151 = 1250
    Number of faces shared with processor 158 = 31250
    Number of processor patches = 5
    Number of processor faces = 65625
    Number of boundary faces = 625

Processor 151
    Number of cells = 156299
    Number of points = 189826
    Number of faces shared with processor 143 = 31270
    Number of faces shared with processor 147 = 638
    Number of faces shared with processor 150 = 1250
    Number of faces shared with processor 159 = 31250
    Number of processor patches = 4
    Number of processor faces = 64408
    Number of boundary faces = 1882

Processor 152
    Number of cells = 156299
    Number of points = 189826
    Number of faces shared with processor 144 = 31250
    Number of faces shared with processor 153 = 1250
    Number of faces shared with processor 156 = 638
    Number of faces shared with processor 160 = 31270
    Number of processor patches = 4
    Number of processor faces = 64408
    Number of boundary faces = 1882

Processor 153
    Number of cells = 156250
    Number of points = 189756
    Number of faces shared with processor 145 = 31250
    Number of faces shared with processor 152 = 1250
    Number of faces shared with processor 154 = 1250
    Number of faces shared with processor 157 = 625
    Number of faces shared with processor 161 = 31250
    Number of processor patches = 5
    Number of processor faces = 65625
    Number of boundary faces = 625

Processor 154
    Number of cells = 160156
    Number of points = 193849
    Number of faces shared with processor 146 = 31436
    Number of faces shared with processor 153 = 1250
    Number of faces shared with processor 155 = 1312
    Number of faces shared with processor 158 = 625
    Number of faces shared with processor 162 = 31250
    Number of processor patches = 5
    Number of processor faces = 65873
    Number of boundary faces = 749

Processor 155
    Number of cells = 167969
    Number of points = 201726
    Number of faces shared with processor 146 = 1
    Number of faces shared with processor 147 = 31437
    Number of faces shared with processor 154 = 1312
    Number of faces shared with processor 159 = 625
    Number of faces shared with processor 163 = 31250
    Number of processor patches = 5
    Number of processor faces = 64625
    Number of boundary faces = 2125

Processor 156
    Number of cells = 172678
    Number of points = 206497
    Number of faces shared with processor 148 = 31437
    Number of faces shared with processor 152 = 638
    Number of faces shared with processor 157 = 1381
    Number of faces shared with processor 160 = 2
    Number of faces shared with processor 164 = 31416
    Number of processor patches = 5
    Number of processor faces = 64874
    Number of boundary faces = 2000

Processor 157
    Number of cells = 172688
    Number of points = 206514
    Number of faces shared with processor 148 = 1
    Number of faces shared with processor 149 = 31436
    Number of faces shared with processor 153 = 625
    Number of faces shared with processor 156 = 1381
    Number of faces shared with processor 158 = 1381
    Number of faces shared with processor 165 = 31437
    Number of faces shared with processor 166 = 1
    Number of processor patches = 7
    Number of processor faces = 66262
    Number of boundary faces = 626

Processor 158
    Number of cells = 168781
    Number of points = 202544
    Number of faces shared with processor 150 = 31250
    Number of faces shared with processor 154 = 625
    Number of faces shared with processor 157 = 1381
    Number of faces shared with processor 159 = 1319
    Number of faces shared with processor 166 = 31437
    Number of processor patches = 5
    Number of processor faces = 66012
    Number of boundary faces = 750

Processor 159
    Number of cells = 160969
    Number of points = 194670
    Number of faces shared with processor 151 = 31250
    Number of faces shared with processor 155 = 625
    Number of faces shared with processor 158 = 1319
    Number of faces shared with processor 167 = 31437
    Number of processor patches = 4
    Number of processor faces = 64631
    Number of boundary faces = 2007

Processor 160
    Number of cells = 169607
    Number of points = 203377
    Number of faces shared with processor 152 = 31270
    Number of faces shared with processor 156 = 2
    Number of faces shared with processor 161 = 1326
    Number of faces shared with processor 164 = 735
    Number of faces shared with processor 168 = 31437
    Number of processor patches = 5
    Number of processor faces = 64770
    Number of boundary faces = 2006

Processor 161
    Number of cells = 161809
    Number of points = 195517
    Number of faces shared with processor 153 = 31250
    Number of faces shared with processor 160 = 1326
    Number of faces shared with processor 162 = 1263
    Number of faces shared with processor 165 = 750
    Number of faces shared with processor 169 = 31438
    Number of processor patches = 5
    Number of processor faces = 66027
    Number of boundary faces = 625

Processor 162
    Number of cells = 156419
    Number of points = 189964
    Number of faces shared with processor 154 = 31250
    Number of faces shared with processor 161 = 1263
    Number of faces shared with processor 163 = 1250
    Number of faces shared with processor 166 = 650
    Number of faces shared with processor 170 = 31288
    Number of processor patches = 5
    Number of processor faces = 65701
    Number of boundary faces = 625

Processor 163
    Number of cells = 156250
    Number of points = 189756
    Number of faces shared with processor 155 = 31250
    Number of faces shared with processor 162 = 1250
    Number of faces shared with processor 167 = 625
    Number of faces shared with processor 171 = 31250
    Number of processor patches = 4
    Number of processor faces = 64375
    Number of boundary faces = 1875

Processor 164
    Number of cells = 159343
    Number of points = 193016
    Number of faces shared with processor 156 = 31416
    Number of faces shared with processor 160 = 735
    Number of faces shared with processor 165 = 1306
    Number of faces shared with processor 172 = 31250
    Number of processor patches = 4
    Number of processor faces = 64707
    Number of boundary faces = 1875

Processor 165
    Number of cells = 167156
    Number of points = 200906
    Number of faces shared with processor 157 = 31437
    Number of faces shared with processor 161 = 750
    Number of faces shared with processor 164 = 1306
    Number of faces shared with processor 166 = 1368
    Number of faces shared with processor 173 = 31250
    Number of processor patches = 5
    Number of processor faces = 66111
    Number of boundary faces = 625

Processor 166
    Number of cells = 172519
    Number of points = 206332
    Number of faces shared with processor 157 = 1
    Number of faces shared with processor 158 = 31437
    Number of faces shared with processor 162 = 650
    Number of faces shared with processor 165 = 1368
    Number of faces shared with processor 167 = 1381
    Number of faces shared with processor 170 = 2
    Number of faces shared with processor 174 = 31397
    Number of faces shared with processor 175 = 1
    Number of processor patches = 8
    Number of processor faces = 66237
    Number of boundary faces = 625

Processor 167
    Number of cells = 172687
    Number of points = 206512
    Number of faces shared with processor 159 = 31437
    Number of faces shared with processor 163 = 625
    Number of faces shared with processor 166 = 1381
    Number of faces shared with processor 175 = 31437
    Number of processor patches = 4
    Number of processor faces = 64880
    Number of boundary faces = 2006

Processor 168
    Number of cells = 172288
    Number of points = 206094
    Number of faces shared with processor 160 = 31437
    Number of faces shared with processor 169 = 1381
    Number of faces shared with processor 172 = 625
    Number of faces shared with processor 176 = 31376
    Number of faces shared with processor 177 = 1
    Number of processor patches = 5
    Number of processor faces = 64820
    Number of boundary faces = 2028

Processor 169
    Number of cells = 172722
    Number of points = 206548
    Number of faces shared with processor 161 = 31438
    Number of faces shared with processor 168 = 1381
    Number of faces shared with processor 170 = 1382
    Number of faces shared with processor 173 = 625
    Number of faces shared with processor 177 = 31437
    Number of processor patches = 5
    Number of processor faces = 66263
    Number of boundary faces = 625

Processor 170
    Number of cells = 170242
    Number of points = 204019
    Number of faces shared with processor 162 = 31288
    Number of faces shared with processor 166 = 2
    Number of faces shared with processor 169 = 1382
    Number of faces shared with processor 171 = 1332
    Number of faces shared with processor 174 = 723
    Number of faces shared with processor 178 = 31438
    Number of processor patches = 6
    Number of processor faces = 66165
    Number of boundary faces = 625

Processor 171
    Number of cells = 162594
    Number of points = 196308
    Number of faces shared with processor 163 = 31250
    Number of faces shared with processor 170 = 1332
    Number of faces shared with processor 175 = 750
    Number of faces shared with processor 179 = 31437
    Number of processor patches = 4
    Number of processor faces = 64769
    Number of boundary faces = 1895

Processor 172
    Number of cells = 156650
    Number of points = 190216
    Number of faces shared with processor 164 = 31250
    Number of faces shared with processor 168 = 625
    Number of faces shared with processor 173 = 1250
    Number of faces shared with processor 180 = 31309
    Number of processor patches = 4
    Number of processor faces = 64434
    Number of boundary faces = 1934

Processor 173
    Number of cells = 156250
    Number of points = 189756
    Number of faces shared with processor 165 = 31250
    Number of faces shared with processor 169 = 625
    Number of faces shared with processor 172 = 1250
    Number of faces shared with processor 174 = 1250
    Number of faces shared with processor 181 = 31250
    Number of processor patches = 5
    Number of processor faces = 65625
    Number of boundary faces = 625

Processor 174
    Number of cells = 158700
    Number of points = 192354
    Number of faces shared with processor 166 = 31397
    Number of faces shared with processor 170 = 723
    Number of faces shared with processor 173 = 1250
    Number of faces shared with processor 175 = 1299
    Number of faces shared with processor 182 = 31250
    Number of processor patches = 5
    Number of processor faces = 65919
    Number of boundary faces = 625

Processor 175
    Number of cells = 166344
    Number of points = 200088
    Number of faces shared with processor 166 = 1
    Number of faces shared with processor 167 = 31437
    Number of faces shared with processor 171 = 750
    Number of faces shared with processor 174 = 1299
    Number of faces shared with processor 183 = 31250
    Number of processor patches = 5
    Number of processor faces = 64737
    Number of boundary faces = 1987

Processor 176
    Number of cells = 158056
    Number of points = 191689
[...]
    in file db/dynamicLibrary/dlLibraryTable/dlLibraryTable.C at line 188
    Could not load "libpetscFoam.so"
libpetscFoam.so: cannot open shared object file: No such file or directory
Processor 697: field transfer
--> FOAM Warning : 
    From void* Foam::dlLibraryTable::openLibrary(const Foam::fileName&, bool)
    in file db/dynamicLibrary/dlLibraryTable/dlLibraryTable.C at line 188
    Could not load "libpetscFoam.so"
libpetscFoam.so: cannot open shared object file: No such file or directory
Processor 698: field transfer
--> FOAM Warning : 
    From void* Foam::dlLibraryTable::openLibrary(const Foam::fileName&, bool)
    in file db/dynamicLibrary/dlLibraryTable/dlLibraryTable.C at line 188
    Could not load "libpetscFoam.so"
libpetscFoam.so: cannot open shared object file: No such file or directory
Processor 699: field transfer
--> FOAM Warning : 
    From void* Foam::dlLibraryTable::openLibrary(const Foam::fileName&, bool)
    in file db/dynamicLibrary/dlLibraryTable/dlLibraryTable.C at line 188
    Could not load "libpetscFoam.so"
libpetscFoam.so: cannot open shared object file: No such file or directory
Processor 700: field transfer
--> FOAM Warning : 
    From void* Foam::dlLibraryTable::openLibrary(const Foam::fileName&, bool)
    in file db/dynamicLibrary/dlLibraryTable/dlLibraryTable.C at line 188
    Could not load "libpetscFoam.so"
libpetscFoam.so: cannot open shared object file: No such file or directory
Processor 701: field transfer
--> FOAM Warning : 
    From void* Foam::dlLibraryTable::openLibrary(const Foam::fileName&, bool)
    in file db/dynamicLibrary/dlLibraryTable/dlLibraryTable.C at line 188
    Could not load "libpetscFoam.so"
libpetscFoam.so: cannot open shared object file: No such file or directory
Processor 702: field transfer
--> FOAM Warning : 
    From void* Foam::dlLibraryTable::openLibrary(const Foam::fileName&, bool)
    in file db/dynamicLibrary/dlLibraryTable/dlLibraryTable.C at line 188
    Could not load "libpetscFoam.so"
libpetscFoam.so: cannot open shared object file: No such file or directory
Processor 703: field transfer
--> FOAM Warning : 
    From void* Foam::dlLibraryTable::openLibrary(const Foam::fileName&, bool)
    in file db/dynamicLibrary/dlLibraryTable/dlLibraryTable.C at line 188
    Could not load "libpetscFoam.so"
libpetscFoam.so: cannot open shared object file: No such file or directory
Processor 704: field transfer
--> FOAM Warning : 
    From void* Foam::dlLibraryTable::openLibrary(const Foam::fileName&, bool)
    in file db/dynamicLibrary/dlLibraryTable/dlLibraryTable.C at line 188
    Could not load "libpetscFoam.so"
libpetscFoam.so: cannot open shared object file: No such file or directory
Processor 705: field transfer
--> FOAM Warning : 
    From void* Foam::dlLibraryTable::openLibrary(const Foam::fileName&, bool)
    in file db/dynamicLibrary/dlLibraryTable/dlLibraryTable.C at line 188
    Could not load "libpetscFoam.so"
libpetscFoam.so: cannot open shared object file: No such file or directory
Processor 706: field transfer
--> FOAM Warning : 
    From void* Foam::dlLibraryTable::openLibrary(const Foam::fileName&, bool)
    in file db/dynamicLibrary/dlLibraryTable/dlLibraryTable.C at line 188
    Could not load "libpetscFoam.so"
libpetscFoam.so: cannot open shared object file: No such file or directory
Processor 707: field transfer
--> FOAM Warning : 
    From void* Foam::dlLibraryTable::openLibrary(const Foam::fileName&, bool)
    in file db/dynamicLibrary/dlLibraryTable/dlLibraryTable.C at line 188
    Could not load "libpetscFoam.so"
libpetscFoam.so: cannot open shared object file: No such file or directory
Processor 708: field transfer
--> FOAM Warning : 
    From void* Foam::dlLibraryTable::openLibrary(const Foam::fileName&, bool)
    in file db/dynamicLibrary/dlLibraryTable/dlLibraryTable.C at line 188
    Could not load "libpetscFoam.so"
libpetscFoam.so: cannot open shared object file: No such file or directory
Processor 709: field transfer
--> FOAM Warning : 
    From void* Foam::dlLibraryTable::openLibrary(const Foam::fileName&, bool)
    in file db/dynamicLibrary/dlLibraryTable/dlLibraryTable.C at line 188
    Could not load "libpetscFoam.so"
libpetscFoam.so: cannot open shared object file: No such file or directory
Processor 710: field transfer
--> FOAM Warning : 
    From void* Foam::dlLibraryTable::openLibrary(const Foam::fileName&, bool)
    in file db/dynamicLibrary/dlLibraryTable/dlLibraryTable.C at line 188
    Could not load "libpetscFoam.so"
libpetscFoam.so: cannot open shared object file: No such file or directory
Processor 711: field transfer
--> FOAM Warning : 
    From void* Foam::dlLibraryTable::openLibrary(const Foam::fileName&, bool)
    in file db/dynamicLibrary/dlLibraryTable/dlLibraryTable.C at line 188
    Could not load "libpetscFoam.so"
libpetscFoam.so: cannot open shared object file: No such file or directory
Processor 712: field transfer
--> FOAM Warning : 
    From void* Foam::dlLibraryTable::openLibrary(const Foam::fileName&, bool)
    in file db/dynamicLibrary/dlLibraryTable/dlLibraryTable.C at line 188
    Could not load "libpetscFoam.so"
libpetscFoam.so: cannot open shared object file: No such file or directory
Processor 713: field transfer
--> FOAM Warning : 
    From void* Foam::dlLibraryTable::openLibrary(const Foam::fileName&, bool)
    in file db/dynamicLibrary/dlLibraryTable/dlLibraryTable.C at line 188
    Could not load "libpetscFoam.so"
libpetscFoam.so: cannot open shared object file: No such file or directory
Processor 714: field transfer
--> FOAM Warning : 
    From void* Foam::dlLibraryTable::openLibrary(const Foam::fileName&, bool)
    in file db/dynamicLibrary/dlLibraryTable/dlLibraryTable.C at line 188
    Could not load "libpetscFoam.so"
libpetscFoam.so: cannot open shared object file: No such file or directory
Processor 715: field transfer
--> FOAM Warning : 
    From void* Foam::dlLibraryTable::openLibrary(const Foam::fileName&, bool)
    in file db/dynamicLibrary/dlLibraryTable/dlLibraryTable.C at line 188
    Could not load "libpetscFoam.so"
libpetscFoam.so: cannot open shared object file: No such file or directory
Processor 716: field transfer
--> FOAM Warning : 
    From void* Foam::dlLibraryTable::openLibrary(const Foam::fileName&, bool)
    in file db/dynamicLibrary/dlLibraryTable/dlLibraryTable.C at line 188
    Could not load "libpetscFoam.so"
libpetscFoam.so: cannot open shared object file: No such file or directory
Processor 717: field transfer
--> FOAM Warning : 
    From void* Foam::dlLibraryTable::openLibrary(const Foam::fileName&, bool)
    in file db/dynamicLibrary/dlLibraryTable/dlLibraryTable.C at line 188
    Could not load "libpetscFoam.so"
libpetscFoam.so: cannot open shared object file: No such file or directory
Processor 718: field transfer
--> FOAM Warning : 
    From void* Foam::dlLibraryTable::openLibrary(const Foam::fileName&, bool)
    in file db/dynamicLibrary/dlLibraryTable/dlLibraryTable.C at line 188
    Could not load "libpetscFoam.so"
libpetscFoam.so: cannot open shared object file: No such file or directory
Processor 719: field transfer
--> FOAM Warning : 
    From void* Foam::dlLibraryTable::openLibrary(const Foam::fileName&, bool)
    in file db/dynamicLibrary/dlLibraryTable/dlLibraryTable.C at line 188
    Could not load "libpetscFoam.so"
libpetscFoam.so: cannot open shared object file: No such file or directory
Processor 720: field transfer
--> FOAM Warning : 
    From void* Foam::dlLibraryTable::openLibrary(const Foam::fileName&, bool)
    in file db/dynamicLibrary/dlLibraryTable/dlLibraryTable.C at line 188
    Could not load "libpetscFoam.so"
libpetscFoam.so: cannot open shared object file: No such file or directory
Processor 721: field transfer
--> FOAM Warning : 
    From void* Foam::dlLibraryTable::openLibrary(const Foam::fileName&, bool)
    in file db/dynamicLibrary/dlLibraryTable/dlLibraryTable.C at line 188
    Could not load "libpetscFoam.so"
libpetscFoam.so: cannot open shared object file: No such file or directory
Processor 722: field transfer
--> FOAM Warning : 
    From void* Foam::dlLibraryTable::openLibrary(const Foam::fileName&, bool)
    in file db/dynamicLibrary/dlLibraryTable/dlLibraryTable.C at line 188
    Could not load "libpetscFoam.so"
libpetscFoam.so: cannot open shared object file: No such file or directory
Processor 723: field transfer
--> FOAM Warning : 
    From void* Foam::dlLibraryTable::openLibrary(const Foam::fileName&, bool)
    in file db/dynamicLibrary/dlLibraryTable/dlLibraryTable.C at line 188
    Could not load "libpetscFoam.so"
libpetscFoam.so: cannot open shared object file: No such file or directory
Processor 724: field transfer
--> FOAM Warning : 
    From void* Foam::dlLibraryTable::openLibrary(const Foam::fileName&, bool)
    in file db/dynamicLibrary/dlLibraryTable/dlLibraryTable.C at line 188
    Could not load "libpetscFoam.so"
libpetscFoam.so: cannot open shared object file: No such file or directory
Processor 725: field transfer
--> FOAM Warning : 
    From void* Foam::dlLibraryTable::openLibrary(const Foam::fileName&, bool)
    in file db/dynamicLibrary/dlLibraryTable/dlLibraryTable.C at line 188
    Could not load "libpetscFoam.so"
libpetscFoam.so: cannot open shared object file: No such file or directory
Processor 726: field transfer
--> FOAM Warning : 
    From void* Foam::dlLibraryTable::openLibrary(const Foam::fileName&, bool)
    in file db/dynamicLibrary/dlLibraryTable/dlLibraryTable.C at line 188
    Could not load "libpetscFoam.so"
libpetscFoam.so: cannot open shared object file: No such file or directory
Processor 727: field transfer
--> FOAM Warning : 
    From void* Foam::dlLibraryTable::openLibrary(const Foam::fileName&, bool)
    in file db/dynamicLibrary/dlLibraryTable/dlLibraryTable.C at line 188
    Could not load "libpetscFoam.so"
libpetscFoam.so: cannot open shared object file: No such file or directory
Processor 728: field transfer
--> FOAM Warning : 
    From void* Foam::dlLibraryTable::openLibrary(const Foam::fileName&, bool)
    in file db/dynamicLibrary/dlLibraryTable/dlLibraryTable.C at line 188
    Could not load "libpetscFoam.so"
libpetscFoam.so: cannot open shared object file: No such file or directory
Processor 729: field transfer
--> FOAM Warning : 
    From void* Foam::dlLibraryTable::openLibrary(const Foam::fileName&, bool)
    in file db/dynamicLibrary/dlLibraryTable/dlLibraryTable.C at line 188
    Could not load "libpetscFoam.so"
libpetscFoam.so: cannot open shared object file: No such file or directory
Processor 730: field transfer
--> FOAM Warning : 
    From void* Foam::dlLibraryTable::openLibrary(const Foam::fileName&, bool)
    in file db/dynamicLibrary/dlLibraryTable/dlLibraryTable.C at line 188
    Could not load "libpetscFoam.so"
libpetscFoam.so: cannot open shared object file: No such file or directory
Processor 731: field transfer
--> FOAM Warning : 
    From void* Foam::dlLibraryTable::openLibrary(const Foam::fileName&, bool)
    in file db/dynamicLibrary/dlLibraryTable/dlLibraryTable.C at line 188
    Could not load "libpetscFoam.so"
libpetscFoam.so: cannot open shared object file: No such file or directory
Processor 732: field transfer
--> FOAM Warning : 
    From void* Foam::dlLibraryTable::openLibrary(const Foam::fileName&, bool)
    in file db/dynamicLibrary/dlLibraryTable/dlLibraryTable.C at line 188
    Could not load "libpetscFoam.so"
libpetscFoam.so: cannot open shared object file: No such file or directory
Processor 733: field transfer
--> FOAM Warning : 
    From void* Foam::dlLibraryTable::openLibrary(const Foam::fileName&, bool)
    in file db/dynamicLibrary/dlLibraryTable/dlLibraryTable.C at line 188
    Could not load "libpetscFoam.so"
libpetscFoam.so: cannot open shared object file: No such file or directory
Processor 734: field transfer
--> FOAM Warning : 
    From void* Foam::dlLibraryTable::openLibrary(const Foam::fileName&, bool)
    in file db/dynamicLibrary/dlLibraryTable/dlLibraryTable.C at line 188
    Could not load "libpetscFoam.so"
libpetscFoam.so: cannot open shared object file: No such file or directory
Processor 735: field transfer
--> FOAM Warning : 
    From void* Foam::dlLibraryTable::openLibrary(const Foam::fileName&, bool)
    in file db/dynamicLibrary/dlLibraryTable/dlLibraryTable.C at line 188
    Could not load "libpetscFoam.so"
libpetscFoam.so: cannot open shared object file: No such file or directory
Processor 736: field transfer
--> FOAM Warning : 
    From void* Foam::dlLibraryTable::openLibrary(const Foam::fileName&, bool)
    in file db/dynamicLibrary/dlLibraryTable/dlLibraryTable.C at line 188
    Could not load "libpetscFoam.so"
libpetscFoam.so: cannot open shared object file: No such file or directory
Processor 737: field transfer
--> FOAM Warning : 
    From void* Foam::dlLibraryTable::openLibrary(const Foam::fileName&, bool)
    in file db/dynamicLibrary/dlLibraryTable/dlLibraryTable.C at line 188
    Could not load "libpetscFoam.so"
libpetscFoam.so: cannot open shared object file: No such file or directory
Processor 738: field transfer
--> FOAM Warning : 
    From void* Foam::dlLibraryTable::openLibrary(const Foam::fileName&, bool)
    in file db/dynamicLibrary/dlLibraryTable/dlLibraryTable.C at line 188
    Could not load "libpetscFoam.so"
libpetscFoam.so: cannot open shared object file: No such file or directory
Processor 739: field transfer
--> FOAM Warning : 
    From void* Foam::dlLibraryTable::openLibrary(const Foam::fileName&, bool)
    in file db/dynamicLibrary/dlLibraryTable/dlLibraryTable.C at line 188
    Could not load "libpetscFoam.so"
libpetscFoam.so: cannot open shared object file: No such file or directory
Processor 740: field transfer
--> FOAM Warning : 
    From void* Foam::dlLibraryTable::openLibrary(const Foam::fileName&, bool)
    in file db/dynamicLibrary/dlLibraryTable/dlLibraryTable.C at line 188
    Could not load "libpetscFoam.so"
libpetscFoam.so: cannot open shared object file: No such file or directory
Processor 741: field transfer
--> FOAM Warning : 
    From void* Foam::dlLibraryTable::openLibrary(const Foam::fileName&, bool)
    in file db/dynamicLibrary/dlLibraryTable/dlLibraryTable.C at line 188
    Could not load "libpetscFoam.so"
libpetscFoam.so: cannot open shared object file: No such file or directory
Processor 742: field transfer
--> FOAM Warning : 
    From void* Foam::dlLibraryTable::openLibrary(const Foam::fileName&, bool)
    in file db/dynamicLibrary/dlLibraryTable/dlLibraryTable.C at line 188
    Could not load "libpetscFoam.so"
libpetscFoam.so: cannot open shared object file: No such file or directory
Processor 743: field transfer
--> FOAM Warning : 
    From void* Foam::dlLibraryTable::openLibrary(const Foam::fileName&, bool)
    in file db/dynamicLibrary/dlLibraryTable/dlLibraryTable.C at line 188
    Could not load "libpetscFoam.so"
libpetscFoam.so: cannot open shared object file: No such file or directory
Processor 744: field transfer
--> FOAM Warning : 
    From void* Foam::dlLibraryTable::openLibrary(const Foam::fileName&, bool)
    in file db/dynamicLibrary/dlLibraryTable/dlLibraryTable.C at line 188
    Could not load "libpetscFoam.so"
libpetscFoam.so: cannot open shared object file: No such file or directory
Processor 745: field transfer
--> FOAM Warning : 
    From void* Foam::dlLibraryTable::openLibrary(const Foam::fileName&, bool)
    in file db/dynamicLibrary/dlLibraryTable/dlLibraryTable.C at line 188
    Could not load "libpetscFoam.so"
libpetscFoam.so: cannot open shared object file: No such file or directory
Processor 746: field transfer
--> FOAM Warning : 
    From void* Foam::dlLibraryTable::openLibrary(const Foam::fileName&, bool)
    in file db/dynamicLibrary/dlLibraryTable/dlLibraryTable.C at line 188
    Could not load "libpetscFoam.so"
libpetscFoam.so: cannot open shared object file: No such file or directory
Processor 747: field transfer
--> FOAM Warning : 
    From void* Foam::dlLibraryTable::openLibrary(const Foam::fileName&, bool)
    in file db/dynamicLibrary/dlLibraryTable/dlLibraryTable.C at line 188
    Could not load "libpetscFoam.so"
libpetscFoam.so: cannot open shared object file: No such file or directory
Processor 748: field transfer
--> FOAM Warning : 
    From void* Foam::dlLibraryTable::openLibrary(const Foam::fileName&, bool)
    in file db/dynamicLibrary/dlLibraryTable/dlLibraryTable.C at line 188
    Could not load "libpetscFoam.so"
libpetscFoam.so: cannot open shared object file: No such file or directory
Processor 749: field transfer
--> FOAM Warning : 
    From void* Foam::dlLibraryTable::openLibrary(const Foam::fileName&, bool)
    in file db/dynamicLibrary/dlLibraryTable/dlLibraryTable.C at line 188
    Could not load "libpetscFoam.so"
libpetscFoam.so: cannot open shared object file: No such file or directory
Processor 750: field transfer
--> FOAM Warning : 
    From void* Foam::dlLibraryTable::openLibrary(const Foam::fileName&, bool)
    in file db/dynamicLibrary/dlLibraryTable/dlLibraryTable.C at line 188
    Could not load "libpetscFoam.so"
libpetscFoam.so: cannot open shared object file: No such file or directory
Processor 751: field transfer
--> FOAM Warning : 
    From void* Foam::dlLibraryTable::openLibrary(const Foam::fileName&, bool)
    in file db/dynamicLibrary/dlLibraryTable/dlLibraryTable.C at line 188
    Could not load "libpetscFoam.so"
libpetscFoam.so: cannot open shared object file: No such file or directory
Processor 752: field transfer
--> FOAM Warning : 
    From void* Foam::dlLibraryTable::openLibrary(const Foam::fileName&, bool)
    in file db/dynamicLibrary/dlLibraryTable/dlLibraryTable.C at line 188
    Could not load "libpetscFoam.so"
libpetscFoam.so: cannot open shared object file: No such file or directory
Processor 753: field transfer
--> FOAM Warning : 
    From void* Foam::dlLibraryTable::openLibrary(const Foam::fileName&, bool)
    in file db/dynamicLibrary/dlLibraryTable/dlLibraryTable.C at line 188
    Could not load "libpetscFoam.so"
libpetscFoam.so: cannot open shared object file: No such file or directory
Processor 754: field transfer
--> FOAM Warning : 
    From void* Foam::dlLibraryTable::openLibrary(const Foam::fileName&, bool)
    in file db/dynamicLibrary/dlLibraryTable/dlLibraryTable.C at line 188
    Could not load "libpetscFoam.so"
libpetscFoam.so: cannot open shared object file: No such file or directory
Processor 755: field transfer
--> FOAM Warning : 
    From void* Foam::dlLibraryTable::openLibrary(const Foam::fileName&, bool)
    in file db/dynamicLibrary/dlLibraryTable/dlLibraryTable.C at line 188
    Could not load "libpetscFoam.so"
libpetscFoam.so: cannot open shared object file: No such file or directory
Processor 756: field transfer
--> FOAM Warning : 
    From void* Foam::dlLibraryTable::openLibrary(const Foam::fileName&, bool)
    in file db/dynamicLibrary/dlLibraryTable/dlLibraryTable.C at line 188
    Could not load "libpetscFoam.so"
libpetscFoam.so: cannot open shared object file: No such file or directory
Processor 757: field transfer
--> FOAM Warning : 
    From void* Foam::dlLibraryTable::openLibrary(const Foam::fileName&, bool)
    in file db/dynamicLibrary/dlLibraryTable/dlLibraryTable.C at line 188
    Could not load "libpetscFoam.so"
libpetscFoam.so: cannot open shared object file: No such file or directory
Processor 758: field transfer
--> FOAM Warning : 
    From void* Foam::dlLibraryTable::openLibrary(const Foam::fileName&, bool)
    in file db/dynamicLibrary/dlLibraryTable/dlLibraryTable.C at line 188
    Could not load "libpetscFoam.so"
libpetscFoam.so: cannot open shared object file: No such file or directory
Processor 759: field transfer
--> FOAM Warning : 
    From void* Foam::dlLibraryTable::openLibrary(const Foam::fileName&, bool)
    in file db/dynamicLibrary/dlLibraryTable/dlLibraryTable.C at line 188
    Could not load "libpetscFoam.so"
libpetscFoam.so: cannot open shared object file: No such file or directory

End

