/*---------------------------------------------------------------------------*\
| =========                 |                                                 |
| \\      /  F ield         | OpenFOAM: The Open Source CFD Toolbox           |
|  \\    /   O peration     | Version:  2306                                  |
|   \\  /    A nd           | Website:  www.openfoam.com                      |
|    \\/     M anipulation  |                                                 |
\*---------------------------------------------------------------------------*/
Build  : a6e826bd55-20230630 OPENFOAM=2306 version=v2306
Arch   : "LSB;label=32;scalar=64"
Exec   : icoFoam -parallel -case /home/greole/data/code/exasim_project/micro_benchmarks/LidDrivenCavity3D/workspace/c4d1008658ec2daef78aed8ccf719163/case
Date   : Jul 05 2023
Time   : 21:30:49
Host   : nla-gpu2.ianm.kit.edu
PID    : 64911
I/O    : uncollated
Case   : /home/greole/data/code/exasim_project/micro_benchmarks/LidDrivenCavity3D/workspace/c4d1008658ec2daef78aed8ccf719163/case
nProcs : 16
Hosts  :
(
    (nla-gpu2.ianm.kit.edu 16)
)
Pstream initialized with:
    floatTransfer      : false
    nProcsSimpleSum    : 0
    nonBlockingExchange: 0 (tuning: 0)
    exchange algorithm : -1
    commsType          : nonBlocking
    polling iterations : 0
trapFpe: Floating point exception trapping enabled (FOAM_SIGFPE).
fileModificationChecking : Monitoring run-time modified files using timeStampMaster (fileModificationSkew 5, maxFileModificationPolls 20)
allowSystemOperations : Allowing user-supplied system call operations

// * * * * * * * * * * * * * * * * * * * * * * * * * * * * * * * * * * * * * //
Create time

--> FOAM Warning : 
    From void* Foam::dlLibraryTable::openLibrary(const Foam::fileName&, bool)
    in file db/dynamicLibrary/dlLibraryTable/dlLibraryTable.C at line 188
    Could not load "libpetscFoam.so"
libpetscFoam.so: cannot open shared object file: No such file or directory
Create mesh for time = 0


PISO: Operating solver in PISO mode

Reading transportProperties

Reading field p

Reading field U

Reading/calculating face flux field phi


Starting time loop

Time = 0.000166

Courant Number mean: 8.14055e-18 max: 3.11001e-14
[INFO] MatrixAssemblyU: 248.065 [ms]
DILUPBiCGStab:  Solving for Ux, Initial residual = 1, Final residual = 0.0163135, No Iterations 5
DILUPBiCGStab:  Solving for Uy:  solution singularity
DILUPBiCGStab:  Solving for Uz:  solution singularity
[INFO] MomentumPredictor: 971.338 [ms]
[INFO] MatrixAssemblyPI: 247.23 [ms]
[INFO] AdjustPhi: 15.752 [ms]
[INFO] ConstrainPressure: 0.013 [ms]
[INFO] MatrixAssemblyPII: 70.748 [ms]
[OGL LOG][lduLduBase.H:122] Initialising OGL
	OGL commit:  13e9788+
	Branch: device_guard 
	Build type: Release
	Ginkgo version: 1.5.0 ( develop)
	Ginkgo commit: 4292ffdee
	MPI is GPU aware: 1
	Forces host buffer based communication: 0
	CPU ranks per GPU: 1
	Matrix format: Coo
	End OGL_INFO
[OGL LOG][Proc: 0]: global_index_init: 13.105 [ms]
[OGL LOG][Proc: 0]p_local_cols: call_init: 0.045 [ms]
[OGL LOG][Proc: 0]p_local_rows: call_init: 0.013 [ms]
[OGL LOG][Proc: 0]p_local_ldu_map: call_init: 0.006 [ms]
[OGL LOG][Proc: 0]p_local_coeffs: call_init: 0.014 [ms]
[OGL LOG][Proc: 0]p_non_local_cols: call_init: 0.004 [ms]
[OGL LOG][Proc: 0]p_non_local_rows: call_init: 0.003 [ms]
[OGL LOG][Proc: 0]p_non_local_ldu_map: call_init: 0.003 [ms]
[OGL LOG][Proc: 0]p_non_local_coeffs: call_init: 0.003 [ms]
[OGL LOG][Proc: 0]p: init_local_sparsity_pattern: 262.796 [ms]
[OGL LOG][Proc: 0]p: init_non_local_sparsity_pattern: 19.512 [ms]
[OGL LOG][Proc: 0]p: update_local_matrix_data: 38.095 [ms]
[OGL LOG][Proc: 0]p: update_non_local_matrix_data: 0.189 [ms]
[OGL LOG][Proc: 0]device_partition: call_init: 36.703 [ms]
[OGL LOG][Proc: 0]p_matrix: call_init: 171.076 [ms]
[OGL LOG][Proc: 0]p_rhs: call_init: 2.177 [ms]
[OGL LOG][Proc: 0]p_solution: call_init: 4.32 [ms]
[OGL LOG][Proc: 0]p: init_precond: 0.09 [ms]
[OGL LOG][StoppingCriterion.H:372] Creating stopping criterion with minIter 0 frequency 1
[OGL LOG][Proc: 0]p: generate_solver: 0.035 [ms]
[OGL LOG][Proc: 0]p: solve: 6017.48 [ms]
[OGL LOG][Proc: 0]p: copy_x_back: 6.088 [ms]
[OGL LOG][lduLduBase.H:339] 
Statistics:
	Time per iteration: 2476 [mu s]
	Time per residual norm calculation: 2155.000000 [mu s]
	Time per iteration and DOF: 0.091704 [ns]
	Retrieve results bandwidth 2.217000 [GByte/s]
[OGL LOG][Proc: 0]p: solve_multi_gpu: 6239.04 [ms]
nonehipGKOCG:  Solving for p, Initial residual = 1, Final residual = 9.97935e-05, No Iterations 2430
[INFO] SolveP: 6819.48 [ms]
time step continuity errors : sum local = 4.03247e-09, global = 1.87323e-21, cumulative = 1.87323e-21
[INFO] ContinuityError: 28.193 [ms]
[INFO] CorrectBoundary: 1.391 [ms]
[INFO] PISOStep: 7271.34 [ms]
[INFO] MatrixAssemblyPI: 238.703 [ms]
[INFO] AdjustPhi: 12.159 [ms]
[INFO] ConstrainPressure: 0.004 [ms]
[INFO] MatrixAssemblyPII: 71.258 [ms]
[OGL LOG][Proc: 0]: global_index_init: 0.042 [ms]
[OGL LOG][Proc: 0]p_local_coeffs: call_update: 0.004 [ms]
[OGL LOG][Proc: 0]p_non_local_coeffs: call_update: 0 [ms]
[OGL LOG][Proc: 0]p: update_local_matrix_data: 38.549 [ms]
[OGL LOG][Proc: 0]p: update_non_local_matrix_data: 0.207 [ms]
[OGL LOG][Proc: 0]p_matrix: call_update: 18.841 [ms]
[OGL LOG][Proc: 0]p_rhs: call_update: 2.349 [ms]
[OGL LOG][Proc: 0]p: init_precond: 0.066 [ms]
[OGL LOG][StoppingCriterion.H:372] Creating stopping criterion with minIter 1458 frequency 31
[OGL LOG][Proc: 0]p: generate_solver: 0.004 [ms]
[OGL LOG][Proc: 0]p: solve: 4001.2 [ms]
[OGL LOG][Proc: 0]p: copy_x_back: 5.826 [ms]
[OGL LOG][lduLduBase.H:339] 
Statistics:
	Time per iteration: 1654 [mu s]
	Time per residual norm calculation: 295.000000 [mu s]
	Time per iteration and DOF: 0.061259 [ns]
	Retrieve results bandwidth 2.317000 [GByte/s]
[OGL LOG][Proc: 0]p: solve_multi_gpu: 4029.31 [ms]
nonehipGKOCG:  Solving for p, Initial residual = 0.80945, Final residual = 9.57434e-05, No Iterations 2419
[INFO] SolveP: 4076.59 [ms]
time step continuity errors : sum local = 4.72243e-09, global = -1.33203e-23, cumulative = 1.85991e-21
[INFO] ContinuityError: 31.033 [ms]
[INFO] CorrectBoundary: 0.978 [ms]
[INFO] PISOStep: 4515.48 [ms]
[INFO] TimeStep: 13037.2 [ms]
ExecutionTime = 15.87 s  ClockTime = 15 s

Time = 0.000332

Courant Number mean: 0.0128238 max: 0.426584
[INFO] MatrixAssemblyU: 208.753 [ms]
DILUPBiCGStab:  Solving for Ux, Initial residual = 0.116949, Final residual = 0.00979522, No Iterations 5
DILUPBiCGStab:  Solving for Uy, Initial residual = 0.460127, Final residual = 0.0314341, No Iterations 5
DILUPBiCGStab:  Solving for Uz, Initial residual = 0.988822, Final residual = 0.0739798, No Iterations 5
[INFO] MomentumPredictor: 1793.59 [ms]
[INFO] MatrixAssemblyPI: 242.57 [ms]
[INFO] AdjustPhi: 12.693 [ms]
[INFO] ConstrainPressure: 0.005 [ms]
[INFO] MatrixAssemblyPII: 70.858 [ms]
[OGL LOG][Proc: 0]: global_index_init: 0.06 [ms]
[OGL LOG][Proc: 0]p_local_coeffs: call_update: 0 [ms]
[OGL LOG][Proc: 0]p_non_local_coeffs: call_update: 0 [ms]
[OGL LOG][Proc: 0]p: update_local_matrix_data: 38.416 [ms]
[OGL LOG][Proc: 0]p: update_non_local_matrix_data: 0.211 [ms]
[OGL LOG][Proc: 0]p_matrix: call_update: 16.267 [ms]
[OGL LOG][Proc: 0]p_rhs: call_update: 3.851 [ms]
[OGL LOG][Proc: 0]p: init_precond: 0.061 [ms]
[OGL LOG][StoppingCriterion.H:372] Creating stopping criterion with minIter 1451 frequency 13
[OGL LOG][Proc: 0]p: generate_solver: 0.004 [ms]
[OGL LOG][Proc: 0]p: solve: 3886.12 [ms]
[OGL LOG][Proc: 0]p: copy_x_back: 6.258 [ms]
[OGL LOG][lduLduBase.H:339] 
Statistics:
	Time per iteration: 1623 [mu s]
	Time per residual norm calculation: 300.000000 [mu s]
	Time per iteration and DOF: 0.060111 [ns]
	Retrieve results bandwidth 2.157000 [GByte/s]
[OGL LOG][Proc: 0]p: solve_multi_gpu: 3913.82 [ms]
nonehipGKOCG:  Solving for p, Initial residual = 0.879094, Final residual = 7.32725e-05, No Iterations 2393
[INFO] SolveP: 3961.07 [ms]
time step continuity errors : sum local = 7.00584e-09, global = 2.55372e-22, cumulative = 2.11528e-21
[INFO] ContinuityError: 30.012 [ms]
[INFO] CorrectBoundary: 0.555 [ms]
[INFO] PISOStep: 4400.45 [ms]
[INFO] MatrixAssemblyPI: 237.581 [ms]
[INFO] AdjustPhi: 13.502 [ms]
[INFO] ConstrainPressure: 0.005 [ms]
[INFO] MatrixAssemblyPII: 67.241 [ms]
[OGL LOG][Proc: 0]: global_index_init: 0.049 [ms]
[OGL LOG][Proc: 0]p_local_coeffs: call_update: 0 [ms]
[OGL LOG][Proc: 0]p_non_local_coeffs: call_update: 0 [ms]
[OGL LOG][Proc: 0]p: update_local_matrix_data: 38.81 [ms]
[OGL LOG][Proc: 0]p: update_non_local_matrix_data: 0.234 [ms]
[OGL LOG][Proc: 0]p_matrix: call_update: 19.779 [ms]
[OGL LOG][Proc: 0]p_rhs: call_update: 2.703 [ms]
[OGL LOG][Proc: 0]p: init_precond: 0.057 [ms]
[OGL LOG][StoppingCriterion.H:372] Creating stopping criterion with minIter 1435 frequency 13
[OGL LOG][Proc: 0]p: generate_solver: 0.005 [ms]
[OGL LOG][Proc: 0]p: solve: 3976.99 [ms]
[OGL LOG][Proc: 0]p: copy_x_back: 6.049 [ms]
[OGL LOG][lduLduBase.H:339] 
Statistics:
	Time per iteration: 1671 [mu s]
	Time per residual norm calculation: 299.000000 [mu s]
	Time per iteration and DOF: 0.061889 [ns]
	Retrieve results bandwidth 2.231000 [GByte/s]
[OGL LOG][Proc: 0]p: solve_multi_gpu: 4006.5 [ms]
nonehipGKOCG:  Solving for p, Initial residual = 0.827178, Final residual = 9.00467e-05, No Iterations 2380
[INFO] SolveP: 4053.93 [ms]
time step continuity errors : sum local = 8.76861e-09, global = 7.83745e-22, cumulative = 2.89903e-21
[INFO] ContinuityError: 29.969 [ms]
[INFO] CorrectBoundary: 0.886 [ms]
[INFO] PISOStep: 4491.05 [ms]
[INFO] TimeStep: 10923.3 [ms]
ExecutionTime = 28.55 s  ClockTime = 26 s

Time = 0.000498

Courant Number mean: 0.0197919 max: 0.49188
[INFO] MatrixAssemblyU: 208.6 [ms]
DILUPBiCGStab:  Solving for Ux, Initial residual = 0.0544438, Final residual = 0.00365184, No Iterations 5
DILUPBiCGStab:  Solving for Uy, Initial residual = 0.226343, Final residual = 0.0163738, No Iterations 5
DILUPBiCGStab:  Solving for Uz, Initial residual = 0.850507, Final residual = 0.0546814, No Iterations 5
[INFO] MomentumPredictor: 1782.12 [ms]
[INFO] MatrixAssemblyPI: 243.007 [ms]
[INFO] AdjustPhi: 12.085 [ms]
[INFO] ConstrainPressure: 0.004 [ms]
[INFO] MatrixAssemblyPII: 71.026 [ms]
[OGL LOG][Proc: 0]: global_index_init: 0.039 [ms]
[OGL LOG][Proc: 0]p_local_coeffs: call_update: 0 [ms]
[OGL LOG][Proc: 0]p_non_local_coeffs: call_update: 0 [ms]
[OGL LOG][Proc: 0]p: update_local_matrix_data: 38.323 [ms]
[OGL LOG][Proc: 0]p: update_non_local_matrix_data: 0.22 [ms]
[OGL LOG][Proc: 0]p_matrix: call_update: 17.707 [ms]
[OGL LOG][Proc: 0]p_rhs: call_update: 3.272 [ms]
[OGL LOG][Proc: 0]p: init_precond: 0.059 [ms]
[OGL LOG][StoppingCriterion.H:372] Creating stopping criterion with minIter 1428 frequency 13
[OGL LOG][Proc: 0]p: generate_solver: 0.004 [ms]
[OGL LOG][Proc: 0]p: solve: 2380.48 [ms]
[OGL LOG][Proc: 0]p: copy_x_back: 5.667 [ms]
[OGL LOG][lduLduBase.H:339] 
Statistics:
	Time per iteration: 1663 [mu s]
	Time per residual norm calculation: 351.000000 [mu s]
	Time per iteration and DOF: 0.061593 [ns]
	Retrieve results bandwidth 2.382000 [GByte/s]
[OGL LOG][Proc: 0]p: solve_multi_gpu: 2408.17 [ms]
nonehipGKOCG:  Solving for p, Initial residual = 0.91422, Final residual = 7.02095e-05, No Iterations 1431
[INFO] SolveP: 2455.15 [ms]
time step continuity errors : sum local = 7.84074e-09, global = 5.56663e-22, cumulative = 3.45569e-21
[INFO] ContinuityError: 27.738 [ms]
[INFO] CorrectBoundary: 2.562 [ms]
[INFO] PISOStep: 2899.97 [ms]
[INFO] MatrixAssemblyPI: 234.406 [ms]
[INFO] AdjustPhi: 13.265 [ms]
[INFO] ConstrainPressure: 0.003 [ms]
[INFO] MatrixAssemblyPII: 70.301 [ms]
[OGL LOG][Proc: 0]: global_index_init: 0.04 [ms]
[OGL LOG][Proc: 0]p_local_coeffs: call_update: 0 [ms]
[OGL LOG][Proc: 0]p_non_local_coeffs: call_update: 0 [ms]
[OGL LOG][Proc: 0]p: update_local_matrix_data: 37.797 [ms]
[OGL LOG][Proc: 0]p: update_non_local_matrix_data: 0.219 [ms]
[OGL LOG][Proc: 0]p_matrix: call_update: 19.44 [ms]
[OGL LOG][Proc: 0]p_rhs: call_update: 2.514 [ms]
[OGL LOG][Proc: 0]p: init_precond: 0.056 [ms]
[OGL LOG][StoppingCriterion.H:372] Creating stopping criterion with minIter 858 frequency 11
[OGL LOG][Proc: 0]p: generate_solver: 0.004 [ms]
[OGL LOG][Proc: 0]p: solve: 1901.86 [ms]
[OGL LOG][Proc: 0]p: copy_x_back: 6.07 [ms]
[OGL LOG][lduLduBase.H:339] 
Statistics:
	Time per iteration: 1645 [mu s]
	Time per residual norm calculation: 294.000000 [mu s]
	Time per iteration and DOF: 0.060926 [ns]
	Retrieve results bandwidth 2.224000 [GByte/s]
[OGL LOG][Proc: 0]p: solve_multi_gpu: 1930.82 [ms]
nonehipGKOCG:  Solving for p, Initial residual = 0.882789, Final residual = 9.00061e-05, No Iterations 1156
[INFO] SolveP: 1977.26 [ms]
time step continuity errors : sum local = 9.44843e-09, global = 1.83103e-22, cumulative = 3.63879e-21
[INFO] ContinuityError: 29.116 [ms]
[INFO] CorrectBoundary: 1.188 [ms]
[INFO] PISOStep: 2406.94 [ms]
[INFO] TimeStep: 7326.33 [ms]
ExecutionTime = 36.8 s  ClockTime = 34 s

Time = 0.000664

Courant Number mean: 0.0238776 max: 0.471995
[INFO] MatrixAssemblyU: 211.913 [ms]
DILUPBiCGStab:  Solving for Ux, Initial residual = 0.0385207, Final residual = 0.00293223, No Iterations 5
DILUPBiCGStab:  Solving for Uy, Initial residual = 0.174015, Final residual = 0.0133285, No Iterations 5
DILUPBiCGStab:  Solving for Uz, Initial residual = 0.735162, Final residual = 0.0386957, No Iterations 5
[INFO] MomentumPredictor: 1773.5 [ms]
[INFO] MatrixAssemblyPI: 242.525 [ms]
[INFO] AdjustPhi: 12.712 [ms]
[INFO] ConstrainPressure: 0.004 [ms]
[INFO] MatrixAssemblyPII: 71.084 [ms]
[OGL LOG][Proc: 0]: global_index_init: 0.036 [ms]
[OGL LOG][Proc: 0]p_local_coeffs: call_update: 0 [ms]
[OGL LOG][Proc: 0]p_non_local_coeffs: call_update: 0 [ms]
[OGL LOG][Proc: 0]p: update_local_matrix_data: 37.428 [ms]
[OGL LOG][Proc: 0]p: update_non_local_matrix_data: 0.221 [ms]
[OGL LOG][Proc: 0]p_matrix: call_update: 13.758 [ms]
[OGL LOG][Proc: 0]p_rhs: call_update: 8.82 [ms]
[OGL LOG][Proc: 0]p: init_precond: 0.068 [ms]
[OGL LOG][StoppingCriterion.H:372] Creating stopping criterion with minIter 693 frequency 9
[OGL LOG][Proc: 0]p: generate_solver: 0.004 [ms]
[OGL LOG][Proc: 0]p: solve: 1928.9 [ms]
[OGL LOG][Proc: 0]p: copy_x_back: 5.811 [ms]
[OGL LOG][lduLduBase.H:339] 
Statistics:
	Time per iteration: 1659 [mu s]
	Time per residual norm calculation: 292.000000 [mu s]
	Time per iteration and DOF: 0.061444 [ns]
	Retrieve results bandwidth 2.323000 [GByte/s]
[OGL LOG][Proc: 0]p: solve_multi_gpu: 1958.48 [ms]
nonehipGKOCG:  Solving for p, Initial residual = 0.891167, Final residual = 9.41448e-05, No Iterations 1162
[INFO] SolveP: 2004.75 [ms]
time step continuity errors : sum local = 1.13391e-08, global = 3.49459e-22, cumulative = 3.98825e-21
[INFO] ContinuityError: 30.412 [ms]
[INFO] CorrectBoundary: 0.635 [ms]
[INFO] PISOStep: 2444.33 [ms]
[INFO] MatrixAssemblyPI: 236.644 [ms]
[INFO] AdjustPhi: 12.914 [ms]
[INFO] ConstrainPressure: 0.005 [ms]
[INFO] MatrixAssemblyPII: 71.036 [ms]
[OGL LOG][Proc: 0]: global_index_init: 0.039 [ms]
[OGL LOG][Proc: 0]p_local_coeffs: call_update: 0 [ms]
[OGL LOG][Proc: 0]p_non_local_coeffs: call_update: 0 [ms]
[OGL LOG][Proc: 0]p: update_local_matrix_data: 38.375 [ms]
[OGL LOG][Proc: 0]p: update_non_local_matrix_data: 0.152 [ms]
[OGL LOG][Proc: 0]p_matrix: call_update: 24.171 [ms]
[OGL LOG][Proc: 0]p_rhs: call_update: 1.968 [ms]
[OGL LOG][Proc: 0]p: init_precond: 0.063 [ms]
[OGL LOG][StoppingCriterion.H:372] Creating stopping criterion with minIter 697 frequency 9
[OGL LOG][Proc: 0]p: generate_solver: 0.004 [ms]
[OGL LOG][Proc: 0]p: solve: 1943.53 [ms]
[OGL LOG][Proc: 0]p: copy_x_back: 5.632 [ms]
[OGL LOG][lduLduBase.H:339] 
Statistics:
	Time per iteration: 1685 [mu s]
	Time per residual norm calculation: 299.000000 [mu s]
	Time per iteration and DOF: 0.062407 [ns]
	Retrieve results bandwidth 2.397000 [GByte/s]
[OGL LOG][Proc: 0]p: solve_multi_gpu: 1976.29 [ms]
nonehipGKOCG:  Solving for p, Initial residual = 0.830989, Final residual = 8.55087e-05, No Iterations 1153
[INFO] SolveP: 2023.37 [ms]
time step continuity errors : sum local = 9.98526e-09, global = 4.58459e-22, cumulative = 4.44671e-21
[INFO] ContinuityError: 28.655 [ms]
[INFO] CorrectBoundary: 0.98 [ms]
[INFO] PISOStep: 2455.43 [ms]
[INFO] TimeStep: 6914.12 [ms]
ExecutionTime = 44.52 s  ClockTime = 41 s

Time = 0.00083

Courant Number mean: 0.027392 max: 0.505184
[INFO] MatrixAssemblyU: 216.173 [ms]
DILUPBiCGStab:  Solving for Ux, Initial residual = 0.0324286, Final residual = 0.00250837, No Iterations 5
DILUPBiCGStab:  Solving for Uy, Initial residual = 0.12983, Final residual = 0.0113454, No Iterations 5
DILUPBiCGStab:  Solving for Uz, Initial residual = 0.685591, Final residual = 0.0343738, No Iterations 5
[INFO] MomentumPredictor: 1766.09 [ms]
[INFO] MatrixAssemblyPI: 242.18 [ms]
[INFO] AdjustPhi: 12.748 [ms]
[INFO] ConstrainPressure: 0.003 [ms]
[INFO] MatrixAssemblyPII: 70.199 [ms]
[OGL LOG][Proc: 0]: global_index_init: 0.575 [ms]
[OGL LOG][Proc: 0]p_local_coeffs: call_update: 0 [ms]
[OGL LOG][Proc: 0]p_non_local_coeffs: call_update: 0 [ms]
[OGL LOG][Proc: 0]p: update_local_matrix_data: 37.989 [ms]
[OGL LOG][Proc: 0]p: update_non_local_matrix_data: 0.205 [ms]
[OGL LOG][Proc: 0]p_matrix: call_update: 15.672 [ms]
[OGL LOG][Proc: 0]p_rhs: call_update: 12.45 [ms]
[OGL LOG][Proc: 0]p: init_precond: 0.06 [ms]
[OGL LOG][StoppingCriterion.H:372] Creating stopping criterion with minIter 691 frequency 9
[OGL LOG][Proc: 0]p: generate_solver: 0.004 [ms]
[OGL LOG][Proc: 0]p: solve: 3903.53 [ms]
[OGL LOG][Proc: 0]p: copy_x_back: 5.956 [ms]
[OGL LOG][lduLduBase.H:339] 
Statistics:
	Time per iteration: 1642 [mu s]
	Time per residual norm calculation: 294.000000 [mu s]
	Time per iteration and DOF: 0.060815 [ns]
	Retrieve results bandwidth 2.266000 [GByte/s]
[OGL LOG][Proc: 0]p: solve_multi_gpu: 3938.6 [ms]
nonehipGKOCG:  Solving for p, Initial residual = 0.911489, Final residual = 9.95267e-05, No Iterations 2377
[INFO] SolveP: 3985.95 [ms]
time step continuity errors : sum local = 1.10749e-08, global = 1.55816e-21, cumulative = 6.00488e-21
[INFO] ContinuityError: 30.882 [ms]
[INFO] CorrectBoundary: 0.775 [ms]
[INFO] PISOStep: 4425.86 [ms]
[INFO] MatrixAssemblyPI: 236.804 [ms]
[INFO] AdjustPhi: 12.711 [ms]
[INFO] ConstrainPressure: 0.004 [ms]
[INFO] MatrixAssemblyPII: 71.095 [ms]
[OGL LOG][Proc: 0]: global_index_init: 0.054 [ms]
[OGL LOG][Proc: 0]p_local_coeffs: call_update: 0 [ms]
[OGL LOG][Proc: 0]p_non_local_coeffs: call_update: 0 [ms]
[OGL LOG][Proc: 0]p: update_local_matrix_data: 38.353 [ms]
[OGL LOG][Proc: 0]p: update_non_local_matrix_data: 0.17 [ms]
[OGL LOG][Proc: 0]p_matrix: call_update: 18.057 [ms]
[OGL LOG][Proc: 0]p_rhs: call_update: 4.478 [ms]
[OGL LOG][Proc: 0]p: init_precond: 0.061 [ms]
[OGL LOG][StoppingCriterion.H:372] Creating stopping criterion with minIter 1426 frequency 13
[OGL LOG][Proc: 0]p: generate_solver: 0.004 [ms]
[OGL LOG][Proc: 0]p: solve: 3915.1 [ms]
[OGL LOG][Proc: 0]p: copy_x_back: 5.719 [ms]
[OGL LOG][lduLduBase.H:339] 
Statistics:
	Time per iteration: 1645 [mu s]
	Time per residual norm calculation: 291.000000 [mu s]
	Time per iteration and DOF: 0.060926 [ns]
	Retrieve results bandwidth 2.360000 [GByte/s]
[OGL LOG][Proc: 0]p: solve_multi_gpu: 3944.41 [ms]
nonehipGKOCG:  Solving for p, Initial residual = 0.873379, Final residual = 8.7706e-05, No Iterations 2380
[INFO] SolveP: 3991.38 [ms]
time step continuity errors : sum local = 9.63528e-09, global = 1.60402e-21, cumulative = 7.6089e-21
[INFO] ContinuityError: 31.048 [ms]
[INFO] CorrectBoundary: 1.463 [ms]
[INFO] PISOStep: 4425.75 [ms]
[INFO] TimeStep: 10862.8 [ms]
ExecutionTime = 57.08 s  ClockTime = 51 s

Time = 0.000996

Courant Number mean: 0.0301232 max: 0.478357
[INFO] MatrixAssemblyU: 211.085 [ms]
DILUPBiCGStab:  Solving for Ux, Initial residual = 0.0271218, Final residual = 0.00227256, No Iterations 5
DILUPBiCGStab:  Solving for Uy, Initial residual = 0.112074, Final residual = 0.00907362, No Iterations 5
DILUPBiCGStab:  Solving for Uz, Initial residual = 0.589065, Final residual = 0.0271306, No Iterations 5
[INFO] MomentumPredictor: 1777.33 [ms]
[INFO] MatrixAssemblyPI: 241.789 [ms]
[INFO] AdjustPhi: 13.023 [ms]
[INFO] ConstrainPressure: 0.004 [ms]
[INFO] MatrixAssemblyPII: 70.692 [ms]
[OGL LOG][Proc: 0]: global_index_init: 0.097 [ms]
[OGL LOG][Proc: 0]p_local_coeffs: call_update: 0 [ms]
[OGL LOG][Proc: 0]p_non_local_coeffs: call_update: 0 [ms]
[OGL LOG][Proc: 0]p: update_local_matrix_data: 37.86 [ms]
[OGL LOG][Proc: 0]p: update_non_local_matrix_data: 0.199 [ms]
[OGL LOG][Proc: 0]p_matrix: call_update: 16.729 [ms]
[OGL LOG][Proc: 0]p_rhs: call_update: 4.526 [ms]
[OGL LOG][Proc: 0]p: init_precond: 0.063 [ms]
[OGL LOG][StoppingCriterion.H:372] Creating stopping criterion with minIter 1428 frequency 13
[OGL LOG][Proc: 0]p: generate_solver: 0.004 [ms]
[OGL LOG][Proc: 0]p: solve: 3891.11 [ms]
[OGL LOG][Proc: 0]p: copy_x_back: 6.015 [ms]
[OGL LOG][lduLduBase.H:339] 
Statistics:
	Time per iteration: 1634 [mu s]
	Time per residual norm calculation: 296.000000 [mu s]
	Time per iteration and DOF: 0.060519 [ns]
	Retrieve results bandwidth 2.244000 [GByte/s]
[OGL LOG][Proc: 0]p: solve_multi_gpu: 3919.36 [ms]
nonehipGKOCG:  Solving for p, Initial residual = 0.889382, Final residual = 8.30159e-05, No Iterations 2380
[INFO] SolveP: 3965.91 [ms]
time step continuity errors : sum local = 9.44633e-09, global = 9.94302e-22, cumulative = 8.6032e-21
[INFO] ContinuityError: 29.024 [ms]
[INFO] CorrectBoundary: 1.04 [ms]
[INFO] PISOStep: 4403.26 [ms]
[INFO] MatrixAssemblyPI: 234.521 [ms]
[INFO] AdjustPhi: 15.174 [ms]
[INFO] ConstrainPressure: 0.004 [ms]
[INFO] MatrixAssemblyPII: 70.777 [ms]
[OGL LOG][Proc: 0]: global_index_init: 0.064 [ms]
[OGL LOG][Proc: 0]p_local_coeffs: call_update: 0 [ms]
[OGL LOG][Proc: 0]p_non_local_coeffs: call_update: 0 [ms]
[OGL LOG][Proc: 0]p: update_local_matrix_data: 38 [ms]
[OGL LOG][Proc: 0]p: update_non_local_matrix_data: 0.151 [ms]
[OGL LOG][Proc: 0]p_matrix: call_update: 18.142 [ms]
[OGL LOG][Proc: 0]p_rhs: call_update: 4.798 [ms]
[OGL LOG][Proc: 0]p: init_precond: 0.056 [ms]
[OGL LOG][StoppingCriterion.H:372] Creating stopping criterion with minIter 1428 frequency 13
[OGL LOG][Proc: 0]p: generate_solver: 0.004 [ms]
[OGL LOG][Proc: 0]p: solve: 3912.07 [ms]
[OGL LOG][Proc: 0]p: copy_x_back: 5.905 [ms]
[OGL LOG][lduLduBase.H:339] 
Statistics:
	Time per iteration: 1643 [mu s]
	Time per residual norm calculation: 297.000000 [mu s]
	Time per iteration and DOF: 0.060852 [ns]
	Retrieve results bandwidth 2.286000 [GByte/s]
[OGL LOG][Proc: 0]p: solve_multi_gpu: 3942.31 [ms]
nonehipGKOCG:  Solving for p, Initial residual = 0.826271, Final residual = 7.80598e-05, No Iterations 2380
[INFO] SolveP: 3988.7 [ms]
time step continuity errors : sum local = 9.0158e-09, global = 2.26526e-22, cumulative = 8.82973e-21
[INFO] ContinuityError: 29.26 [ms]
[INFO] CorrectBoundary: 2.711 [ms]
[INFO] PISOStep: 4423.58 [ms]
[INFO] TimeStep: 10844 [ms]
ExecutionTime = 69.63 s  ClockTime = 62 s

Time = 0.001162

Courant Number mean: 0.0325867 max: 0.512236
[INFO] MatrixAssemblyU: 212.093 [ms]
DILUPBiCGStab:  Solving for Ux, Initial residual = 0.0246055, Final residual = 0.0021187, No Iterations 5
DILUPBiCGStab:  Solving for Uy, Initial residual = 0.098604, Final residual = 0.00833203, No Iterations 5
DILUPBiCGStab:  Solving for Uz, Initial residual = 0.562024, Final residual = 0.0239419, No Iterations 5
[INFO] MomentumPredictor: 1780.25 [ms]
[INFO] MatrixAssemblyPI: 241.901 [ms]
[INFO] AdjustPhi: 15.796 [ms]
[INFO] ConstrainPressure: 0.004 [ms]
[INFO] MatrixAssemblyPII: 70.547 [ms]
[OGL LOG][Proc: 0]: global_index_init: 0.054 [ms]
[OGL LOG][Proc: 0]p_local_coeffs: call_update: 0 [ms]
[OGL LOG][Proc: 0]p_non_local_coeffs: call_update: 0 [ms]
[OGL LOG][Proc: 0]p: update_local_matrix_data: 38.595 [ms]
[OGL LOG][Proc: 0]p: update_non_local_matrix_data: 0.258 [ms]
[OGL LOG][Proc: 0]p_matrix: call_update: 26.806 [ms]
[OGL LOG][Proc: 0]p_rhs: call_update: 2.437 [ms]
[OGL LOG][Proc: 0]p: init_precond: 0.059 [ms]
[OGL LOG][StoppingCriterion.H:372] Creating stopping criterion with minIter 1428 frequency 13
[OGL LOG][Proc: 0]p: generate_solver: 0.004 [ms]
[OGL LOG][Proc: 0]p: solve: 3545.11 [ms]
[OGL LOG][Proc: 0]p: copy_x_back: 5.955 [ms]
[OGL LOG][lduLduBase.H:339] 
Statistics:
	Time per iteration: 1622 [mu s]
	Time per residual norm calculation: 299.000000 [mu s]
	Time per iteration and DOF: 0.060074 [ns]
	Retrieve results bandwidth 2.267000 [GByte/s]
[OGL LOG][Proc: 0]p: solve_multi_gpu: 3581.28 [ms]
nonehipGKOCG:  Solving for p, Initial residual = 0.90734, Final residual = 9.84197e-05, No Iterations 2185
[INFO] SolveP: 3628.53 [ms]
time step continuity errors : sum local = 1.09397e-08, global = 4.46951e-23, cumulative = 8.87443e-21
[INFO] ContinuityError: 29.58 [ms]
[INFO] CorrectBoundary: 0.902 [ms]
[INFO] PISOStep: 4068.96 [ms]
[INFO] MatrixAssemblyPI: 235.895 [ms]
[INFO] AdjustPhi: 16.283 [ms]
[INFO] ConstrainPressure: 0.004 [ms]
[INFO] MatrixAssemblyPII: 69.421 [ms]
[OGL LOG][Proc: 0]: global_index_init: 0.035 [ms]
[OGL LOG][Proc: 0]p_local_coeffs: call_update: 0 [ms]
[OGL LOG][Proc: 0]p_non_local_coeffs: call_update: 0 [ms]
[OGL LOG][Proc: 0]p: update_local_matrix_data: 37.994 [ms]
[OGL LOG][Proc: 0]p: update_non_local_matrix_data: 0.267 [ms]
[OGL LOG][Proc: 0]p_matrix: call_update: 18.498 [ms]
[OGL LOG][Proc: 0]p_rhs: call_update: 2.74 [ms]
[OGL LOG][Proc: 0]p: init_precond: 0.059 [ms]
[OGL LOG][StoppingCriterion.H:372] Creating stopping criterion with minIter 1311 frequency 13
[OGL LOG][Proc: 0]p: generate_solver: 0.003 [ms]
[OGL LOG][Proc: 0]p: solve: 3718.7 [ms]
[OGL LOG][Proc: 0]p: copy_x_back: 5.903 [ms]
[OGL LOG][lduLduBase.H:339] 
Statistics:
	Time per iteration: 1624 [mu s]
	Time per residual norm calculation: 292.000000 [mu s]
	Time per iteration and DOF: 0.060148 [ns]
	Retrieve results bandwidth 2.286000 [GByte/s]
[OGL LOG][Proc: 0]p: solve_multi_gpu: 3746.83 [ms]
nonehipGKOCG:  Solving for p, Initial residual = 0.86236, Final residual = 9.50187e-05, No Iterations 2289
[INFO] SolveP: 3793.63 [ms]
time step continuity errors : sum local = 1.04467e-08, global = 9.98001e-22, cumulative = 9.87243e-21
[INFO] ContinuityError: 29.223 [ms]
[INFO] CorrectBoundary: 1.277 [ms]
[INFO] PISOStep: 4230.16 [ms]
[INFO] TimeStep: 10319.9 [ms]
ExecutionTime = 81.57 s  ClockTime = 73 s

Time = 0.001328

Courant Number mean: 0.0346583 max: 0.48128
[INFO] MatrixAssemblyU: 210.403 [ms]
DILUPBiCGStab:  Solving for Ux, Initial residual = 0.0221937, Final residual = 0.0019891, No Iterations 5
DILUPBiCGStab:  Solving for Uy, Initial residual = 0.0873551, Final residual = 0.0070095, No Iterations 5
DILUPBiCGStab:  Solving for Uz, Initial residual = 0.521436, Final residual = 0.0222278, No Iterations 5
[INFO] MomentumPredictor: 1762.62 [ms]
[INFO] MatrixAssemblyPI: 242.105 [ms]
[INFO] AdjustPhi: 12.508 [ms]
[INFO] ConstrainPressure: 0.003 [ms]
[INFO] MatrixAssemblyPII: 70.742 [ms]
[OGL LOG][Proc: 0]: global_index_init: 0.109 [ms]
[OGL LOG][Proc: 0]p_local_coeffs: call_update: 0 [ms]
[OGL LOG][Proc: 0]p_non_local_coeffs: call_update: 0 [ms]
[OGL LOG][Proc: 0]p: update_local_matrix_data: 38.535 [ms]
[OGL LOG][Proc: 0]p: update_non_local_matrix_data: 0.261 [ms]
[OGL LOG][Proc: 0]p_matrix: call_update: 16.676 [ms]
[OGL LOG][Proc: 0]p_rhs: call_update: 3.241 [ms]
[OGL LOG][Proc: 0]p: init_precond: 0.062 [ms]
[OGL LOG][StoppingCriterion.H:372] Creating stopping criterion with minIter 1373 frequency 13
[OGL LOG][Proc: 0]p: generate_solver: 0.004 [ms]
[OGL LOG][Proc: 0]p: solve: 3729.1 [ms]
[OGL LOG][Proc: 0]p: copy_x_back: 5.567 [ms]
[OGL LOG][lduLduBase.H:339] 
Statistics:
	Time per iteration: 1619 [mu s]
	Time per residual norm calculation: 293.000000 [mu s]
	Time per iteration and DOF: 0.059963 [ns]
	Retrieve results bandwidth 2.425000 [GByte/s]
[OGL LOG][Proc: 0]p: solve_multi_gpu: 3755.96 [ms]
nonehipGKOCG:  Solving for p, Initial residual = 0.885798, Final residual = 9.83122e-05, No Iterations 2302
[INFO] SolveP: 3803.05 [ms]
time step continuity errors : sum local = 1.11114e-08, global = 6.12454e-22, cumulative = 1.04849e-20
[INFO] ContinuityError: 29.464 [ms]
[INFO] CorrectBoundary: 1.234 [ms]
[INFO] PISOStep: 4240.08 [ms]
[INFO] MatrixAssemblyPI: 234.694 [ms]
[INFO] AdjustPhi: 12.763 [ms]
[INFO] ConstrainPressure: 0.004 [ms]
[INFO] MatrixAssemblyPII: 71.232 [ms]
[OGL LOG][Proc: 0]: global_index_init: 0.052 [ms]
[OGL LOG][Proc: 0]p_local_coeffs: call_update: 0 [ms]
[OGL LOG][Proc: 0]p_non_local_coeffs: call_update: 0 [ms]
[OGL LOG][Proc: 0]p: update_local_matrix_data: 37.904 [ms]
[OGL LOG][Proc: 0]p: update_non_local_matrix_data: 0.176 [ms]
[OGL LOG][Proc: 0]p_matrix: call_update: 18.934 [ms]
[OGL LOG][Proc: 0]p_rhs: call_update: 4.725 [ms]
[OGL LOG][Proc: 0]p: init_precond: 0.056 [ms]
[OGL LOG][StoppingCriterion.H:372] Creating stopping criterion with minIter 1381 frequency 13
[OGL LOG][Proc: 0]p: generate_solver: 0.003 [ms]
[OGL LOG][Proc: 0]p: solve: 3768.67 [ms]
[OGL LOG][Proc: 0]p: copy_x_back: 5.791 [ms]
[OGL LOG][lduLduBase.H:339] 
Statistics:
	Time per iteration: 1637 [mu s]
	Time per residual norm calculation: 303.000000 [mu s]
	Time per iteration and DOF: 0.060630 [ns]
	Retrieve results bandwidth 2.331000 [GByte/s]
[OGL LOG][Proc: 0]p: solve_multi_gpu: 3799.45 [ms]
nonehipGKOCG:  Solving for p, Initial residual = 0.820066, Final residual = 9.21736e-05, No Iterations 2302
[INFO] SolveP: 3845.91 [ms]
time step continuity errors : sum local = 1.05593e-08, global = 7.86257e-22, cumulative = 1.12711e-20
[INFO] ContinuityError: 29.735 [ms]
[INFO] CorrectBoundary: 1.297 [ms]
[INFO] PISOStep: 4276.66 [ms]
[INFO] TimeStep: 10518.2 [ms]
ExecutionTime = 93.73 s  ClockTime = 83 s

Time = 0.001494

Courant Number mean: 0.0365913 max: 0.51842
[INFO] MatrixAssemblyU: 209.813 [ms]
DILUPBiCGStab:  Solving for Ux, Initial residual = 0.020622, Final residual = 0.00185741, No Iterations 5
DILUPBiCGStab:  Solving for Uy, Initial residual = 0.0822836, Final residual = 0.00660579, No Iterations 5
DILUPBiCGStab:  Solving for Uz, Initial residual = 0.515785, Final residual = 0.0204191, No Iterations 5
[INFO] MomentumPredictor: 1764.35 [ms]
[INFO] MatrixAssemblyPI: 241.891 [ms]
[INFO] AdjustPhi: 13.056 [ms]
[INFO] ConstrainPressure: 0.005 [ms]
[INFO] MatrixAssemblyPII: 70.396 [ms]
[OGL LOG][Proc: 0]: global_index_init: 0.049 [ms]
[OGL LOG][Proc: 0]p_local_coeffs: call_update: 0 [ms]
[OGL LOG][Proc: 0]p_non_local_coeffs: call_update: 0 [ms]
[OGL LOG][Proc: 0]p: update_local_matrix_data: 37.741 [ms]
[OGL LOG][Proc: 0]p: update_non_local_matrix_data: 0.246 [ms]
[OGL LOG][Proc: 0]p_matrix: call_update: 18.305 [ms]
[OGL LOG][Proc: 0]p_rhs: call_update: 3.824 [ms]
[OGL LOG][Proc: 0]p: init_precond: 0.057 [ms]
[OGL LOG][StoppingCriterion.H:372] Creating stopping criterion with minIter 1381 frequency 13
[OGL LOG][Proc: 0]p: generate_solver: 0.003 [ms]
[OGL LOG][Proc: 0]p: solve: 3402.8 [ms]
[OGL LOG][Proc: 0]p: copy_x_back: 5.917 [ms]
[OGL LOG][lduLduBase.H:339] 
Statistics:
	Time per iteration: 1625 [mu s]
	Time per residual norm calculation: 301.000000 [mu s]
	Time per iteration and DOF: 0.060185 [ns]
	Retrieve results bandwidth 2.281000 [GByte/s]
[OGL LOG][Proc: 0]p: solve_multi_gpu: 3432.27 [ms]
nonehipGKOCG:  Solving for p, Initial residual = 0.90327, Final residual = 9.48674e-05, No Iterations 2094
[INFO] SolveP: 3478.75 [ms]
time step continuity errors : sum local = 1.05056e-08, global = 3.16315e-22, cumulative = 1.15875e-20
[INFO] ContinuityError: 29.663 [ms]
[INFO] CorrectBoundary: 0.871 [ms]
[INFO] PISOStep: 3916.62 [ms]
[INFO] MatrixAssemblyPI: 234.777 [ms]
[INFO] AdjustPhi: 14.69 [ms]
[INFO] ConstrainPressure: 0.005 [ms]
[INFO] MatrixAssemblyPII: 70.777 [ms]
[OGL LOG][Proc: 0]: global_index_init: 0.137 [ms]
[OGL LOG][Proc: 0]p_local_coeffs: call_update: 0 [ms]
[OGL LOG][Proc: 0]p_non_local_coeffs: call_update: 0 [ms]
[OGL LOG][Proc: 0]p: update_local_matrix_data: 38.07 [ms]
[OGL LOG][Proc: 0]p: update_non_local_matrix_data: 0.152 [ms]
[OGL LOG][Proc: 0]p_matrix: call_update: 29.084 [ms]
[OGL LOG][Proc: 0]p_rhs: call_update: 2.527 [ms]
[OGL LOG][Proc: 0]p: init_precond: 0.056 [ms]
[OGL LOG][StoppingCriterion.H:372] Creating stopping criterion with minIter 1256 frequency 12
[OGL LOG][Proc: 0]p: generate_solver: 0.004 [ms]
[OGL LOG][Proc: 0]p: solve: 3427.16 [ms]
[OGL LOG][Proc: 0]p: copy_x_back: 5.859 [ms]
[OGL LOG][lduLduBase.H:339] 
Statistics:
	Time per iteration: 1640 [mu s]
	Time per residual norm calculation: 290.000000 [mu s]
	Time per iteration and DOF: 0.060741 [ns]
	Retrieve results bandwidth 2.304000 [GByte/s]
[OGL LOG][Proc: 0]p: solve_multi_gpu: 3465.77 [ms]
nonehipGKOCG:  Solving for p, Initial residual = 0.853754, Final residual = 9.30579e-05, No Iterations 2089
[INFO] SolveP: 3512.4 [ms]
time step continuity errors : sum local = 1.02054e-08, global = 7.33074e-22, cumulative = 1.23205e-20
[INFO] ContinuityError: 29.105 [ms]
[INFO] CorrectBoundary: 0.581 [ms]
[INFO] PISOStep: 3944.87 [ms]
[INFO] TimeStep: 9864.35 [ms]
ExecutionTime = 105.15 s  ClockTime = 93 s

Time = 0.00166

Courant Number mean: 0.0382731 max: 0.483673
[INFO] MatrixAssemblyU: 206.003 [ms]
DILUPBiCGStab:  Solving for Ux, Initial residual = 0.0194298, Final residual = 0.00177003, No Iterations 5
DILUPBiCGStab:  Solving for Uy, Initial residual = 0.0739346, Final residual = 0.00573336, No Iterations 5
DILUPBiCGStab:  Solving for Uz, Initial residual = 0.492096, Final residual = 0.0192354, No Iterations 5
[INFO] MomentumPredictor: 1763.91 [ms]
[INFO] MatrixAssemblyPI: 240.873 [ms]
[INFO] AdjustPhi: 13.93 [ms]
[INFO] ConstrainPressure: 0.004 [ms]
[INFO] MatrixAssemblyPII: 70.644 [ms]
[OGL LOG][Proc: 0]: global_index_init: 0.591 [ms]
[OGL LOG][Proc: 0]p_local_coeffs: call_update: 0 [ms]
[OGL LOG][Proc: 0]p_non_local_coeffs: call_update: 0 [ms]
[OGL LOG][Proc: 0]p: update_local_matrix_data: 38.4 [ms]
[OGL LOG][Proc: 0]p: update_non_local_matrix_data: 0.149 [ms]
[OGL LOG][Proc: 0]p_matrix: call_update: 16.713 [ms]
[OGL LOG][Proc: 0]p_rhs: call_update: 4.586 [ms]
[OGL LOG][Proc: 0]p: init_precond: 0.057 [ms]
[OGL LOG][StoppingCriterion.H:372] Creating stopping criterion with minIter 1253 frequency 12
[OGL LOG][Proc: 0]p: generate_solver: 0.004 [ms]
[OGL LOG][Proc: 0]p: solve: 3749.39 [ms]
[OGL LOG][Proc: 0]p: copy_x_back: 5.973 [ms]
[OGL LOG][lduLduBase.H:339] 
Statistics:
	Time per iteration: 1626 [mu s]
	Time per residual norm calculation: 297.000000 [mu s]
	Time per iteration and DOF: 0.060222 [ns]
	Retrieve results bandwidth 2.260000 [GByte/s]
[OGL LOG][Proc: 0]p: solve_multi_gpu: 3778.14 [ms]
nonehipGKOCG:  Solving for p, Initial residual = 0.884607, Final residual = 9.0769e-05, No Iterations 2305
[INFO] SolveP: 3825.48 [ms]
time step continuity errors : sum local = 1.03689e-08, global = 2.0559e-22, cumulative = 1.25261e-20
[INFO] ContinuityError: 29.044 [ms]
[INFO] CorrectBoundary: 1.491 [ms]
[INFO] PISOStep: 4263.88 [ms]
[INFO] MatrixAssemblyPI: 235.038 [ms]
[INFO] AdjustPhi: 13.08 [ms]
[INFO] ConstrainPressure: 0.004 [ms]
[INFO] MatrixAssemblyPII: 71.08 [ms]
[OGL LOG][Proc: 0]: global_index_init: 0.042 [ms]
[OGL LOG][Proc: 0]p_local_coeffs: call_update: 0 [ms]
[OGL LOG][Proc: 0]p_non_local_coeffs: call_update: 0 [ms]
[OGL LOG][Proc: 0]p: update_local_matrix_data: 38.669 [ms]
[OGL LOG][Proc: 0]p: update_non_local_matrix_data: 0.182 [ms]
[OGL LOG][Proc: 0]p_matrix: call_update: 15.844 [ms]
[OGL LOG][Proc: 0]p_rhs: call_update: 3.11 [ms]
[OGL LOG][Proc: 0]p: init_precond: 0.055 [ms]
[OGL LOG][StoppingCriterion.H:372] Creating stopping criterion with minIter 1383 frequency 13
[OGL LOG][Proc: 0]p: generate_solver: 0.005 [ms]
[OGL LOG][Proc: 0]p: solve: 3767.36 [ms]
[OGL LOG][Proc: 0]p: copy_x_back: 5.98 [ms]
[OGL LOG][lduLduBase.H:339] 
Statistics:
	Time per iteration: 1636 [mu s]
	Time per residual norm calculation: 297.000000 [mu s]
	Time per iteration and DOF: 0.060593 [ns]
	Retrieve results bandwidth 2.257000 [GByte/s]
[OGL LOG][Proc: 0]p: solve_multi_gpu: 3793.27 [ms]
nonehipGKOCG:  Solving for p, Initial residual = 0.815809, Final residual = 8.76784e-05, No Iterations 2302
[INFO] SolveP: 3840.57 [ms]
time step continuity errors : sum local = 1.01401e-08, global = 1.48464e-21, cumulative = 1.40108e-20
[INFO] ContinuityError: 28.669 [ms]
[INFO] CorrectBoundary: 1.089 [ms]
[INFO] PISOStep: 4270.91 [ms]
[INFO] TimeStep: 10533.3 [ms]
ExecutionTime = 117.39 s  ClockTime = 104 s

Time = 0.001826

Courant Number mean: 0.0398821 max: 0.525022
[INFO] MatrixAssemblyU: 211.943 [ms]
DILUPBiCGStab:  Solving for Ux, Initial residual = 0.0182454, Final residual = 0.00164758, No Iterations 5
DILUPBiCGStab:  Solving for Uy, Initial residual = 0.0723394, Final residual = 0.00551705, No Iterations 5
DILUPBiCGStab:  Solving for Uz, Initial residual = 0.494428, Final residual = 0.0183114, No Iterations 5
[INFO] MomentumPredictor: 1767.38 [ms]
[INFO] MatrixAssemblyPI: 242.073 [ms]
[INFO] AdjustPhi: 13.143 [ms]
[INFO] ConstrainPressure: 0.005 [ms]
[INFO] MatrixAssemblyPII: 70.954 [ms]
[OGL LOG][Proc: 0]: global_index_init: 0.046 [ms]
[OGL LOG][Proc: 0]p_local_coeffs: call_update: 0 [ms]
[OGL LOG][Proc: 0]p_non_local_coeffs: call_update: 0 [ms]
[OGL LOG][Proc: 0]p: update_local_matrix_data: 38.104 [ms]
[OGL LOG][Proc: 0]p: update_non_local_matrix_data: 0.227 [ms]
[OGL LOG][Proc: 0]p_matrix: call_update: 19.765 [ms]
[OGL LOG][Proc: 0]p_rhs: call_update: 2.074 [ms]
[OGL LOG][Proc: 0]p: init_precond: 0.055 [ms]
[OGL LOG][StoppingCriterion.H:372] Creating stopping criterion with minIter 1381 frequency 13
[OGL LOG][Proc: 0]p: generate_solver: 0.004 [ms]
[OGL LOG][Proc: 0]p: solve: 3733.96 [ms]
[OGL LOG][Proc: 0]p: copy_x_back: 6.384 [ms]
[OGL LOG][lduLduBase.H:339] 
Statistics:
	Time per iteration: 1622 [mu s]
	Time per residual norm calculation: 297.000000 [mu s]
	Time per iteration and DOF: 0.060074 [ns]
	Retrieve results bandwidth 2.114000 [GByte/s]
[OGL LOG][Proc: 0]p: solve_multi_gpu: 3763.2 [ms]
nonehipGKOCG:  Solving for p, Initial residual = 0.903421, Final residual = 8.45275e-05, No Iterations 2302
[INFO] SolveP: 3809.86 [ms]
time step continuity errors : sum local = 9.608e-09, global = 1.0987e-21, cumulative = 1.51095e-20
[INFO] ContinuityError: 29.522 [ms]
[INFO] CorrectBoundary: 0.676 [ms]
[INFO] PISOStep: 4247.95 [ms]
[INFO] MatrixAssemblyPI: 235.302 [ms]
[INFO] AdjustPhi: 12.915 [ms]
[INFO] ConstrainPressure: 0.004 [ms]
[INFO] MatrixAssemblyPII: 71.341 [ms]
[OGL LOG][Proc: 0]: global_index_init: 0.072 [ms]
[OGL LOG][Proc: 0]p_local_coeffs: call_update: 0 [ms]
[OGL LOG][Proc: 0]p_non_local_coeffs: call_update: 0 [ms]
[OGL LOG][Proc: 0]p: update_local_matrix_data: 37.984 [ms]
[OGL LOG][Proc: 0]p: update_non_local_matrix_data: 0.181 [ms]
[OGL LOG][Proc: 0]p_matrix: call_update: 19.925 [ms]
[OGL LOG][Proc: 0]p_rhs: call_update: 3.319 [ms]
[OGL LOG][Proc: 0]p: init_precond: 0.056 [ms]
[OGL LOG][StoppingCriterion.H:372] Creating stopping criterion with minIter 1381 frequency 13
[OGL LOG][Proc: 0]p: generate_solver: 0.004 [ms]
[OGL LOG][Proc: 0]p: solve: 3723.46 [ms]
[OGL LOG][Proc: 0]p: copy_x_back: 5.841 [ms]
[OGL LOG][lduLduBase.H:339] 
Statistics:
	Time per iteration: 1617 [mu s]
	Time per residual norm calculation: 296.000000 [mu s]
	Time per iteration and DOF: 0.059889 [ns]
	Retrieve results bandwidth 2.311000 [GByte/s]
[OGL LOG][Proc: 0]p: solve_multi_gpu: 3753.49 [ms]
nonehipGKOCG:  Solving for p, Initial residual = 0.849022, Final residual = 8.00369e-05, No Iterations 2302
[INFO] SolveP: 3800.07 [ms]
time step continuity errors : sum local = 9.0223e-09, global = 5.94947e-22, cumulative = 1.57044e-20
[INFO] ContinuityError: 30.456 [ms]
[INFO] CorrectBoundary: 1.256 [ms]
[INFO] PISOStep: 4231.4 [ms]
[INFO] TimeStep: 10487.5 [ms]
ExecutionTime = 129.58 s  ClockTime = 114 s

Time = 0.001992

Courant Number mean: 0.0413038 max: 0.486766
[INFO] MatrixAssemblyU: 212.353 [ms]
DILUPBiCGStab:  Solving for Ux, Initial residual = 0.0176541, Final residual = 0.00159448, No Iterations 5
DILUPBiCGStab:  Solving for Uy, Initial residual = 0.0658191, Final residual = 0.00485631, No Iterations 5
DILUPBiCGStab:  Solving for Uz, Initial residual = 0.480298, Final residual = 0.017844, No Iterations 5
[INFO] MomentumPredictor: 1762.91 [ms]
[INFO] MatrixAssemblyPI: 241.32 [ms]
[INFO] AdjustPhi: 12.992 [ms]
[INFO] ConstrainPressure: 0.004 [ms]
[INFO] MatrixAssemblyPII: 71.099 [ms]
[OGL LOG][Proc: 0]: global_index_init: 0.069 [ms]
[OGL LOG][Proc: 0]p_local_coeffs: call_update: 0 [ms]
[OGL LOG][Proc: 0]p_non_local_coeffs: call_update: 0 [ms]
[OGL LOG][Proc: 0]p: update_local_matrix_data: 38.473 [ms]
[OGL LOG][Proc: 0]p: update_non_local_matrix_data: 0.202 [ms]
[OGL LOG][Proc: 0]p_matrix: call_update: 25.964 [ms]
[OGL LOG][Proc: 0]p_rhs: call_update: 2.855 [ms]
[OGL LOG][Proc: 0]p: init_precond: 0.059 [ms]
[OGL LOG][StoppingCriterion.H:372] Creating stopping criterion with minIter 1381 frequency 13
[OGL LOG][Proc: 0]p: generate_solver: 0.004 [ms]
[OGL LOG][Proc: 0]p: solve: 3739.49 [ms]
[OGL LOG][Proc: 0]p: copy_x_back: 5.969 [ms]
[OGL LOG][lduLduBase.H:339] 
Statistics:
	Time per iteration: 1624 [mu s]
	Time per residual norm calculation: 300.000000 [mu s]
	Time per iteration and DOF: 0.060148 [ns]
	Retrieve results bandwidth 2.261000 [GByte/s]
[OGL LOG][Proc: 0]p: solve_multi_gpu: 3775.26 [ms]
nonehipGKOCG:  Solving for p, Initial residual = 0.886199, Final residual = 8.76604e-05, No Iterations 2302
[INFO] SolveP: 3822.28 [ms]
time step continuity errors : sum local = 1.03582e-08, global = 5.64962e-22, cumulative = 1.62694e-20
[INFO] ContinuityError: 29.138 [ms]
[INFO] CorrectBoundary: 1.257 [ms]
[INFO] PISOStep: 4259.05 [ms]
[INFO] MatrixAssemblyPI: 234.314 [ms]
[INFO] AdjustPhi: 13.71 [ms]
[INFO] ConstrainPressure: 0.003 [ms]
[INFO] MatrixAssemblyPII: 71.192 [ms]
[OGL LOG][Proc: 0]: global_index_init: 0.088 [ms]
[OGL LOG][Proc: 0]p_local_coeffs: call_update: 0 [ms]
[OGL LOG][Proc: 0]p_non_local_coeffs: call_update: 0 [ms]
[OGL LOG][Proc: 0]p: update_local_matrix_data: 37.967 [ms]
[OGL LOG][Proc: 0]p: update_non_local_matrix_data: 0.154 [ms]
[OGL LOG][Proc: 0]p_matrix: call_update: 17.136 [ms]
[OGL LOG][Proc: 0]p_rhs: call_update: 4.619 [ms]
[OGL LOG][Proc: 0]p: init_precond: 0.06 [ms]
[OGL LOG][StoppingCriterion.H:372] Creating stopping criterion with minIter 1381 frequency 13
[OGL LOG][Proc: 0]p: generate_solver: 0.004 [ms]
[OGL LOG][Proc: 0]p: solve: 3771.36 [ms]
[OGL LOG][Proc: 0]p: copy_x_back: 5.828 [ms]
[OGL LOG][lduLduBase.H:339] 
Statistics:
	Time per iteration: 1638 [mu s]
	Time per residual norm calculation: 293.000000 [mu s]
	Time per iteration and DOF: 0.060667 [ns]
	Retrieve results bandwidth 2.316000 [GByte/s]
[OGL LOG][Proc: 0]p: solve_multi_gpu: 3799.97 [ms]
nonehipGKOCG:  Solving for p, Initial residual = 0.81593, Final residual = 8.22762e-05, No Iterations 2302
[INFO] SolveP: 3846.44 [ms]
time step continuity errors : sum local = 9.82933e-09, global = 5.73634e-22, cumulative = 1.6843e-20
[INFO] ContinuityError: 29.078 [ms]
[INFO] CorrectBoundary: 0.807 [ms]
[INFO] PISOStep: 4278.27 [ms]
[INFO] TimeStep: 10541.2 [ms]
ExecutionTime = 141.79 s  ClockTime = 125 s

Time = 0.002158

Courant Number mean: 0.0426919 max: 0.532611
[INFO] MatrixAssemblyU: 215.104 [ms]
DILUPBiCGStab:  Solving for Ux, Initial residual = 0.0167149, Final residual = 0.00147948, No Iterations 5
DILUPBiCGStab:  Solving for Uy, Initial residual = 0.0658884, Final residual = 0.00476394, No Iterations 5
DILUPBiCGStab:  Solving for Uz, Initial residual = 0.487506, Final residual = 0.0173811, No Iterations 5
[INFO] MomentumPredictor: 1756.48 [ms]
[INFO] MatrixAssemblyPI: 242.331 [ms]
[INFO] AdjustPhi: 13.212 [ms]
[INFO] ConstrainPressure: 0.004 [ms]
[INFO] MatrixAssemblyPII: 71.232 [ms]
[OGL LOG][Proc: 0]: global_index_init: 0.039 [ms]
[OGL LOG][Proc: 0]p_local_coeffs: call_update: 0 [ms]
[OGL LOG][Proc: 0]p_non_local_coeffs: call_update: 0 [ms]
[OGL LOG][Proc: 0]p: update_local_matrix_data: 38.034 [ms]
[OGL LOG][Proc: 0]p: update_non_local_matrix_data: 0.248 [ms]
[OGL LOG][Proc: 0]p_matrix: call_update: 18.611 [ms]
[OGL LOG][Proc: 0]p_rhs: call_update: 5.627 [ms]
[OGL LOG][Proc: 0]p: init_precond: 0.054 [ms]
[OGL LOG][StoppingCriterion.H:372] Creating stopping criterion with minIter 1381 frequency 13
[OGL LOG][Proc: 0]p: generate_solver: 0.004 [ms]
[OGL LOG][Proc: 0]p: solve: 3731.98 [ms]
[OGL LOG][Proc: 0]p: copy_x_back: 5.821 [ms]
[OGL LOG][lduLduBase.H:339] 
Statistics:
	Time per iteration: 1621 [mu s]
	Time per residual norm calculation: 1104.000000 [mu s]
	Time per iteration and DOF: 0.060037 [ns]
	Retrieve results bandwidth 2.319000 [GByte/s]
[OGL LOG][Proc: 0]p: solve_multi_gpu: 3763.01 [ms]
nonehipGKOCG:  Solving for p, Initial residual = 0.904137, Final residual = 8.50604e-05, No Iterations 2302
[INFO] SolveP: 3809.74 [ms]
time step continuity errors : sum local = 1.00591e-08, global = 8.62705e-22, cumulative = 1.77057e-20
[INFO] ContinuityError: 29.471 [ms]
[INFO] CorrectBoundary: 0.718 [ms]
[INFO] PISOStep: 4248.06 [ms]
[INFO] MatrixAssemblyPI: 235.305 [ms]
[INFO] AdjustPhi: 12.963 [ms]
[INFO] ConstrainPressure: 0.004 [ms]
[INFO] MatrixAssemblyPII: 71.422 [ms]
[OGL LOG][Proc: 0]: global_index_init: 0.049 [ms]
[OGL LOG][Proc: 0]p_local_coeffs: call_update: 0 [ms]
[OGL LOG][Proc: 0]p_non_local_coeffs: call_update: 0 [ms]
[OGL LOG][Proc: 0]p: update_local_matrix_data: 38.044 [ms]
[OGL LOG][Proc: 0]p: update_non_local_matrix_data: 0.172 [ms]
[OGL LOG][Proc: 0]p_matrix: call_update: 17.952 [ms]
[OGL LOG][Proc: 0]p_rhs: call_update: 4.352 [ms]
[OGL LOG][Proc: 0]p: init_precond: 0.057 [ms]
[OGL LOG][StoppingCriterion.H:372] Creating stopping criterion with minIter 1381 frequency 30
[OGL LOG][Proc: 0]p: generate_solver: 0.004 [ms]
[OGL LOG][Proc: 0]p: solve: 3787.38 [ms]
[OGL LOG][Proc: 0]p: copy_x_back: 6.032 [ms]
[OGL LOG][lduLduBase.H:339] 
Statistics:
	Time per iteration: 1638 [mu s]
	Time per residual norm calculation: 300.000000 [mu s]
	Time per iteration and DOF: 0.060667 [ns]
	Retrieve results bandwidth 2.238000 [GByte/s]
[OGL LOG][Proc: 0]p: solve_multi_gpu: 3817.17 [ms]
nonehipGKOCG:  Solving for p, Initial residual = 0.846184, Final residual = 7.30001e-05, No Iterations 2311
[INFO] SolveP: 3863.85 [ms]
time step continuity errors : sum local = 8.5737e-09, global = 1.46005e-21, cumulative = 1.91658e-20
[INFO] ContinuityError: 28.334 [ms]
[INFO] CorrectBoundary: 0.608 [ms]
[INFO] PISOStep: 4294.21 [ms]
[INFO] TimeStep: 10542.4 [ms]
ExecutionTime = 153.99 s  ClockTime = 135 s

Time = 0.002324

Courant Number mean: 0.0439262 max: 0.489817
[INFO] MatrixAssemblyU: 213.42 [ms]
DILUPBiCGStab:  Solving for Ux, Initial residual = 0.0164764, Final residual = 0.00145442, No Iterations 5
DILUPBiCGStab:  Solving for Uy, Initial residual = 0.0607021, Final residual = 0.00423231, No Iterations 5
DILUPBiCGStab:  Solving for Uz, Initial residual = 0.478224, Final residual = 0.0170064, No Iterations 5
[INFO] MomentumPredictor: 1762.46 [ms]
[INFO] MatrixAssemblyPI: 242.044 [ms]
[INFO] AdjustPhi: 15.043 [ms]
[INFO] ConstrainPressure: 0.004 [ms]
[INFO] MatrixAssemblyPII: 70.99 [ms]
[OGL LOG][Proc: 0]: global_index_init: 0.039 [ms]
[OGL LOG][Proc: 0]p_local_coeffs: call_update: 0 [ms]
[OGL LOG][Proc: 0]p_non_local_coeffs: call_update: 0 [ms]
[OGL LOG][Proc: 0]p: update_local_matrix_data: 38.222 [ms]
[OGL LOG][Proc: 0]p: update_non_local_matrix_data: 0.224 [ms]
[OGL LOG][Proc: 0]p_matrix: call_update: 19.318 [ms]
[OGL LOG][Proc: 0]p_rhs: call_update: 3.863 [ms]
[OGL LOG][Proc: 0]p: init_precond: 0.057 [ms]
[OGL LOG][StoppingCriterion.H:372] Creating stopping criterion with minIter 1386 frequency 13
[OGL LOG][Proc: 0]p: generate_solver: 0.004 [ms]
[OGL LOG][Proc: 0]p: solve: 3712.65 [ms]
[OGL LOG][Proc: 0]p: copy_x_back: 5.717 [ms]
[OGL LOG][lduLduBase.H:339] 
Statistics:
	Time per iteration: 1612 [mu s]
	Time per residual norm calculation: 300.000000 [mu s]
	Time per iteration and DOF: 0.059704 [ns]
	Retrieve results bandwidth 2.361000 [GByte/s]
[OGL LOG][Proc: 0]p: solve_multi_gpu: 3742.65 [ms]
nonehipGKOCG:  Solving for p, Initial residual = 0.888598, Final residual = 8.38629e-05, No Iterations 2302
[INFO] SolveP: 3789.49 [ms]
time step continuity errors : sum local = 1.03204e-08, global = -2.69475e-24, cumulative = 1.91631e-20
[INFO] ContinuityError: 28.581 [ms]
[INFO] CorrectBoundary: 0.927 [ms]
[INFO] PISOStep: 4229.52 [ms]
[INFO] MatrixAssemblyPI: 234.58 [ms]
[INFO] AdjustPhi: 13.362 [ms]
[INFO] ConstrainPressure: 0.004 [ms]
[INFO] MatrixAssemblyPII: 69.02 [ms]
[OGL LOG][Proc: 0]: global_index_init: 0.064 [ms]
[OGL LOG][Proc: 0]p_local_coeffs: call_update: 0 [ms]
[OGL LOG][Proc: 0]p_non_local_coeffs: call_update: 0 [ms]
[OGL LOG][Proc: 0]p: update_local_matrix_data: 37.926 [ms]
[OGL LOG][Proc: 0]p: update_non_local_matrix_data: 0.288 [ms]
[OGL LOG][Proc: 0]p_matrix: call_update: 28.317 [ms]
[OGL LOG][Proc: 0]p_rhs: call_update: 3.61 [ms]
[OGL LOG][Proc: 0]p: init_precond: 0.057 [ms]
[OGL LOG][StoppingCriterion.H:372] Creating stopping criterion with minIter 1381 frequency 13
[OGL LOG][Proc: 0]p: generate_solver: 0.004 [ms]
[OGL LOG][Proc: 0]p: solve: 3794.81 [ms]
[OGL LOG][Proc: 0]p: copy_x_back: 6.027 [ms]
[OGL LOG][lduLduBase.H:339] 
Statistics:
	Time per iteration: 1648 [mu s]
	Time per residual norm calculation: 293.000000 [mu s]
	Time per iteration and DOF: 0.061037 [ns]
	Retrieve results bandwidth 2.239000 [GByte/s]
[OGL LOG][Proc: 0]p: solve_multi_gpu: 3833.84 [ms]
nonehipGKOCG:  Solving for p, Initial residual = 0.817157, Final residual = 7.91368e-05, No Iterations 2302
[INFO] SolveP: 3880.38 [ms]
time step continuity errors : sum local = 9.83253e-09, global = 1.66949e-21, cumulative = 2.08326e-20
[INFO] ContinuityError: 28.833 [ms]
[INFO] CorrectBoundary: 1.268 [ms]
[INFO] PISOStep: 4312.06 [ms]
[INFO] TimeStep: 10546.8 [ms]
ExecutionTime = 166.21 s  ClockTime = 146 s

Time = 0.00249

Courant Number mean: 0.0451537 max: 0.541228
[INFO] MatrixAssemblyU: 213.596 [ms]
DILUPBiCGStab:  Solving for Ux, Initial residual = 0.0157218, Final residual = 0.00134384, No Iterations 5
DILUPBiCGStab:  Solving for Uy, Initial residual = 0.0615783, Final residual = 0.00421531, No Iterations 5
DILUPBiCGStab:  Solving for Uz, Initial residual = 0.487479, Final residual = 0.0167646, No Iterations 5
[INFO] MomentumPredictor: 1766.37 [ms]
[INFO] MatrixAssemblyPI: 241.234 [ms]
[INFO] AdjustPhi: 13.003 [ms]
[INFO] ConstrainPressure: 0.005 [ms]
[INFO] MatrixAssemblyPII: 70.908 [ms]
[OGL LOG][Proc: 0]: global_index_init: 0.085 [ms]
[OGL LOG][Proc: 0]p_local_coeffs: call_update: 0 [ms]
[OGL LOG][Proc: 0]p_non_local_coeffs: call_update: 0 [ms]
[OGL LOG][Proc: 0]p: update_local_matrix_data: 37.78 [ms]
[OGL LOG][Proc: 0]p: update_non_local_matrix_data: 0.162 [ms]
[OGL LOG][Proc: 0]p_matrix: call_update: 19.369 [ms]
[OGL LOG][Proc: 0]p_rhs: call_update: 3.674 [ms]
[OGL LOG][Proc: 0]p: init_precond: 0.061 [ms]
[OGL LOG][StoppingCriterion.H:372] Creating stopping criterion with minIter 1381 frequency 13
[OGL LOG][Proc: 0]p: generate_solver: 0.004 [ms]
[OGL LOG][Proc: 0]p: solve: 3749.08 [ms]
[OGL LOG][Proc: 0]p: copy_x_back: 5.775 [ms]
[OGL LOG][lduLduBase.H:339] 
Statistics:
	Time per iteration: 1628 [mu s]
	Time per residual norm calculation: 297.000000 [mu s]
	Time per iteration and DOF: 0.060296 [ns]
	Retrieve results bandwidth 2.337000 [GByte/s]
[OGL LOG][Proc: 0]p: solve_multi_gpu: 3778.85 [ms]
nonehipGKOCG:  Solving for p, Initial residual = 0.90498, Final residual = 8.33608e-05, No Iterations 2302
[INFO] SolveP: 3825.22 [ms]
time step continuity errors : sum local = 1.03011e-08, global = 6.3687e-22, cumulative = 2.14694e-20
[INFO] ContinuityError: 29.089 [ms]
[INFO] CorrectBoundary: 0.719 [ms]
[INFO] PISOStep: 4262.42 [ms]
[INFO] MatrixAssemblyPI: 235.405 [ms]
[INFO] AdjustPhi: 14.364 [ms]
[INFO] ConstrainPressure: 0.004 [ms]
[INFO] MatrixAssemblyPII: 70.936 [ms]
[OGL LOG][Proc: 0]: global_index_init: 0.048 [ms]
[OGL LOG][Proc: 0]p_local_coeffs: call_update: 0 [ms]
[OGL LOG][Proc: 0]p_non_local_coeffs: call_update: 0 [ms]
[OGL LOG][Proc: 0]p: update_local_matrix_data: 37.684 [ms]
[OGL LOG][Proc: 0]p: update_non_local_matrix_data: 0.234 [ms]
[OGL LOG][Proc: 0]p_matrix: call_update: 15.029 [ms]
[OGL LOG][Proc: 0]p_rhs: call_update: 7.99 [ms]
[OGL LOG][Proc: 0]p: init_precond: 0.053 [ms]
[OGL LOG][StoppingCriterion.H:372] Creating stopping criterion with minIter 1381 frequency 13
[OGL LOG][Proc: 0]p: generate_solver: 0.004 [ms]
[OGL LOG][Proc: 0]p: solve: 3776.47 [ms]
[OGL LOG][Proc: 0]p: copy_x_back: 5.915 [ms]
[OGL LOG][lduLduBase.H:339] 
Statistics:
	Time per iteration: 1640 [mu s]
	Time per residual norm calculation: 293.000000 [mu s]
	Time per iteration and DOF: 0.060741 [ns]
	Retrieve results bandwidth 2.282000 [GByte/s]
[OGL LOG][Proc: 0]p: solve_multi_gpu: 3806.37 [ms]
nonehipGKOCG:  Solving for p, Initial residual = 0.844012, Final residual = 7.89289e-05, No Iterations 2302
[INFO] SolveP: 3852.59 [ms]
time step continuity errors : sum local = 9.69957e-09, global = 1.20086e-21, cumulative = 2.26703e-20
[INFO] ContinuityError: 28.798 [ms]
[INFO] CorrectBoundary: 0.755 [ms]
[INFO] PISOStep: 4285.67 [ms]
[INFO] TimeStep: 10557.4 [ms]
ExecutionTime = 178.44 s  ClockTime = 156 s

Time = 0.002656

Courant Number mean: 0.0462455 max: 0.492916
[INFO] MatrixAssemblyU: 212.854 [ms]
DILUPBiCGStab:  Solving for Ux, Initial residual = 0.0156966, Final residual = 0.00133881, No Iterations 5
DILUPBiCGStab:  Solving for Uy, Initial residual = 0.0574905, Final residual = 0.00377554, No Iterations 5
DILUPBiCGStab:  Solving for Uz, Initial residual = 0.481369, Final residual = 0.0164951, No Iterations 5
[INFO] MomentumPredictor: 1760.77 [ms]
[INFO] MatrixAssemblyPI: 242.337 [ms]
[INFO] AdjustPhi: 12.664 [ms]
[INFO] ConstrainPressure: 0.004 [ms]
[INFO] MatrixAssemblyPII: 71.143 [ms]
[OGL LOG][Proc: 0]: global_index_init: 0.344 [ms]
[OGL LOG][Proc: 0]p_local_coeffs: call_update: 0 [ms]
[OGL LOG][Proc: 0]p_non_local_coeffs: call_update: 0 [ms]
[OGL LOG][Proc: 0]p: update_local_matrix_data: 38.28 [ms]
[OGL LOG][Proc: 0]p: update_non_local_matrix_data: 0.238 [ms]
[OGL LOG][Proc: 0]p_matrix: call_update: 15.968 [ms]
[OGL LOG][Proc: 0]p_rhs: call_update: 4.214 [ms]
[OGL LOG][Proc: 0]p: init_precond: 0.056 [ms]
[OGL LOG][StoppingCriterion.H:372] Creating stopping criterion with minIter 1381 frequency 13
[OGL LOG][Proc: 0]p: generate_solver: 0.004 [ms]
[OGL LOG][Proc: 0]p: solve: 3718.01 [ms]
[OGL LOG][Proc: 0]p: copy_x_back: 6.132 [ms]
[OGL LOG][lduLduBase.H:339] 
Statistics:
	Time per iteration: 1615 [mu s]
	Time per residual norm calculation: 295.000000 [mu s]
	Time per iteration and DOF: 0.059815 [ns]
	Retrieve results bandwidth 2.201000 [GByte/s]
[OGL LOG][Proc: 0]p: solve_multi_gpu: 3745.61 [ms]
nonehipGKOCG:  Solving for p, Initial residual = 0.891499, Final residual = 8.31176e-05, No Iterations 2302
[INFO] SolveP: 3792.84 [ms]
time step continuity errors : sum local = 1.06793e-08, global = 3.08523e-23, cumulative = 2.27011e-20
[INFO] ContinuityError: 28.945 [ms]
[INFO] CorrectBoundary: 0.827 [ms]
[INFO] PISOStep: 4231.41 [ms]
[INFO] MatrixAssemblyPI: 235.336 [ms]
[INFO] AdjustPhi: 12.226 [ms]
[INFO] ConstrainPressure: 0.003 [ms]
[INFO] MatrixAssemblyPII: 71.041 [ms]
[OGL LOG][Proc: 0]: global_index_init: 1.134 [ms]
[OGL LOG][Proc: 0]p_local_coeffs: call_update: 0 [ms]
[OGL LOG][Proc: 0]p_non_local_coeffs: call_update: 0 [ms]
[OGL LOG][Proc: 0]p: update_local_matrix_data: 38.131 [ms]
[OGL LOG][Proc: 0]p: update_non_local_matrix_data: 0.157 [ms]
[OGL LOG][Proc: 0]p_matrix: call_update: 17.977 [ms]
[OGL LOG][Proc: 0]p_rhs: call_update: 2.727 [ms]
[OGL LOG][Proc: 0]p: init_precond: 0.072 [ms]
[OGL LOG][StoppingCriterion.H:372] Creating stopping criterion with minIter 1381 frequency 13
[OGL LOG][Proc: 0]p: generate_solver: 0.003 [ms]
[OGL LOG][Proc: 0]p: solve: 3793.46 [ms]
[OGL LOG][Proc: 0]p: copy_x_back: 5.787 [ms]
[OGL LOG][lduLduBase.H:339] 
Statistics:
	Time per iteration: 1647 [mu s]
	Time per residual norm calculation: 302.000000 [mu s]
	Time per iteration and DOF: 0.061000 [ns]
	Retrieve results bandwidth 2.332000 [GByte/s]
[OGL LOG][Proc: 0]p: solve_multi_gpu: 3821.02 [ms]
nonehipGKOCG:  Solving for p, Initial residual = 0.819122, Final residual = 7.81523e-05, No Iterations 2302
[INFO] SolveP: 3868.66 [ms]
time step continuity errors : sum local = 1.0125e-08, global = 3.33913e-22, cumulative = 2.3035e-20
[INFO] ContinuityError: 30.908 [ms]
[INFO] CorrectBoundary: 0.722 [ms]
[INFO] PISOStep: 4304.44 [ms]
[INFO] TimeStep: 10538.3 [ms]
ExecutionTime = 190.67 s  ClockTime = 167 s

Time = 0.002822

Courant Number mean: 0.0473494 max: 0.551302
[INFO] MatrixAssemblyU: 210.459 [ms]
DILUPBiCGStab:  Solving for Ux, Initial residual = 0.0151166, Final residual = 0.00123578, No Iterations 5
DILUPBiCGStab:  Solving for Uy, Initial residual = 0.0587951, Final residual = 0.00380449, No Iterations 5
DILUPBiCGStab:  Solving for Uz, Initial residual = 0.491889, Final residual = 0.0164249, No Iterations 5
[INFO] MomentumPredictor: 1767.58 [ms]
[INFO] MatrixAssemblyPI: 242.795 [ms]
[INFO] AdjustPhi: 12.038 [ms]
[INFO] ConstrainPressure: 0.004 [ms]
[INFO] MatrixAssemblyPII: 70.456 [ms]
[OGL LOG][Proc: 0]: global_index_init: 0.233 [ms]
[OGL LOG][Proc: 0]p_local_coeffs: call_update: 0 [ms]
[OGL LOG][Proc: 0]p_non_local_coeffs: call_update: 0 [ms]
[OGL LOG][Proc: 0]p: update_local_matrix_data: 37.66 [ms]
[OGL LOG][Proc: 0]p: update_non_local_matrix_data: 0.237 [ms]
[OGL LOG][Proc: 0]p_matrix: call_update: 26.91 [ms]
[OGL LOG][Proc: 0]p_rhs: call_update: 2.037 [ms]
[OGL LOG][Proc: 0]p: init_precond: 0.056 [ms]
[OGL LOG][StoppingCriterion.H:372] Creating stopping criterion with minIter 1381 frequency 13
[OGL LOG][Proc: 0]p: generate_solver: 0.004 [ms]
[OGL LOG][Proc: 0]p: solve: 3728.95 [ms]
[OGL LOG][Proc: 0]p: copy_x_back: 5.78 [ms]
[OGL LOG][lduLduBase.H:339] 
Statistics:
	Time per iteration: 1619 [mu s]
	Time per residual norm calculation: 295.000000 [mu s]
	Time per iteration and DOF: 0.059963 [ns]
	Retrieve results bandwidth 2.335000 [GByte/s]
[OGL LOG][Proc: 0]p: solve_multi_gpu: 3765.08 [ms]
nonehipGKOCG:  Solving for p, Initial residual = 0.906282, Final residual = 8.38509e-05, No Iterations 2302
[INFO] SolveP: 3811.34 [ms]
time step continuity errors : sum local = 1.08622e-08, global = 3.01734e-22, cumulative = 2.33368e-20
[INFO] ContinuityError: 29.673 [ms]
[INFO] CorrectBoundary: 1.679 [ms]
[INFO] PISOStep: 4250.15 [ms]
[INFO] MatrixAssemblyPI: 234.344 [ms]
[INFO] AdjustPhi: 13.625 [ms]
[INFO] ConstrainPressure: 0.003 [ms]
[INFO] MatrixAssemblyPII: 71.138 [ms]
[OGL LOG][Proc: 0]: global_index_init: 0.674 [ms]
[OGL LOG][Proc: 0]p_local_coeffs: call_update: 0 [ms]
[OGL LOG][Proc: 0]p_non_local_coeffs: call_update: 0 [ms]
[OGL LOG][Proc: 0]p: update_local_matrix_data: 38.59 [ms]
[OGL LOG][Proc: 0]p: update_non_local_matrix_data: 0.28 [ms]
[OGL LOG][Proc: 0]p_matrix: call_update: 16.222 [ms]
[OGL LOG][Proc: 0]p_rhs: call_update: 3.617 [ms]
[OGL LOG][Proc: 0]p: init_precond: 0.061 [ms]
[OGL LOG][StoppingCriterion.H:372] Creating stopping criterion with minIter 1381 frequency 13
[OGL LOG][Proc: 0]p: generate_solver: 0.004 [ms]
[OGL LOG][Proc: 0]p: solve: 3750.12 [ms]
[OGL LOG][Proc: 0]p: copy_x_back: 5.739 [ms]
[OGL LOG][lduLduBase.H:339] 
Statistics:
	Time per iteration: 1629 [mu s]
	Time per residual norm calculation: 295.000000 [mu s]
	Time per iteration and DOF: 0.060333 [ns]
	Retrieve results bandwidth 2.352000 [GByte/s]
[OGL LOG][Proc: 0]p: solve_multi_gpu: 3776.67 [ms]
nonehipGKOCG:  Solving for p, Initial residual = 0.842332, Final residual = 7.91832e-05, No Iterations 2302
[INFO] SolveP: 3824.65 [ms]
time step continuity errors : sum local = 1.02131e-08, global = 4.57854e-22, cumulative = 2.37946e-20
[INFO] ContinuityError: 28.384 [ms]
[INFO] CorrectBoundary: 0.684 [ms]
[INFO] PISOStep: 4254.99 [ms]
[INFO] TimeStep: 10511.8 [ms]
ExecutionTime = 202.89 s  ClockTime = 177 s

Time = 0.002988

Courant Number mean: 0.0483286 max: 0.496231
[INFO] MatrixAssemblyU: 211.536 [ms]
DILUPBiCGStab:  Solving for Ux, Initial residual = 0.0152253, Final residual = 0.00124283, No Iterations 5
DILUPBiCGStab:  Solving for Uy, Initial residual = 0.0556641, Final residual = 0.00343579, No Iterations 5
DILUPBiCGStab:  Solving for Uz, Initial residual = 0.48797, Final residual = 0.0161998, No Iterations 5
[INFO] MomentumPredictor: 1762.52 [ms]
[INFO] MatrixAssemblyPI: 242.348 [ms]
[INFO] AdjustPhi: 12.455 [ms]
[INFO] ConstrainPressure: 0.005 [ms]
[INFO] MatrixAssemblyPII: 71.612 [ms]
[OGL LOG][Proc: 0]: global_index_init: 0.657 [ms]
[OGL LOG][Proc: 0]p_local_coeffs: call_update: 0 [ms]
[OGL LOG][Proc: 0]p_non_local_coeffs: call_update: 0 [ms]
[OGL LOG][Proc: 0]p: update_local_matrix_data: 37.752 [ms]
[OGL LOG][Proc: 0]p: update_non_local_matrix_data: 0.188 [ms]
[OGL LOG][Proc: 0]p_matrix: call_update: 18.863 [ms]
[OGL LOG][Proc: 0]p_rhs: call_update: 5.448 [ms]
[OGL LOG][Proc: 0]p: init_precond: 0.063 [ms]
[OGL LOG][StoppingCriterion.H:372] Creating stopping criterion with minIter 1381 frequency 13
[OGL LOG][Proc: 0]p: generate_solver: 0.003 [ms]
[OGL LOG][Proc: 0]p: solve: 3762.23 [ms]
[OGL LOG][Proc: 0]p: copy_x_back: 5.942 [ms]
[OGL LOG][lduLduBase.H:339] 
Statistics:
	Time per iteration: 1634 [mu s]
	Time per residual norm calculation: 304.000000 [mu s]
	Time per iteration and DOF: 0.060519 [ns]
	Retrieve results bandwidth 2.271000 [GByte/s]
[OGL LOG][Proc: 0]p: solve_multi_gpu: 3793.47 [ms]
nonehipGKOCG:  Solving for p, Initial residual = 0.895976, Final residual = 8.35677e-05, No Iterations 2302
[INFO] SolveP: 3840.53 [ms]
time step continuity errors : sum local = 1.12482e-08, global = -1.02705e-22, cumulative = 2.36919e-20
[INFO] ContinuityError: 28.725 [ms]
[INFO] CorrectBoundary: 1.1 [ms]
[INFO] PISOStep: 4279.1 [ms]
[INFO] MatrixAssemblyPI: 234.489 [ms]
[INFO] AdjustPhi: 13.889 [ms]
[INFO] ConstrainPressure: 0.004 [ms]
[INFO] MatrixAssemblyPII: 70.949 [ms]
[OGL LOG][Proc: 0]: global_index_init: 0.042 [ms]
[OGL LOG][Proc: 0]p_local_coeffs: call_update: 0 [ms]
[OGL LOG][Proc: 0]p_non_local_coeffs: call_update: 0 [ms]
[OGL LOG][Proc: 0]p: update_local_matrix_data: 37.995 [ms]
[OGL LOG][Proc: 0]p: update_non_local_matrix_data: 0.159 [ms]
[OGL LOG][Proc: 0]p_matrix: call_update: 15.549 [ms]
[OGL LOG][Proc: 0]p_rhs: call_update: 7.344 [ms]
[OGL LOG][Proc: 0]p: init_precond: 0.057 [ms]
[OGL LOG][StoppingCriterion.H:372] Creating stopping criterion with minIter 1381 frequency 13
[OGL LOG][Proc: 0]p: generate_solver: 0.004 [ms]
[OGL LOG][Proc: 0]p: solve: 3745.61 [ms]
[OGL LOG][Proc: 0]p: copy_x_back: 5.947 [ms]
[OGL LOG][lduLduBase.H:339] 
Statistics:
	Time per iteration: 1627 [mu s]
	Time per residual norm calculation: 294.000000 [mu s]
	Time per iteration and DOF: 0.060259 [ns]
	Retrieve results bandwidth 2.270000 [GByte/s]
[OGL LOG][Proc: 0]p: solve_multi_gpu: 3775.41 [ms]
nonehipGKOCG:  Solving for p, Initial residual = 0.822269, Final residual = 7.88272e-05, No Iterations 2302
[INFO] SolveP: 3821.89 [ms]
time step continuity errors : sum local = 1.06869e-08, global = 7.63592e-22, cumulative = 2.44555e-20
[INFO] ContinuityError: 29.322 [ms]
[INFO] CorrectBoundary: 0.661 [ms]
[INFO] PISOStep: 4253.74 [ms]
[INFO] TimeStep: 10535.5 [ms]
ExecutionTime = 215.09 s  ClockTime = 188 s

Time = 0.003154

Courant Number mean: 0.0493356 max: 0.562807
[INFO] MatrixAssemblyU: 212.524 [ms]
DILUPBiCGStab:  Solving for Ux, Initial residual = 0.014819, Final residual = 0.0011505, No Iterations 5
DILUPBiCGStab:  Solving for Uy, Initial residual = 0.0572276, Final residual = 0.00349284, No Iterations 5
DILUPBiCGStab:  Solving for Uz, Initial residual = 0.498972, Final residual = 0.0162161, No Iterations 5
[INFO] MomentumPredictor: 1776.68 [ms]
[INFO] MatrixAssemblyPI: 241.514 [ms]
[INFO] AdjustPhi: 12.862 [ms]
[INFO] ConstrainPressure: 0.005 [ms]
[INFO] MatrixAssemblyPII: 70.871 [ms]
[OGL LOG][Proc: 0]: global_index_init: 0.07 [ms]
[OGL LOG][Proc: 0]p_local_coeffs: call_update: 0 [ms]
[OGL LOG][Proc: 0]p_non_local_coeffs: call_update: 0 [ms]
[OGL LOG][Proc: 0]p: update_local_matrix_data: 37.936 [ms]
[OGL LOG][Proc: 0]p: update_non_local_matrix_data: 0.219 [ms]
[OGL LOG][Proc: 0]p_matrix: call_update: 17.936 [ms]
[OGL LOG][Proc: 0]p_rhs: call_update: 6.017 [ms]
[OGL LOG][Proc: 0]p: init_precond: 0.065 [ms]
[OGL LOG][StoppingCriterion.H:372] Creating stopping criterion with minIter 1381 frequency 13
[OGL LOG][Proc: 0]p: generate_solver: 0.004 [ms]
[OGL LOG][Proc: 0]p: solve: 3707.56 [ms]
[OGL LOG][Proc: 0]p: copy_x_back: 5.503 [ms]
[OGL LOG][lduLduBase.H:339] 
Statistics:
	Time per iteration: 1610 [mu s]
	Time per residual norm calculation: 301.000000 [mu s]
	Time per iteration and DOF: 0.059630 [ns]
	Retrieve results bandwidth 2.453000 [GByte/s]
[OGL LOG][Proc: 0]p: solve_multi_gpu: 3738.19 [ms]
nonehipGKOCG:  Solving for p, Initial residual = 0.908902, Final residual = 8.54818e-05, No Iterations 2302
[INFO] SolveP: 3784.75 [ms]
time step continuity errors : sum local = 1.16612e-08, global = 7.45046e-22, cumulative = 2.52006e-20
[INFO] ContinuityError: 28.701 [ms]
[INFO] CorrectBoundary: 0.816 [ms]
[INFO] PISOStep: 4224.56 [ms]
[INFO] MatrixAssemblyPI: 234.919 [ms]
[INFO] AdjustPhi: 13.949 [ms]
[INFO] ConstrainPressure: 0.004 [ms]
[INFO] MatrixAssemblyPII: 70.712 [ms]
[OGL LOG][Proc: 0]: global_index_init: 0.119 [ms]
[OGL LOG][Proc: 0]p_local_coeffs: call_update: 0 [ms]
[OGL LOG][Proc: 0]p_non_local_coeffs: call_update: 0 [ms]
[OGL LOG][Proc: 0]p: update_local_matrix_data: 37.943 [ms]
[OGL LOG][Proc: 0]p: update_non_local_matrix_data: 0.179 [ms]
[OGL LOG][Proc: 0]p_matrix: call_update: 17.414 [ms]
[OGL LOG][Proc: 0]p_rhs: call_update: 6.692 [ms]
[OGL LOG][Proc: 0]p: init_precond: 0.054 [ms]
[OGL LOG][StoppingCriterion.H:372] Creating stopping criterion with minIter 1381 frequency 13
[OGL LOG][Proc: 0]p: generate_solver: 0.004 [ms]
[OGL LOG][Proc: 0]p: solve: 3718.94 [ms]
[OGL LOG][Proc: 0]p: copy_x_back: 6.091 [ms]
[OGL LOG][lduLduBase.H:339] 
Statistics:
	Time per iteration: 1615 [mu s]
	Time per residual norm calculation: 303.000000 [mu s]
	Time per iteration and DOF: 0.059815 [ns]
	Retrieve results bandwidth 2.216000 [GByte/s]
[OGL LOG][Proc: 0]p: solve_multi_gpu: 3750.23 [ms]
nonehipGKOCG:  Solving for p, Initial residual = 0.842009, Final residual = 8.03618e-05, No Iterations 2302
[INFO] SolveP: 3796.64 [ms]
time step continuity errors : sum local = 1.09269e-08, global = 1.29601e-21, cumulative = 2.64966e-20
[INFO] ContinuityError: 30.703 [ms]
[INFO] CorrectBoundary: 0.87 [ms]
[INFO] PISOStep: 4230.13 [ms]
[INFO] TimeStep: 10473 [ms]
ExecutionTime = 227.23 s  ClockTime = 198 s

Time = 0.00332

Courant Number mean: 0.0502223 max: 0.499819
[INFO] MatrixAssemblyU: 212.205 [ms]
DILUPBiCGStab:  Solving for Ux, Initial residual = 0.0150258, Final residual = 0.00116339, No Iterations 5
DILUPBiCGStab:  Solving for Uy, Initial residual = 0.0548732, Final residual = 0.00318332, No Iterations 5
DILUPBiCGStab:  Solving for Uz, Initial residual = 0.496975, Final residual = 0.016068, No Iterations 5
[INFO] MomentumPredictor: 1761.06 [ms]
[INFO] MatrixAssemblyPI: 241.936 [ms]
[INFO] AdjustPhi: 12.524 [ms]
[INFO] ConstrainPressure: 0.004 [ms]
[INFO] MatrixAssemblyPII: 71.286 [ms]
[OGL LOG][Proc: 0]: global_index_init: 0.038 [ms]
[OGL LOG][Proc: 0]p_local_coeffs: call_update: 0 [ms]
[OGL LOG][Proc: 0]p_non_local_coeffs: call_update: 0 [ms]
[OGL LOG][Proc: 0]p: update_local_matrix_data: 37.896 [ms]
[OGL LOG][Proc: 0]p: update_non_local_matrix_data: 0.168 [ms]
[OGL LOG][Proc: 0]p_matrix: call_update: 16.623 [ms]
[OGL LOG][Proc: 0]p_rhs: call_update: 6.08 [ms]
[OGL LOG][Proc: 0]p: init_precond: 0.057 [ms]
[OGL LOG][StoppingCriterion.H:372] Creating stopping criterion with minIter 1381 frequency 13
[OGL LOG][Proc: 0]p: generate_solver: 0.005 [ms]
[OGL LOG][Proc: 0]p: solve: 3699.52 [ms]
[OGL LOG][Proc: 0]p: copy_x_back: 6.035 [ms]
[OGL LOG][lduLduBase.H:339] 
Statistics:
	Time per iteration: 1607 [mu s]
	Time per residual norm calculation: 299.000000 [mu s]
	Time per iteration and DOF: 0.059519 [ns]
	Retrieve results bandwidth 2.236000 [GByte/s]
[OGL LOG][Proc: 0]p: solve_multi_gpu: 3729.22 [ms]
nonehipGKOCG:  Solving for p, Initial residual = 0.901475, Final residual = 8.59692e-05, No Iterations 2302
[INFO] SolveP: 3775.64 [ms]
time step continuity errors : sum local = 1.21767e-08, global = 6.38402e-22, cumulative = 2.7135e-20
[INFO] ContinuityError: 28.435 [ms]
[INFO] CorrectBoundary: 0.639 [ms]
[INFO] PISOStep: 4212.86 [ms]
[INFO] MatrixAssemblyPI: 235.813 [ms]
[INFO] AdjustPhi: 12.122 [ms]
[INFO] ConstrainPressure: 0.004 [ms]
[INFO] MatrixAssemblyPII: 71.016 [ms]
[OGL LOG][Proc: 0]: global_index_init: 0.038 [ms]
[OGL LOG][Proc: 0]p_local_coeffs: call_update: 0 [ms]
[OGL LOG][Proc: 0]p_non_local_coeffs: call_update: 0 [ms]
[OGL LOG][Proc: 0]p: update_local_matrix_data: 37.804 [ms]
[OGL LOG][Proc: 0]p: update_non_local_matrix_data: 0.175 [ms]
[OGL LOG][Proc: 0]p_matrix: call_update: 22.534 [ms]
[OGL LOG][Proc: 0]p_rhs: call_update: 2.636 [ms]
[OGL LOG][Proc: 0]p: init_precond: 0.059 [ms]
[OGL LOG][StoppingCriterion.H:372] Creating stopping criterion with minIter 1381 frequency 13
[OGL LOG][Proc: 0]p: generate_solver: 0.004 [ms]
[OGL LOG][Proc: 0]p: solve: 3757.58 [ms]
[OGL LOG][Proc: 0]p: copy_x_back: 6.331 [ms]
[OGL LOG][lduLduBase.H:339] 
Statistics:
	Time per iteration: 1632 [mu s]
	Time per residual norm calculation: 295.000000 [mu s]
	Time per iteration and DOF: 0.060444 [ns]
	Retrieve results bandwidth 2.132000 [GByte/s]
[OGL LOG][Proc: 0]p: solve_multi_gpu: 3790.1 [ms]
nonehipGKOCG:  Solving for p, Initial residual = 0.826534, Final residual = 8.05782e-05, No Iterations 2302
[INFO] SolveP: 3836.42 [ms]
time step continuity errors : sum local = 1.14853e-08, global = 1.35699e-21, cumulative = 2.8492e-20
[INFO] ContinuityError: 27.864 [ms]
[INFO] CorrectBoundary: 0.687 [ms]
[INFO] PISOStep: 4266.38 [ms]
[INFO] TimeStep: 10486 [ms]
ExecutionTime = 239.37 s  ClockTime = 209 s

End

Finalising parallel run
