/*---------------------------------------------------------------------------*\
| =========                 |                                                 |
| \\      /  F ield         | OpenFOAM: The Open Source CFD Toolbox           |
|  \\    /   O peration     | Version:  2306                                  |
|   \\  /    A nd           | Website:  www.openfoam.com                      |
|    \\/     M anipulation  |                                                 |
\*---------------------------------------------------------------------------*/
Build  : c423ebec-20231012 OPENFOAM=2306 version=v2306
Arch   : "LSB;label=32;scalar=64"
Exec   : simpleFoam -parallel -case /hkfs/work/workspace/scratch/eq4036-windsorbody_setup/workspace/65545150424b6dbbe8629c1391200698/case
Date   : Feb 16 2024
Time   : 20:32:42
Host   : hkn0604.localdomain
PID    : 3499147
I/O    : uncollated
Case   : /hkfs/work/workspace/scratch/eq4036-windsorbody_setup/workspace/65545150424b6dbbe8629c1391200698/case
nProcs : 12
Hosts  :
(
    (hkn0604.localdomain 6)
    (hkn0605.localdomain 6)
)
Pstream initialized with:
    floatTransfer      : false
    nProcsSimpleSum    : 0
    nonBlockingExchange: 0 (tuning: 0)
    exchange algorithm : -1
    commsType          : nonBlocking
    polling iterations : 0
trapFpe: Floating point exception trapping enabled (FOAM_SIGFPE).
fileModificationChecking : Monitoring run-time modified files using timeStampMaster (fileModificationSkew 5, maxFileModificationPolls 20)
allowSystemOperations : Allowing user-supplied system call operations

// * * * * * * * * * * * * * * * * * * * * * * * * * * * * * * * * * * * * * //
Create time

--> FOAM Warning : 
    From void* Foam::dlLibraryTable::openLibrary(const Foam::fileName&, bool)
    in file db/dynamicLibrary/dlLibraryTable/dlLibraryTable.C at line 188
    Could not load "libpetscFoam.so"
libpetscFoam.so: cannot open shared object file: No such file or directory
Create mesh for time = 0


SIMPLE: convergence criteria
    field p	 tolerance 1e-08
    field U	 tolerance 1e-08
    field k	 tolerance 1e-08
    field omega	 tolerance 1e-08
    field nuTilda	 tolerance 1e-08

Reading field p

Reading field U

Reading/calculating face flux field phi

Selecting incompressible transport model Newtonian
Selecting turbulence model type RAS
Selecting RAS turbulence model SpalartAllmaras
Selecting patchDistMethod meshWave
ft2 term: inactive
RAS
{
    RASModel        SpalartAllmaras;
    turbulence      on;
    printCoeffs     on;
    sigmaNut        0.66666;
    kappa           0.41;
    Cb1             0.1355;
    Cb2             0.622;
    Cw2             0.3;
    Cw3             2;
    Cv1             7.1;
    Cs              0.3;
    ck              0.07000000000000001;
    ft2             false;
    Ct3             1.2;
    Ct4             0.5;
}

No MRF models present

Creating finite volume options from "system/fvOptions"

Selecting finite volume options type velocityDampingConstraint
    Source: velocityDamping
    - selecting all cells
    - selected 25228544 cell(s) with volume 111.3033220641657

Starting time loop

--> FOAM Warning : 
    From bool Foam::functionObjectList::read()
    in file db/functionObjects/functionObjectList/functionObjectList.C at line 1035
    Reading "system/controlDict" at line 2 to 41
    Entry 'lref' is not a dictionary
--> FOAM Warning : 
    From bool Foam::functionObjectList::read()
    in file db/functionObjects/functionObjectList/functionObjectList.C at line 1035
    Reading "system/controlDict" at line 2 to 41
    Entry 'Aref' is not a dictionary
--> FOAM Warning : 
    From bool Foam::functionObjectList::read()
    in file db/functionObjects/functionObjectList/functionObjectList.C at line 1035
    Reading "system/controlDict" at line 2 to 41
    Entry 'yawAngle' is not a dictionary
--> FOAM Warning : 
    From bool Foam::functionObjectList::read()
    in file db/functionObjects/functionObjectList/functionObjectList.C at line 1035
    Reading "system/controlDict" at line 2 to 41
    Entry 'lDomain' is not a dictionary
--> FOAM Warning : 
    From bool Foam::functionObjectList::read()
    in file db/functionObjects/functionObjectList/functionObjectList.C at line 1035
    Reading "system/controlDict" at line 2 to 41
    Entry 'bDomain' is not a dictionary
--> FOAM Warning : 
    From bool Foam::functionObjectList::read()
    in file db/functionObjects/functionObjectList/functionObjectList.C at line 1035
    Reading "system/controlDict" at line 2 to 41
    Entry 'hDomain' is not a dictionary
--> FOAM Warning : 
    From bool Foam::functionObjectList::read()
    in file db/functionObjects/functionObjectList/functionObjectList.C at line 1035
    Reading "system/controlDict" at line 2 to 41
    Entry 'xCenter' is not a dictionary
--> FOAM Warning : 
    From bool Foam::functionObjectList::read()
    in file db/functionObjects/functionObjectList/functionObjectList.C at line 1035
    Reading "system/controlDict" at line 2 to 41
    Entry 'yCenter' is not a dictionary
--> FOAM Warning : 
    From bool Foam::functionObjectList::read()
    in file db/functionObjects/functionObjectList/functionObjectList.C at line 1035
    Reading "system/controlDict" at line 2 to 41
    Entry 'zCenter' is not a dictionary
--> FOAM Warning : 
    From bool Foam::functionObjectList::read()
    in file db/functionObjects/functionObjectList/functionObjectList.C at line 1035
    Reading "system/controlDict" at line 2 to 41
    Entry 'inletPatch' is not a dictionary
--> FOAM Warning : 
    From bool Foam::functionObjectList::read()
    in file db/functionObjects/functionObjectList/functionObjectList.C at line 1035
    Reading "system/controlDict" at line 2 to 41
    Entry 'outletPatch' is not a dictionary
--> FOAM Warning : 
    From bool Foam::functionObjectList::read()
    in file db/functionObjects/functionObjectList/functionObjectList.C at line 1035
    Reading "system/controlDict" at line 2 to 41
    Entry 'wallPatches' is not a dictionary
--> FOAM Warning : 
    From bool Foam::functionObjectList::read()
    in file db/functionObjects/functionObjectList/functionObjectList.C at line 1035
    Reading "system/controlDict" at line 2 to 41
    Entry 'forcesWallPatches' is not a dictionary
--> FOAM Warning : 
    From bool Foam::functionObjectList::read()
    in file db/functionObjects/functionObjectList/functionObjectList.C at line 1035
    Reading "system/controlDict" at line 2 to 41
    Entry 'symmPatches' is not a dictionary
--> FOAM Warning : 
    From bool Foam::functionObjectList::read()
    in file db/functionObjects/functionObjectList/functionObjectList.C at line 1035
    Reading "system/controlDict" at line 2 to 41
    Entry 'Uinf' is not a dictionary
--> FOAM Warning : 
    From bool Foam::functionObjectList::read()
    in file db/functionObjects/functionObjectList/functionObjectList.C at line 1035
    Reading "system/controlDict" at line 2 to 41
    Entry 'UinfMag' is not a dictionary
--> FOAM Warning : 
    From bool Foam::functionObjectList::read()
    in file db/functionObjects/functionObjectList/functionObjectList.C at line 1035
    Reading "system/controlDict" at line 2 to 41
    Entry 'nu' is not a dictionary
--> FOAM Warning : 
    From bool Foam::functionObjectList::read()
    in file db/functionObjects/functionObjectList/functionObjectList.C at line 1035
    Reading "system/controlDict" at line 2 to 41
    Entry 'pref' is not a dictionary
--> FOAM Warning : 
    From bool Foam::functionObjectList::read()
    in file db/functionObjects/functionObjectList/functionObjectList.C at line 1035
    Reading "system/controlDict" at line 2 to 41
    Entry 'viscRatio' is not a dictionary
--> FOAM Warning : 
    From bool Foam::functionObjectList::read()
    in file db/functionObjects/functionObjectList/functionObjectList.C at line 1035
    Reading "system/controlDict" at line 2 to 41
    Entry 'Tu' is not a dictionary
--> FOAM Warning : 
    From bool Foam::functionObjectList::read()
    in file db/functionObjects/functionObjectList/functionObjectList.C at line 1035
    Reading "system/controlDict" at line 2 to 41
    Entry 'LESturbModel' is not a dictionary
--> FOAM Warning : 
    From bool Foam::functionObjectList::read()
    in file db/functionObjects/functionObjectList/functionObjectList.C at line 1035
    Reading "system/controlDict" at line 2 to 41
    Entry 'RASturbModel' is not a dictionary
--> FOAM Warning : 
    From bool Foam::functionObjectList::read()
    in file db/functionObjects/functionObjectList/functionObjectList.C at line 1035
    Reading "system/controlDict" at line 2 to 41
    Entry 'deltaTurb' is not a dictionary
--> FOAM Warning : 
    From bool Foam::functionObjectList::read()
    in file db/functionObjects/functionObjectList/functionObjectList.C at line 1035
    Reading "system/controlDict" at line 2 to 41
    Entry 'dt' is not a dictionary
--> FOAM Warning : 
    From bool Foam::functionObjectList::read()
    in file db/functionObjects/functionObjectList/functionObjectList.C at line 1035
    Reading "system/controlDict" at line 2 to 41
    Entry 'tAvg' is not a dictionary
--> FOAM Warning : 
    From bool Foam::functionObjectList::read()
    in file db/functionObjects/functionObjectList/functionObjectList.C at line 1035
    Reading "system/controlDict" at line 2 to 41
    Entry 'tEnd' is not a dictionary
--> FOAM Warning : 
    From bool Foam::functionObjectList::read()
    in file db/functionObjects/functionObjectList/functionObjectList.C at line 1035
    Reading "system/controlDict" at line 2 to 41
    Entry 'writeInterval_' is not a dictionary
--> FOAM Warning : 
    From bool Foam::functionObjectList::read()
    in file db/functionObjects/functionObjectList/functionObjectList.C at line 1035
    Reading "system/controlDict" at line 2 to 41
    Entry 'nCores' is not a dictionary
--> FOAM Warning : 
    From bool Foam::functionObjectList::read()
    in file db/functionObjects/functionObjectList/functionObjectList.C at line 1035
    Reading "system/controlDict" at line 2 to 41
    Entry 'interpScheme' is not a dictionary
--> FOAM Warning : 
    From bool Foam::functionObjectList::read()
    in file db/functionObjects/functionObjectList/functionObjectList.C at line 1035
    Reading "system/controlDict" at line 2 to 41
    Entry 'probeField' is not a dictionary
wallShearStress wallShearStress:
    processing wall patches: 
        Windsor_Body
        CFDWT_Floor
        Windsor_Pins
        Windsor_Base
        Windsor_Body_2
        CFDWT_Floor_2
        Windsor_Pins_2
        Windsor_Base_2
        Windsor_Body_3
        CFDWT_Floor_3
        Windsor_Pins_3
        Windsor_Base_3
        Windsor_Body_4
        CFDWT_Floor_4
        Windsor_Pins_4
        Windsor_Base_4

pressure calc_cp:
    Operating mode: staticCoeff
    Not including hydrostatic effects

forceCoeffs forceCoeffsAll:
    rho: rhoInf
    Freestream density (rhoInf) set to 1
    Not including porosity effects
    magUInf: 40
    lRef   : 0.6375
    Aref   : 0.1124
    rhoInf : 1
    Selecting all coefficients
    - Drag force: Cd
    - Drag force front: Cd(f)
    - Drag force rear: Cd(r)
    - Lift force: Cl
    - Lift force front: Cl(f)
    - Lift force rear: Cl(r)
    - Pitch moment: CmPitch
    - Roll moment: CmRoll
    - Yaw moment: CmYaw
    - Side force: Cs
    - Side force front: Cs(f)
    - Side force rear: Cs(r)


forceCoeffs dragCoeffBase:
    rho: rhoInf
    Freestream density (rhoInf) set to 1
    Not including porosity effects
    magUInf: 40
    lRef   : 0.6375
    Aref   : 0.1124
    rhoInf : 1
    Selecting coefficients:
    - Drag force: Cd


Time = 1

velocityDampingConstraint velocityDamping damped 0 (0%) of cells, with max limit 300
smoothSolver:  Solving for Ux, Initial residual = 0.999999999999471, Final residual = 0.08582411842362607, No Iterations 3
smoothSolver:  Solving for Uy, Initial residual = 1, Final residual = 0.06574210327433022, No Iterations 6
smoothSolver:  Solving for Uz, Initial residual = 1, Final residual = 0.01751034401662928, No Iterations 2
[OGL LOG][lduLduBase.H:119] Initialising OGL
	OGL commit:  e75313f+
	Branch: dev 
	Build type: Debug
	Ginkgo version: 1.8.0 ( develop)
	Ginkgo commit: sparse-communicator
	MPI is GPU aware: 1
	Forces host buffer based communication: 0
	CPU ranks per GPU: 1
	Matrix format: Coo
	End OGL_INFO
[OGL LOG][Proc: 0]: global_index_init: 5.194 [ms]
[OGL LOG][Proc: 0]p_local_cols: call_init: 0.65 [ms]
[OGL LOG][Proc: 0]p_local_rows: call_init: 0.6919999999999999 [ms]
[OGL LOG][Proc: 0]p_local_ldu_map: call_init: 0.382 [ms]
[OGL LOG][Proc: 0]p_local_coeffs: call_init: 3.896 [ms]
[OGL LOG][Proc: 0]p_non_local_cols: call_init: 0.499 [ms]
[OGL LOG][Proc: 0]p_non_local_rows: call_init: 0.261 [ms]
[OGL LOG][Proc: 0]p_non_local_ldu_map: call_init: 0.146 [ms]
[OGL LOG][Proc: 0]p_non_local_coeffs: call_init: 0.141 [ms]
[OGL LOG][Proc: 0]p: init_local_sparsity_pattern: 83413.96799999999 [ms]
[OGL LOG][Proc: 0]p: init_non_local_sparsity_pattern: 64.29300000000001 [ms]
[OGL LOG][Proc: 0]p: update_local_matrix_data: 107.028 [ms]
[OGL LOG][Proc: 0]p: update_non_local_matrix_data: 0.648 [ms]
[OGL LOG][Proc: 0]device_partition: call_init: 0.208 [ms]
[OGL LOG][Proc: 0]p_matrix: call_init: 190.37 [ms]
[OGL LOG][Proc: 0]p_rhs: call_init: 6.973 [ms]
[OGL LOG][Proc: 0]p_solution: call_init: 3.858 [ms]
[OGL LOG][Preconditioner.H:121] Generate preconditioner BJ MaxBlockSize 1
[OGL LOG][Proc: 0]p: init_precond: 11.867 [ms]
[OGL LOG][StoppingCriterion.H:239] Creating stopping criterion with minIter 0 frequency 1
[OGL LOG][Proc: 0]p: generate_solver: 0.29 [ms]
[OGL LOG][Proc: 0]p: solve: 5210.363 [ms]
[OGL LOG][Proc: 0]p: copy_x_back: 5.724 [ms]
[OGL LOG][lduLduBase.H:330] 
Statistics:
	Time per iteration: 4352 [mu s]
	Time per residual norm calculation: 3372.000000 [mu s]
	Time per iteration and DOF: 0.172503 [ns]
	Retrieve results bandwidth 2.946000 [GByte/s]
[OGL LOG][Proc: 0]p: solve_multi_gpu: 5535.03 [ms]
BJcudaGKOCG:  Solving for p, Initial residual = 1.000000000000791, Final residual = 0.009844378458277618, No Iterations 1197
time step continuity errors : sum local = 0.003577536976004452, global = 7.323581076848124e-05, cumulative = 7.323581076848124e-05
smoothSolver:  Solving for nuTilda, Initial residual = 0.9999999997574169, Final residual = 0.05293067554030487, No Iterations 3
ExecutionTime = 119.54 s  ClockTime = 121 s

--> FOAM Warning : 
    From virtual bool Foam::functionObjects::fieldSelection::checkSelection()
    in file functionObjects/fieldSelections/fieldSelection/fieldSelection.C at line 166
    Field k not found
--> FOAM Warning : 
    From virtual bool Foam::functionObjects::fieldSelection::checkSelection()
    in file functionObjects/fieldSelections/fieldSelection/fieldSelection.C at line 166
    Field gammaInt not found
--> FOAM Warning : 
    From virtual bool Foam::functionObjects::fieldSelection::checkSelection()
    in file functionObjects/fieldSelections/fieldSelection/fieldSelection.C at line 166
    Field omega not found
--> FOAM Warning : 
    From virtual bool Foam::functionObjects::fieldSelection::checkSelection()
    in file functionObjects/fieldSelections/fieldSelection/fieldSelection.C at line 166
    Field ReThetat not found
--> FOAM Warning : 
    From virtual bool Foam::functionObjects::fieldSelection::checkSelection()
    in file functionObjects/fieldSelections/fieldSelection/fieldSelection.C at line 166
    Field epsilon not found
--> FOAM Warning : 
    From virtual bool Foam::functionObjects::solverFieldSelection::updateSelection()
    in file functionObjects/fieldSelections/solverFieldSelection/solverFieldSelection.C at line 85
    Valid solver fields are: 3(U nuTilda p)Time = 2

velocityDampingConstraint velocityDamping damped 0 (0%) of cells, with max limit 300
smoothSolver:  Solving for Ux, Initial residual = 0.4348846807144503, Final residual = 0.02816495959964377, No Iterations 5
smoothSolver:  Solving for Uy, Initial residual = 0.5804776787190019, Final residual = 0.03774977885061669, No Iterations 5
smoothSolver:  Solving for Uz, Initial residual = 0.5439827575216287, Final residual = 0.0332271083801896, No Iterations 5
[OGL LOG][Proc: 0]: global_index_init: 0.394 [ms]
[OGL LOG][Proc: 0]p_local_coeffs: call_update: 0.001 [ms]
[OGL LOG][Proc: 0]p_non_local_coeffs: call_update: 0 [ms]
[OGL LOG][Proc: 0]p: update_local_matrix_data: 81.33199999999999 [ms]
[OGL LOG][Proc: 0]p: update_non_local_matrix_data: 0.585 [ms]
[OGL LOG][Proc: 0]p_matrix: call_update: 3.297 [ms]
[OGL LOG][Proc: 0]p_rhs: call_update: 2.119 [ms]
[OGL LOG][Preconditioner.H:121] Generate preconditioner BJ MaxBlockSize 1
[OGL LOG][Proc: 0]p: init_precond: 1.835 [ms]
[OGL LOG][StoppingCriterion.H:239] Creating stopping criterion with minIter 718 frequency 21
[OGL LOG][Proc: 0]p: generate_solver: 0.017 [ms]
[OGL LOG][Proc: 0]p: solve: 2841.893 [ms]
[OGL LOG][Proc: 0]p: copy_x_back: 5.856 [ms]
[OGL LOG][lduLduBase.H:330] 
Statistics:
	Time per iteration: 3072 [mu s]
	Time per residual norm calculation: 1433.000000 [mu s]
	Time per iteration and DOF: 0.121767 [ns]
	Retrieve results bandwidth 2.880000 [GByte/s]
[OGL LOG][Proc: 0]p: solve_multi_gpu: 2862.017 [ms]
BJcudaGKOCG:  Solving for p, Initial residual = 0.4315726800192351, Final residual = 0.003570489212875488, No Iterations 925
time step continuity errors : sum local = 0.07796250102711198, global = 0.004453571929577154, cumulative = 0.004526807740345635
smoothSolver:  Solving for nuTilda, Initial residual = 0.2989297954590398, Final residual = 0.02017116564325267, No Iterations 2
ExecutionTime = 131.84 s  ClockTime = 133 s

Time = 3

velocityDampingConstraint velocityDamping damped 18415 (0.07000000000000001%) of cells, with max limit 300
smoothSolver:  Solving for Ux, Initial residual = 0.2905438279256693, Final residual = 0.01830396059913394, No Iterations 2
smoothSolver:  Solving for Uy, Initial residual = 0.2817063152798809, Final residual = 0.02601195608167521, No Iterations 4
smoothSolver:  Solving for Uz, Initial residual = 0.2533321193634286, Final residual = 0.02206951345419479, No Iterations 4
[OGL LOG][Proc: 0]: global_index_init: 0.577 [ms]
[OGL LOG][Proc: 0]p_local_coeffs: call_update: 0 [ms]
[OGL LOG][Proc: 0]p_non_local_coeffs: call_update: 0 [ms]
[OGL LOG][Proc: 0]p: update_local_matrix_data: 81.319 [ms]
[OGL LOG][Proc: 0]p: update_non_local_matrix_data: 0.6919999999999999 [ms]
[OGL LOG][Proc: 0]p_matrix: call_update: 3.478 [ms]
[OGL LOG][Proc: 0]p_rhs: call_update: 2.157 [ms]
[OGL LOG][Preconditioner.H:121] Generate preconditioner BJ MaxBlockSize 1
[OGL LOG][Proc: 0]p: init_precond: 1.851 [ms]
[OGL LOG][StoppingCriterion.H:239] Creating stopping criterion with minIter 555 frequency 13
[OGL LOG][Proc: 0]p: generate_solver: 0.016 [ms]
[OGL LOG][Proc: 0]p: solve: 3352.14 [ms]
[OGL LOG][Proc: 0]p: copy_x_back: 5.744 [ms]
[OGL LOG][lduLduBase.H:330] 
Statistics:
	Time per iteration: 3220 [mu s]
	Time per residual norm calculation: 991.000000 [mu s]
	Time per iteration and DOF: 0.127633 [ns]
	Retrieve results bandwidth 2.936000 [GByte/s]
[OGL LOG][Proc: 0]p: solve_multi_gpu: 3372.074 [ms]
BJcudaGKOCG:  Solving for p, Initial residual = 0.2619196143547644, Final residual = 0.002335862085650714, No Iterations 1041
time step continuity errors : sum local = 0.01913013943969243, global = -0.0002972994499063526, cumulative = 0.004229508290439283
smoothSolver:  Solving for nuTilda, Initial residual = 0.3321158012638676, Final residual = 0.02764199915197947, No Iterations 1
ExecutionTime = 144.1 s  ClockTime = 145 s

Time = 4

velocityDampingConstraint velocityDamping damped 179 (0%) of cells, with max limit 300
smoothSolver:  Solving for Ux, Initial residual = 0.03626563915692082, Final residual = 0.002958332654773535, No Iterations 4
smoothSolver:  Solving for Uy, Initial residual = 0.05331374593367578, Final residual = 0.004663740832577737, No Iterations 4
smoothSolver:  Solving for Uz, Initial residual = 0.04974710176855159, Final residual = 0.004447808298070468, No Iterations 4
[OGL LOG][Proc: 0]: global_index_init: 0.5620000000000001 [ms]
[OGL LOG][Proc: 0]p_local_coeffs: call_update: 0 [ms]
[OGL LOG][Proc: 0]p_non_local_coeffs: call_update: 0 [ms]
[OGL LOG][Proc: 0]p: update_local_matrix_data: 70.923 [ms]
[OGL LOG][Proc: 0]p: update_non_local_matrix_data: 0.531 [ms]
[OGL LOG][Proc: 0]p_matrix: call_update: 2.967 [ms]
[OGL LOG][Proc: 0]p_rhs: call_update: 2.52 [ms]
[OGL LOG][Preconditioner.H:121] Generate preconditioner BJ MaxBlockSize 1
[OGL LOG][Proc: 0]p: init_precond: 1.721 [ms]
[OGL LOG][StoppingCriterion.H:239] Creating stopping criterion with minIter 624 frequency 11
[OGL LOG][Proc: 0]p: generate_solver: 0.017 [ms]
[OGL LOG][Proc: 0]p: solve: 2012.852 [ms]
[OGL LOG][Proc: 0]p: copy_x_back: 5.897 [ms]
[OGL LOG][lduLduBase.H:330] 
Statistics:
	Time per iteration: 3205 [mu s]
	Time per residual norm calculation: 1286.000000 [mu s]
	Time per iteration and DOF: 0.127039 [ns]
	Retrieve results bandwidth 2.860000 [GByte/s]
[OGL LOG][Proc: 0]p: solve_multi_gpu: 2044.284 [ms]
BJcudaGKOCG:  Solving for p, Initial residual = 0.3694769198576172, Final residual = 0.00128183034100676, No Iterations 628
time step continuity errors : sum local = 0.0158448609678597, global = -0.001816857663489173, cumulative = 0.00241265062695011
smoothSolver:  Solving for nuTilda, Initial residual = 0.1523475720999056, Final residual = 0.006692135239356718, No Iterations 3
ExecutionTime = 155.19 s  ClockTime = 157 s

Time = 5

velocityDampingConstraint velocityDamping damped 5524 (0.02%) of cells, with max limit 300
smoothSolver:  Solving for Ux, Initial residual = 0.1808368818696787, Final residual = 0.01553702294915948, No Iterations 3
smoothSolver:  Solving for Uy, Initial residual = 0.2624268906642573, Final residual = 0.02145146988040622, No Iterations 4
smoothSolver:  Solving for Uz, Initial residual = 0.2219196460263761, Final residual = 0.01717051219940873, No Iterations 4
[OGL LOG][Proc: 0]: global_index_init: 0.71 [ms]
[OGL LOG][Proc: 0]p_local_coeffs: call_update: 0 [ms]
[OGL LOG][Proc: 0]p_non_local_coeffs: call_update: 0 [ms]
[OGL LOG][Proc: 0]p: update_local_matrix_data: 78.858 [ms]
[OGL LOG][Proc: 0]p: update_non_local_matrix_data: 0.581 [ms]
[OGL LOG][Proc: 0]p_matrix: call_update: 3.155 [ms]
[OGL LOG][Proc: 0]p_rhs: call_update: 2.289 [ms]
[OGL LOG][Preconditioner.H:121] Generate preconditioner BJ MaxBlockSize 1
[OGL LOG][Proc: 0]p: init_precond: 1.648 [ms]
[OGL LOG][StoppingCriterion.H:239] Creating stopping criterion with minIter 376 frequency 11
[OGL LOG][Proc: 0]p: generate_solver: 0.016 [ms]
[OGL LOG][Proc: 0]p: solve: 2856.297 [ms]
[OGL LOG][Proc: 0]p: copy_x_back: 5.781 [ms]
[OGL LOG][lduLduBase.H:330] 
Statistics:
	Time per iteration: 3125 [mu s]
	Time per residual norm calculation: 1286.000000 [mu s]
	Time per iteration and DOF: 0.123868 [ns]
	Retrieve results bandwidth 2.917000 [GByte/s]
[OGL LOG][Proc: 0]p: solve_multi_gpu: 2880.75 [ms]
BJcudaGKOCG:  Solving for p, Initial residual = 0.2722897547410861, Final residual = 0.002263750858501194, No Iterations 914
time step continuity errors : sum local = 0.02458185560004405, global = -0.0009289362684988292, cumulative = 0.001483714358451281
smoothSolver:  Solving for nuTilda, Initial residual = 0.1176265849465282, Final residual = 0.01048055298458032, No Iterations 2
ExecutionTime = 167.16 s  ClockTime = 169 s

Time = 6

velocityDampingConstraint velocityDamping damped 437 (0%) of cells, with max limit 300
smoothSolver:  Solving for Ux, Initial residual = 0.1305343565102873, Final residual = 0.01257174814852897, No Iterations 4
smoothSolver:  Solving for Uy, Initial residual = 0.2502889440072134, Final residual = 0.01525374281314539, No Iterations 5
smoothSolver:  Solving for Uz, Initial residual = 0.2000488013310115, Final residual = 0.01925257746500517, No Iterations 4
[OGL LOG][Proc: 0]: global_index_init: 0.545 [ms]
[OGL LOG][Proc: 0]p_local_coeffs: call_update: 0 [ms]
[OGL LOG][Proc: 0]p_non_local_coeffs: call_update: 0 [ms]
[OGL LOG][Proc: 0]p: update_local_matrix_data: 80.73099999999999 [ms]
[OGL LOG][Proc: 0]p: update_non_local_matrix_data: 0.577 [ms]
[OGL LOG][Proc: 0]p_matrix: call_update: 2.264 [ms]
[OGL LOG][Proc: 0]p_rhs: call_update: 3.475 [ms]
[OGL LOG][Preconditioner.H:121] Generate preconditioner BJ MaxBlockSize 1
[OGL LOG][Proc: 0]p: init_precond: 1.811 [ms]
[OGL LOG][StoppingCriterion.H:239] Creating stopping criterion with minIter 548 frequency 13
[OGL LOG][Proc: 0]p: generate_solver: 0.014 [ms]
[OGL LOG][Proc: 0]p: solve: 2816.631 [ms]
[OGL LOG][Proc: 0]p: copy_x_back: 5.744 [ms]
[OGL LOG][lduLduBase.H:330] 
Statistics:
	Time per iteration: 3091 [mu s]
	Time per residual norm calculation: 1283.000000 [mu s]
	Time per iteration and DOF: 0.122520 [ns]
	Retrieve results bandwidth 2.936000 [GByte/s]
[OGL LOG][Proc: 0]p: solve_multi_gpu: 2838.496 [ms]
BJcudaGKOCG:  Solving for p, Initial residual = 0.4228631272128037, Final residual = 0.003687957486308895, No Iterations 911
time step continuity errors : sum local = 0.02548758638494828, global = -0.001168653303501512, cumulative = 0.0003150610549497697
smoothSolver:  Solving for nuTilda, Initial residual = 0.07900199930032832, Final residual = 0.004969888068923427, No Iterations 3
ExecutionTime = 179.26 s  ClockTime = 181 s

Time = 7

velocityDampingConstraint velocityDamping damped 1839 (0.01%) of cells, with max limit 300
smoothSolver:  Solving for Ux, Initial residual = 0.09306661375773852, Final residual = 0.005973535308311666, No Iterations 4
smoothSolver:  Solving for Uy, Initial residual = 0.1087819804072165, Final residual = 0.00832959603897865, No Iterations 4
smoothSolver:  Solving for Uz, Initial residual = 0.1039899136416755, Final residual = 0.007976197786922677, No Iterations 4
[OGL LOG][Proc: 0]: global_index_init: 0.401 [ms]
[OGL LOG][Proc: 0]p_local_coeffs: call_update: 0 [ms]
[OGL LOG][Proc: 0]p_non_local_coeffs: call_update: 0 [ms]
[OGL LOG][Proc: 0]p: update_local_matrix_data: 84.08799999999999 [ms]
[OGL LOG][Proc: 0]p: update_non_local_matrix_data: 0.615 [ms]
[OGL LOG][Proc: 0]p_matrix: call_update: 3.192 [ms]
[OGL LOG][Proc: 0]p_rhs: call_update: 2.531 [ms]
[OGL LOG][Preconditioner.H:121] Generate preconditioner BJ MaxBlockSize 1
[OGL LOG][Proc: 0]p: init_precond: 1.655 [ms]
[OGL LOG][StoppingCriterion.H:239] Creating stopping criterion with minIter 546 frequency 13
[OGL LOG][Proc: 0]p: generate_solver: 0.019 [ms]
[OGL LOG][Proc: 0]p: solve: 2384.337 [ms]
[OGL LOG][Proc: 0]p: copy_x_back: 5.834 [ms]
[OGL LOG][lduLduBase.H:330] 
Statistics:
	Time per iteration: 3104 [mu s]
	Time per residual norm calculation: 1426.000000 [mu s]
	Time per iteration and DOF: 0.123035 [ns]
	Retrieve results bandwidth 2.891000 [GByte/s]
[OGL LOG][Proc: 0]p: solve_multi_gpu: 2406.088 [ms]
BJcudaGKOCG:  Solving for p, Initial residual = 0.2671004163350429, Final residual = 0.002640745258140437, No Iterations 768
time step continuity errors : sum local = 0.02010085819425037, global = 0.00136655240248439, cumulative = 0.00168161345743416
smoothSolver:  Solving for nuTilda, Initial residual = 0.06369606244596708, Final residual = 0.003989032122942118, No Iterations 3
ExecutionTime = 190.73 s  ClockTime = 192 s

Time = 8

velocityDampingConstraint velocityDamping damped 1898 (0.01%) of cells, with max limit 300
smoothSolver:  Solving for Ux, Initial residual = 0.1186500632253043, Final residual = 0.009722634476729134, No Iterations 4
smoothSolver:  Solving for Uy, Initial residual = 0.1776212868328347, Final residual = 0.01604063345208933, No Iterations 4
smoothSolver:  Solving for Uz, Initial residual = 0.1692791697455481, Final residual = 0.01512985885545407, No Iterations 4
[OGL LOG][Proc: 0]: global_index_init: 0.019 [ms]
[OGL LOG][Proc: 0]p_local_coeffs: call_update: 0 [ms]
[OGL LOG][Proc: 0]p_non_local_coeffs: call_update: 0 [ms]
[OGL LOG][Proc: 0]p: update_local_matrix_data: 80.053 [ms]
[OGL LOG][Proc: 0]p: update_non_local_matrix_data: 0.601 [ms]
[OGL LOG][Proc: 0]p_matrix: call_update: 3.227 [ms]
[OGL LOG][Proc: 0]p_rhs: call_update: 2.076 [ms]
[OGL LOG][Preconditioner.H:121] Generate preconditioner BJ MaxBlockSize 1
[OGL LOG][Proc: 0]p: init_precond: 1.605 [ms]
[OGL LOG][StoppingCriterion.H:239] Creating stopping criterion with minIter 460 frequency 12
[OGL LOG][Proc: 0]p: generate_solver: 0.02 [ms]
[OGL LOG][Proc: 0]p: solve: 2805.342 [ms]
[OGL LOG][Proc: 0]p: copy_x_back: 5.926 [ms]
[OGL LOG][lduLduBase.H:330] 
Statistics:
	Time per iteration: 3113 [mu s]
	Time per residual norm calculation: 1279.000000 [mu s]
	Time per iteration and DOF: 0.123392 [ns]
	Retrieve results bandwidth 2.846000 [GByte/s]
[OGL LOG][Proc: 0]p: solve_multi_gpu: 2829.973 [ms]
BJcudaGKOCG:  Solving for p, Initial residual = 0.2453535641291591, Final residual = 0.002037491727045278, No Iterations 901
time step continuity errors : sum local = 0.01612930629003224, global = 0.0002276833199536262, cumulative = 0.001909296777387786
smoothSolver:  Solving for nuTilda, Initial residual = 0.0489722302317899, Final residual = 0.003818676063005491, No Iterations 3
ExecutionTime = 202.69 s  ClockTime = 204 s

Time = 9

velocityDampingConstraint velocityDamping damped 46 (0%) of cells, with max limit 300
smoothSolver:  Solving for Ux, Initial residual = 0.06969523531562079, Final residual = 0.005913611836240776, No Iterations 4
smoothSolver:  Solving for Uy, Initial residual = 0.1073371241189123, Final residual = 0.01021851315948421, No Iterations 4
smoothSolver:  Solving for Uz, Initial residual = 0.1016548850901322, Final residual = 0.00930126644133315, No Iterations 4
[OGL LOG][Proc: 0]: global_index_init: 0.665 [ms]
[OGL LOG][Proc: 0]p_local_coeffs: call_update: 0 [ms]
[OGL LOG][Proc: 0]p_non_local_coeffs: call_update: 0 [ms]
[OGL LOG][Proc: 0]p: update_local_matrix_data: 81.755 [ms]
[OGL LOG][Proc: 0]p: update_non_local_matrix_data: 0.641 [ms]
[OGL LOG][Proc: 0]p_matrix: call_update: 2.936 [ms]
[OGL LOG][Proc: 0]p_rhs: call_update: 2.568 [ms]
[OGL LOG][Preconditioner.H:121] Generate preconditioner BJ MaxBlockSize 1
[OGL LOG][Proc: 0]p: init_precond: 1.811 [ms]
[OGL LOG][StoppingCriterion.H:239] Creating stopping criterion with minIter 540 frequency 13
[OGL LOG][Proc: 0]p: generate_solver: 0.016 [ms]
[OGL LOG][Proc: 0]p: solve: 1875.417 [ms]
[OGL LOG][Proc: 0]p: copy_x_back: 6.002 [ms]
[OGL LOG][lduLduBase.H:330] 
Statistics:
	Time per iteration: 3130 [mu s]
	Time per residual norm calculation: 1283.000000 [mu s]
	Time per iteration and DOF: 0.124066 [ns]
	Retrieve results bandwidth 2.810000 [GByte/s]
[OGL LOG][Proc: 0]p: solve_multi_gpu: 1896.602 [ms]
BJcudaGKOCG:  Solving for p, Initial residual = 0.3454321113885491, Final residual = 0.00339806384721237, No Iterations 599
time step continuity errors : sum local = 0.02031908347992305, global = 0.003547619110452009, cumulative = 0.005456915887839795
smoothSolver:  Solving for nuTilda, Initial residual = 0.0422747194779698, Final residual = 0.003199381050442434, No Iterations 3
ExecutionTime = 213.75 s  ClockTime = 215 s

Time = 10

velocityDampingConstraint velocityDamping damped 194 (0%) of cells, with max limit 300
smoothSolver:  Solving for Ux, Initial residual = 0.02875815761754769, Final residual = 0.002065421880414235, No Iterations 4
smoothSolver:  Solving for Uy, Initial residual = 0.05935548001913635, Final residual = 0.004464889267551025, No Iterations 4
smoothSolver:  Solving for Uz, Initial residual = 0.05811224777537925, Final residual = 0.004479835634368374, No Iterations 4
[OGL LOG][Proc: 0]: global_index_init: 0.394 [ms]
[OGL LOG][Proc: 0]p_local_coeffs: call_update: 0 [ms]
[OGL LOG][Proc: 0]p_non_local_coeffs: call_update: 0 [ms]
[OGL LOG][Proc: 0]p: update_local_matrix_data: 66.161 [ms]
[OGL LOG][Proc: 0]p: update_non_local_matrix_data: 0.6 [ms]
[OGL LOG][Proc: 0]p_matrix: call_update: 3.07 [ms]
[OGL LOG][Proc: 0]p_rhs: call_update: 2.612 [ms]
[OGL LOG][Preconditioner.H:121] Generate preconditioner BJ MaxBlockSize 1
[OGL LOG][Proc: 0]p: init_precond: 1.708 [ms]
[OGL LOG][StoppingCriterion.H:239] Creating stopping criterion with minIter 359 frequency 10
[OGL LOG][Proc: 0]p: generate_solver: 0.015 [ms]
[OGL LOG][Proc: 0]p: solve: 1270.688 [ms]
[OGL LOG][Proc: 0]p: copy_x_back: 5.685 [ms]
[OGL LOG][lduLduBase.H:330] 
Statistics:
	Time per iteration: 3249 [mu s]
	Time per residual norm calculation: 987.000000 [mu s]
	Time per iteration and DOF: 0.128783 [ns]
	Retrieve results bandwidth 2.966000 [GByte/s]
[OGL LOG][Proc: 0]p: solve_multi_gpu: 1308.345 [ms]
BJcudaGKOCG:  Solving for p, Initial residual = 0.2904975724349464, Final residual = 0.0028542797904752, No Iterations 391
time step continuity errors : sum local = 0.01699667761179023, global = 0.00228661110843821, cumulative = 0.007743526996278005
smoothSolver:  Solving for nuTilda, Initial residual = 0.03547523892105538, Final residual = 0.002993796364488217, No Iterations 3
ExecutionTime = 224.16 s  ClockTime = 226 s

Time = 11

velocityDampingConstraint velocityDamping damped 580 (0%) of cells, with max limit 300
smoothSolver:  Solving for Ux, Initial residual = 0.03739068538379723, Final residual = 0.003144565713679539, No Iterations 4
smoothSolver:  Solving for Uy, Initial residual = 0.1035581072489664, Final residual = 0.00918857645085858, No Iterations 4
smoothSolver:  Solving for Uz, Initial residual = 0.09678700564072119, Final residual = 0.008584047202596758, No Iterations 4
[OGL LOG][Proc: 0]: global_index_init: 0.288 [ms]
[OGL LOG][Proc: 0]p_local_coeffs: call_update: 0 [ms]
[OGL LOG][Proc: 0]p_non_local_coeffs: call_update: 0 [ms]
[OGL LOG][Proc: 0]p: update_local_matrix_data: 86.973 [ms]
[OGL LOG][Proc: 0]p: update_non_local_matrix_data: 0.531 [ms]
[OGL LOG][Proc: 0]p_matrix: call_update: 2.254 [ms]
[OGL LOG][Proc: 0]p_rhs: call_update: 3.235 [ms]
[OGL LOG][Preconditioner.H:121] Generate preconditioner BJ MaxBlockSize 1
[OGL LOG][Proc: 0]p: init_precond: 1.815 [ms]
[OGL LOG][StoppingCriterion.H:239] Creating stopping criterion with minIter 234 frequency 7
[OGL LOG][Proc: 0]p: generate_solver: 0.016 [ms]
[OGL LOG][Proc: 0]p: solve: 3044.305 [ms]
[OGL LOG][Proc: 0]p: copy_x_back: 5.803 [ms]
[OGL LOG][lduLduBase.H:330] 
Statistics:
	Time per iteration: 3503 [mu s]
	Time per residual norm calculation: 1281.000000 [mu s]
	Time per iteration and DOF: 0.138851 [ns]
	Retrieve results bandwidth 2.906000 [GByte/s]
[OGL LOG][Proc: 0]p: solve_multi_gpu: 3059.479 [ms]
BJcudaGKOCG:  Solving for p, Initial residual = 0.3211989337858136, Final residual = 0.003017112152916944, No Iterations 869
time step continuity errors : sum local = 0.01582614089063572, global = -0.0004416635154327702, cumulative = 0.007301863480845235
smoothSolver:  Solving for nuTilda, Initial residual = 0.03216451054257598, Final residual = 0.002605391321042132, No Iterations 3
ExecutionTime = 236.4 s  ClockTime = 238 s

Time = 12

velocityDampingConstraint velocityDamping damped 39 (0%) of cells, with max limit 300
smoothSolver:  Solving for Ux, Initial residual = 0.03869901001456872, Final residual = 0.00334819994545996, No Iterations 4
smoothSolver:  Solving for Uy, Initial residual = 0.07911406916114251, Final residual = 0.007030073910280463, No Iterations 4
smoothSolver:  Solving for Uz, Initial residual = 0.07811247373463569, Final residual = 0.006745037649267662, No Iterations 4
[OGL LOG][Proc: 0]: global_index_init: 0.274 [ms]
[OGL LOG][Proc: 0]p_local_coeffs: call_update: 0 [ms]
[OGL LOG][Proc: 0]p_non_local_coeffs: call_update: 0 [ms]
[OGL LOG][Proc: 0]p: update_local_matrix_data: 65.84399999999999 [ms]
[OGL LOG][Proc: 0]p: update_non_local_matrix_data: 0.622 [ms]
[OGL LOG][Proc: 0]p_matrix: call_update: 3.16 [ms]
[OGL LOG][Proc: 0]p_rhs: call_update: 2.431 [ms]
[OGL LOG][Preconditioner.H:121] Generate preconditioner BJ MaxBlockSize 1
[OGL LOG][Proc: 0]p: init_precond: 1.719 [ms]
[OGL LOG][StoppingCriterion.H:239] Creating stopping criterion with minIter 521 frequency 13
[OGL LOG][Proc: 0]p: generate_solver: 0.019 [ms]
[OGL LOG][Proc: 0]p: solve: 3051.327 [ms]
[OGL LOG][Proc: 0]p: copy_x_back: 5.978 [ms]
[OGL LOG][lduLduBase.H:330] 
Statistics:
	Time per iteration: 3447 [mu s]
	Time per residual norm calculation: 1283.000000 [mu s]
	Time per iteration and DOF: 0.136631 [ns]
	Retrieve results bandwidth 2.821000 [GByte/s]
[OGL LOG][Proc: 0]p: solve_multi_gpu: 3089.533 [ms]
BJcudaGKOCG:  Solving for p, Initial residual = 0.4670222970229166, Final residual = 0.004628434982843208, No Iterations 885
time step continuity errors : sum local = 0.01488308390661237, global = -0.0004729367413258428, cumulative = 0.006828926739519392
smoothSolver:  Solving for nuTilda, Initial residual = 0.02864771143155057, Final residual = 0.002545010654549434, No Iterations 3
ExecutionTime = 248.52 s  ClockTime = 250 s

Time = 13

velocityDampingConstraint velocityDamping damped 31 (0%) of cells, with max limit 300
smoothSolver:  Solving for Ux, Initial residual = 0.02988820191091299, Final residual = 0.002381083212814827, No Iterations 4
smoothSolver:  Solving for Uy, Initial residual = 0.05858094132450293, Final residual = 0.004782128203604288, No Iterations 4
smoothSolver:  Solving for Uz, Initial residual = 0.05966662659625731, Final residual = 0.00464964380402947, No Iterations 4
[OGL LOG][Proc: 0]: global_index_init: 0.467 [ms]
[OGL LOG][Proc: 0]p_local_coeffs: call_update: 0 [ms]
[OGL LOG][Proc: 0]p_non_local_coeffs: call_update: 0 [ms]
[OGL LOG][Proc: 0]p: update_local_matrix_data: 85.319 [ms]
[OGL LOG][Proc: 0]p: update_non_local_matrix_data: 0.5629999999999999 [ms]
[OGL LOG][Proc: 0]p_matrix: call_update: 3.405 [ms]
[OGL LOG][Proc: 0]p_rhs: call_update: 2.162 [ms]
[OGL LOG][Preconditioner.H:121] Generate preconditioner BJ MaxBlockSize 1
[OGL LOG][Proc: 0]p: init_precond: 1.743 [ms]
[OGL LOG][StoppingCriterion.H:239] Creating stopping criterion with minIter 531 frequency 13
[OGL LOG][Proc: 0]p: generate_solver: 0.018 [ms]
[OGL LOG][Proc: 0]p: solve: 1682.14 [ms]
[OGL LOG][Proc: 0]p: copy_x_back: 5.875 [ms]
[OGL LOG][lduLduBase.H:330] 
Statistics:
	Time per iteration: 3150 [mu s]
	Time per residual norm calculation: 1430.000000 [mu s]
	Time per iteration and DOF: 0.124859 [ns]
	Retrieve results bandwidth 2.870000 [GByte/s]
[OGL LOG][Proc: 0]p: solve_multi_gpu: 1701.898 [ms]
BJcudaGKOCG:  Solving for p, Initial residual = 0.3511531235245128, Final residual = 0.001348831254138371, No Iterations 534
time step continuity errors : sum local = 0.005221032535697095, global = 0.0003647497813836333, cumulative = 0.007193676520903025
smoothSolver:  Solving for nuTilda, Initial residual = 0.02775140457451078, Final residual = 0.002360313987356235, No Iterations 3
ExecutionTime = 259.26 s  ClockTime = 261 s

Time = 14

velocityDampingConstraint velocityDamping damped 202 (0%) of cells, with max limit 300
smoothSolver:  Solving for Ux, Initial residual = 0.03521484118454529, Final residual = 0.002979898218878019, No Iterations 4
smoothSolver:  Solving for Uy, Initial residual = 0.06957818919236013, Final residual = 0.006330428992910893, No Iterations 4
smoothSolver:  Solving for Uz, Initial residual = 0.06764904325783694, Final residual = 0.006018014902022003, No Iterations 4
[OGL LOG][Proc: 0]: global_index_init: 0.254 [ms]
[OGL LOG][Proc: 0]p_local_coeffs: call_update: 0 [ms]
[OGL LOG][Proc: 0]p_non_local_coeffs: call_update: 0 [ms]
[OGL LOG][Proc: 0]p: update_local_matrix_data: 81.01000000000001 [ms]
[OGL LOG][Proc: 0]p: update_non_local_matrix_data: 0.613 [ms]
[OGL LOG][Proc: 0]p_matrix: call_update: 3.278 [ms]
[OGL LOG][Proc: 0]p_rhs: call_update: 2.658 [ms]
[OGL LOG][Preconditioner.H:121] Generate preconditioner BJ MaxBlockSize 1
[OGL LOG][Proc: 0]p: init_precond: 1.655 [ms]
[OGL LOG][StoppingCriterion.H:239] Creating stopping criterion with minIter 320 frequency 10
[OGL LOG][Proc: 0]p: generate_solver: 0.017 [ms]
[OGL LOG][Proc: 0]p: solve: 2743.471 [ms]
[OGL LOG][Proc: 0]p: copy_x_back: 6.086 [ms]
[OGL LOG][lduLduBase.H:330] 
Statistics:
	Time per iteration: 3149 [mu s]
	Time per residual norm calculation: 1292.000000 [mu s]
	Time per iteration and DOF: 0.124819 [ns]
	Retrieve results bandwidth 2.771000 [GByte/s]
[OGL LOG][Proc: 0]p: solve_multi_gpu: 2766.704 [ms]
BJcudaGKOCG:  Solving for p, Initial residual = 0.3295363406818134, Final residual = 0.002619444123727536, No Iterations 871
time step continuity errors : sum local = 0.008801385755824877, global = 0.0001499205253970398, cumulative = 0.007343597046300065
smoothSolver:  Solving for nuTilda, Initial residual = 0.02578433144578939, Final residual = 0.002381693632038478, No Iterations 3
ExecutionTime = 271.14 s  ClockTime = 273 s

Time = 15

velocityDampingConstraint velocityDamping damped 30 (0%) of cells, with max limit 300
smoothSolver:  Solving for Ux, Initial residual = 0.0277817808219163, Final residual = 0.002268731839905572, No Iterations 4
smoothSolver:  Solving for Uy, Initial residual = 0.04744307902924327, Final residual = 0.004177118869538152, No Iterations 4
smoothSolver:  Solving for Uz, Initial residual = 0.04639481323515909, Final residual = 0.003942129280084555, No Iterations 4
[OGL LOG][Proc: 0]: global_index_init: 0.399 [ms]
[OGL LOG][Proc: 0]p_local_coeffs: call_update: 0 [ms]
[OGL LOG][Proc: 0]p_non_local_coeffs: call_update: 0 [ms]
[OGL LOG][Proc: 0]p: update_local_matrix_data: 78.753 [ms]
[OGL LOG][Proc: 0]p: update_non_local_matrix_data: 0.585 [ms]
[OGL LOG][Proc: 0]p_matrix: call_update: 3.266 [ms]
[OGL LOG][Proc: 0]p_rhs: call_update: 2.104 [ms]
[OGL LOG][Preconditioner.H:121] Generate preconditioner BJ MaxBlockSize 1
[OGL LOG][Proc: 0]p: init_precond: 1.632 [ms]
[OGL LOG][StoppingCriterion.H:239] Creating stopping criterion with minIter 522 frequency 13
[OGL LOG][Proc: 0]p: generate_solver: 0.015 [ms]
[OGL LOG][Proc: 0]p: solve: 2697.718 [ms]
[OGL LOG][Proc: 0]p: copy_x_back: 5.955 [ms]
[OGL LOG][lduLduBase.H:330] 
Statistics:
	Time per iteration: 3093 [mu s]
	Time per residual norm calculation: 1431.000000 [mu s]
	Time per iteration and DOF: 0.122599 [ns]
	Retrieve results bandwidth 2.832000 [GByte/s]
[OGL LOG][Proc: 0]p: solve_multi_gpu: 2722.698 [ms]
BJcudaGKOCG:  Solving for p, Initial residual = 0.3518522517960633, Final residual = 0.002982519305824261, No Iterations 872
time step continuity errors : sum local = 0.008445292785654967, global = 0.0003559367717021411, cumulative = 0.007699533818002206
smoothSolver:  Solving for nuTilda, Initial residual = 0.02572788783679318, Final residual = 0.002227498643174729, No Iterations 3
ExecutionTime = 282.85 s  ClockTime = 284 s

Time = 16

velocityDampingConstraint velocityDamping damped 4 (0%) of cells, with max limit 300
smoothSolver:  Solving for Ux, Initial residual = 0.01778853831306503, Final residual = 0.001358166031854503, No Iterations 4
smoothSolver:  Solving for Uy, Initial residual = 0.03762202838985251, Final residual = 0.002882143207292673, No Iterations 4
smoothSolver:  Solving for Uz, Initial residual = 0.04177896109506115, Final residual = 0.003307787903628874, No Iterations 4
[OGL LOG][Proc: 0]: global_index_init: 0.44 [ms]
[OGL LOG][Proc: 0]p_local_coeffs: call_update: 0 [ms]
[OGL LOG][Proc: 0]p_non_local_coeffs: call_update: 0 [ms]
[OGL LOG][Proc: 0]p: update_local_matrix_data: 77.89400000000001 [ms]
[OGL LOG][Proc: 0]p: update_non_local_matrix_data: 0.57 [ms]
[OGL LOG][Proc: 0]p_matrix: call_update: 3.209 [ms]
[OGL LOG][Proc: 0]p_rhs: call_update: 2.159 [ms]
[OGL LOG][Preconditioner.H:121] Generate preconditioner BJ MaxBlockSize 1
[OGL LOG][Proc: 0]p: init_precond: 1.685 [ms]
[OGL LOG][StoppingCriterion.H:239] Creating stopping criterion with minIter 523 frequency 13
[OGL LOG][Proc: 0]p: generate_solver: 0.018 [ms]
[OGL LOG][Proc: 0]p: solve: 1795.549 [ms]
[OGL LOG][Proc: 0]p: copy_x_back: 5.613 [ms]
[OGL LOG][lduLduBase.H:330] 
Statistics:
	Time per iteration: 3362 [mu s]
	Time per residual norm calculation: 1287.000000 [mu s]
	Time per iteration and DOF: 0.133262 [ns]
	Retrieve results bandwidth 3.004000 [GByte/s]
[OGL LOG][Proc: 0]p: solve_multi_gpu: 1820.913 [ms]
BJcudaGKOCG:  Solving for p, Initial residual = 0.4781179957263503, Final residual = 0.003831235686503529, No Iterations 534
time step continuity errors : sum local = 0.007984329329079781, global = -0.001168194018226065, cumulative = 0.006531339799776141
smoothSolver:  Solving for nuTilda, Initial residual = 0.02362877590137354, Final residual = 0.002245181353936133, No Iterations 3
ExecutionTime = 293.78 s  ClockTime = 295 s

Time = 17

velocityDampingConstraint velocityDamping damped 11 (0%) of cells, with max limit 300
smoothSolver:  Solving for Ux, Initial residual = 0.01570810809456955, Final residual = 0.001178816289762039, No Iterations 4
smoothSolver:  Solving for Uy, Initial residual = 0.04277583670330894, Final residual = 0.003597046035901705, No Iterations 4
smoothSolver:  Solving for Uz, Initial residual = 0.04572026443402527, Final residual = 0.003908691028188413, No Iterations 4
[OGL LOG][Proc: 0]: global_index_init: 0.871 [ms]
[OGL LOG][Proc: 0]p_local_coeffs: call_update: 0 [ms]
[OGL LOG][Proc: 0]p_non_local_coeffs: call_update: 0 [ms]
[OGL LOG][Proc: 0]p: update_local_matrix_data: 85.047 [ms]
[OGL LOG][Proc: 0]p: update_non_local_matrix_data: 0.583 [ms]
[OGL LOG][Proc: 0]p_matrix: call_update: 3.406 [ms]
[OGL LOG][Proc: 0]p_rhs: call_update: 2.269 [ms]
[OGL LOG][Preconditioner.H:121] Generate preconditioner BJ MaxBlockSize 1
[OGL LOG][Proc: 0]p: init_precond: 1.661 [ms]
[OGL LOG][StoppingCriterion.H:239] Creating stopping criterion with minIter 320 frequency 10
[OGL LOG][Proc: 0]p: generate_solver: 0.015 [ms]
[OGL LOG][Proc: 0]p: solve: 2672.715 [ms]
[OGL LOG][Proc: 0]p: copy_x_back: 5.952 [ms]
[OGL LOG][lduLduBase.H:330] 
Statistics:
	Time per iteration: 3140 [mu s]
	Time per residual norm calculation: 1280.000000 [mu s]
	Time per iteration and DOF: 0.124462 [ns]
	Retrieve results bandwidth 2.833000 [GByte/s]
[OGL LOG][Proc: 0]p: solve_multi_gpu: 2692.314 [ms]
BJcudaGKOCG:  Solving for p, Initial residual = 0.4220678076208272, Final residual = 0.003929429008564804, No Iterations 851
time step continuity errors : sum local = 0.008268089804250466, global = -0.0001555593068184672, cumulative = 0.006375780492957674
smoothSolver:  Solving for nuTilda, Initial residual = 0.02469353912697285, Final residual = 0.00209147878299173, No Iterations 3
ExecutionTime = 305.47 s  ClockTime = 307 s

Time = 18

velocityDampingConstraint velocityDamping damped 35 (0%) of cells, with max limit 300
smoothSolver:  Solving for Ux, Initial residual = 0.0145960750678164, Final residual = 0.001236420041390371, No Iterations 4
smoothSolver:  Solving for Uy, Initial residual = 0.03554604920817871, Final residual = 0.002951996433196088, No Iterations 4
smoothSolver:  Solving for Uz, Initial residual = 0.03716024583937875, Final residual = 0.003053432958072767, No Iterations 4
[OGL LOG][Proc: 0]: global_index_init: 0.345 [ms]
[OGL LOG][Proc: 0]p_local_coeffs: call_update: 0 [ms]
[OGL LOG][Proc: 0]p_non_local_coeffs: call_update: 0 [ms]
[OGL LOG][Proc: 0]p: update_local_matrix_data: 81.84999999999999 [ms]
[OGL LOG][Proc: 0]p: update_non_local_matrix_data: 0.624 [ms]
[OGL LOG][Proc: 0]p_matrix: call_update: 3.258 [ms]
[OGL LOG][Proc: 0]p_rhs: call_update: 2.827 [ms]
[OGL LOG][Preconditioner.H:121] Generate preconditioner BJ MaxBlockSize 1
[OGL LOG][Proc: 0]p: init_precond: 1.039 [ms]
[OGL LOG][StoppingCriterion.H:239] Creating stopping criterion with minIter 510 frequency 13
[OGL LOG][Proc: 0]p: generate_solver: 0.016 [ms]
[OGL LOG][Proc: 0]p: solve: 1650.079 [ms]
[OGL LOG][Proc: 0]p: copy_x_back: 5.567 [ms]
[OGL LOG][lduLduBase.H:330] 
Statistics:
	Time per iteration: 3167 [mu s]
	Time per residual norm calculation: 1296.000000 [mu s]
	Time per iteration and DOF: 0.125532 [ns]
	Retrieve results bandwidth 3.029000 [GByte/s]
[OGL LOG][Proc: 0]p: solve_multi_gpu: 1671.908 [ms]
BJcudaGKOCG:  Solving for p, Initial residual = 0.3597496847990589, Final residual = 0.003199329627192371, No Iterations 521
time step continuity errors : sum local = 0.006855077263378602, global = -0.0005712941401726416, cumulative = 0.005804486352785032
smoothSolver:  Solving for nuTilda, Initial residual = 0.02205326460533284, Final residual = 0.002128785227340708, No Iterations 3
ExecutionTime = 316.27 s  ClockTime = 318 s

Time = 19

velocityDampingConstraint velocityDamping damped 1 (0%) of cells, with max limit 300
smoothSolver:  Solving for Ux, Initial residual = 0.01436867974358563, Final residual = 0.001287660825112312, No Iterations 4
smoothSolver:  Solving for Uy, Initial residual = 0.03490417145516314, Final residual = 0.003010363394296364, No Iterations 4
smoothSolver:  Solving for Uz, Initial residual = 0.03459965463386382, Final residual = 0.002888526706886852, No Iterations 4
[OGL LOG][Proc: 0]: global_index_init: 0.5679999999999999 [ms]
[OGL LOG][Proc: 0]p_local_coeffs: call_update: 0 [ms]
[OGL LOG][Proc: 0]p_non_local_coeffs: call_update: 0 [ms]
[OGL LOG][Proc: 0]p: update_local_matrix_data: 78.815 [ms]
[OGL LOG][Proc: 0]p: update_non_local_matrix_data: 0.54 [ms]
[OGL LOG][Proc: 0]p_matrix: call_update: 3.12 [ms]
[OGL LOG][Proc: 0]p_rhs: call_update: 3.375 [ms]
[OGL LOG][Preconditioner.H:121] Generate preconditioner BJ MaxBlockSize 1
[OGL LOG][Proc: 0]p: init_precond: 1.729 [ms]
[OGL LOG][StoppingCriterion.H:239] Creating stopping criterion with minIter 312 frequency 10
[OGL LOG][Proc: 0]p: generate_solver: 0.014 [ms]
[OGL LOG][Proc: 0]p: solve: 1124.527 [ms]
[OGL LOG][Proc: 0]p: copy_x_back: 6.04 [ms]
[OGL LOG][lduLduBase.H:330] 
Statistics:
	Time per iteration: 3297 [mu s]
	Time per residual norm calculation: 1282.000000 [mu s]
	Time per iteration and DOF: 0.130685 [ns]
	Retrieve results bandwidth 2.792000 [GByte/s]
[OGL LOG][Proc: 0]p: solve_multi_gpu: 1151.183 [ms]
BJcudaGKOCG:  Solving for p, Initial residual = 0.387126830216612, Final residual = 0.003664188699217342, No Iterations 341
time step continuity errors : sum local = 0.006729005908510347, global = 0.0003967742166229665, cumulative = 0.006201260569407999
smoothSolver:  Solving for nuTilda, Initial residual = 0.02544744393874126, Final residual = 0.001987964317693218, No Iterations 3
ExecutionTime = 326.45 s  ClockTime = 328 s

Time = 20

velocityDampingConstraint velocityDamping damped 1 (0%) of cells, with max limit 300
smoothSolver:  Solving for Ux, Initial residual = 0.01493777190363678, Final residual = 0.001293867133589612, No Iterations 4
smoothSolver:  Solving for Uy, Initial residual = 0.03305185684403628, Final residual = 0.003020353463318348, No Iterations 4
smoothSolver:  Solving for Uz, Initial residual = 0.03253596280356116, Final residual = 0.002868578241751085, No Iterations 4
[OGL LOG][Proc: 0]: global_index_init: 0.299 [ms]
[OGL LOG][Proc: 0]p_local_coeffs: call_update: 0 [ms]
[OGL LOG][Proc: 0]p_non_local_coeffs: call_update: 0 [ms]
[OGL LOG][Proc: 0]p: update_local_matrix_data: 81.215 [ms]
[OGL LOG][Proc: 0]p: update_non_local_matrix_data: 0.5620000000000001 [ms]
[OGL LOG][Proc: 0]p_matrix: call_update: 3.3 [ms]
[OGL LOG][Proc: 0]p_rhs: call_update: 2.06 [ms]
[OGL LOG][Preconditioner.H:121] Generate preconditioner BJ MaxBlockSize 1
[OGL LOG][Proc: 0]p: init_precond: 1.682 [ms]
[OGL LOG][StoppingCriterion.H:239] Creating stopping criterion with minIter 204 frequency 8
[OGL LOG][Proc: 0]p: generate_solver: 0.019 [ms]
[OGL LOG][Proc: 0]p: solve: 3005.958 [ms]
[OGL LOG][Proc: 0]p: copy_x_back: 5.798 [ms]
[OGL LOG][lduLduBase.H:330] 
Statistics:
	Time per iteration: 3574 [mu s]
	Time per residual norm calculation: 1432.000000 [mu s]
	Time per iteration and DOF: 0.141665 [ns]
	Retrieve results bandwidth 2.909000 [GByte/s]
[OGL LOG][Proc: 0]p: solve_multi_gpu: 3028.757 [ms]
BJcudaGKOCG:  Solving for p, Initial residual = 0.3712606690175952, Final residual = 0.00335965167462142, No Iterations 841
time step continuity errors : sum local = 0.005522120170342342, global = 6.996319036015748e-05, cumulative = 0.006271223759768157
smoothSolver:  Solving for nuTilda, Initial residual = 0.02099160497995154, Final residual = 0.002066544556484915, No Iterations 3
ExecutionTime = 338.61 s  ClockTime = 340 s

Time = 21

velocityDampingConstraint velocityDamping damped 32 (0%) of cells, with max limit 300
smoothSolver:  Solving for Ux, Initial residual = 0.01206907783508169, Final residual = 0.001033582361618326, No Iterations 4
smoothSolver:  Solving for Uy, Initial residual = 0.02553843430188069, Final residual = 0.002262092302057792, No Iterations 4
smoothSolver:  Solving for Uz, Initial residual = 0.02635774153379779, Final residual = 0.002224766694792202, No Iterations 4
[OGL LOG][Proc: 0]: global_index_init: 0.41 [ms]
[OGL LOG][Proc: 0]p_local_coeffs: call_update: 0 [ms]
[OGL LOG][Proc: 0]p_non_local_coeffs: call_update: 0 [ms]
[OGL LOG][Proc: 0]p: update_local_matrix_data: 79.066 [ms]
[OGL LOG][Proc: 0]p: update_non_local_matrix_data: 0.641 [ms]
[OGL LOG][Proc: 0]p_matrix: call_update: 3.322 [ms]
[OGL LOG][Proc: 0]p_rhs: call_update: 2.264 [ms]
[OGL LOG][Preconditioner.H:121] Generate preconditioner BJ MaxBlockSize 1
[OGL LOG][Proc: 0]p: init_precond: 1.726 [ms]
[OGL LOG][StoppingCriterion.H:239] Creating stopping criterion with minIter 504 frequency 12
[OGL LOG][Proc: 0]p: generate_solver: 0.017 [ms]
[OGL LOG][Proc: 0]p: solve: 1595.896 [ms]
[OGL LOG][Proc: 0]p: copy_x_back: 5.769 [ms]
[OGL LOG][lduLduBase.H:330] 
Statistics:
	Time per iteration: 3160 [mu s]
	Time per residual norm calculation: 1428.000000 [mu s]
	Time per iteration and DOF: 0.125255 [ns]
	Retrieve results bandwidth 2.923000 [GByte/s]
[OGL LOG][Proc: 0]p: solve_multi_gpu: 1619.464 [ms]
BJcudaGKOCG:  Solving for p, Initial residual = 0.2557839462401896, Final residual = 0.002499049079953729, No Iterations 505
time step continuity errors : sum local = 0.004999928572275861, global = 0.000532950262187185, cumulative = 0.006804174021955342
smoothSolver:  Solving for nuTilda, Initial residual = 0.02871305140711463, Final residual = 0.001919446264795864, No Iterations 3
ExecutionTime = 349.3 s  ClockTime = 351 s

Time = 22

velocityDampingConstraint velocityDamping damped 0 (0%) of cells, with max limit 300
smoothSolver:  Solving for Ux, Initial residual = 0.009767777532844506, Final residual = 0.0008259832067606806, No Iterations 4
smoothSolver:  Solving for Uy, Initial residual = 0.0241419689904118, Final residual = 0.001995924561717408, No Iterations 4
smoothSolver:  Solving for Uz, Initial residual = 0.02705927059668199, Final residual = 0.002217964884708156, No Iterations 4
[OGL LOG][Proc: 0]: global_index_init: 0.524 [ms]
[OGL LOG][Proc: 0]p_local_coeffs: call_update: 0 [ms]
[OGL LOG][Proc: 0]p_non_local_coeffs: call_update: 0 [ms]
[OGL LOG][Proc: 0]p: update_local_matrix_data: 84.65000000000001 [ms]
[OGL LOG][Proc: 0]p: update_non_local_matrix_data: 0.589 [ms]
[OGL LOG][Proc: 0]p_matrix: call_update: 3.232 [ms]
[OGL LOG][Proc: 0]p_rhs: call_update: 2.097 [ms]
[OGL LOG][Preconditioner.H:121] Generate preconditioner BJ MaxBlockSize 1
[OGL LOG][Proc: 0]p: init_precond: 1.498 [ms]
[OGL LOG][StoppingCriterion.H:239] Creating stopping criterion with minIter 303 frequency 10
[OGL LOG][Proc: 0]p: generate_solver: 0.015 [ms]
[OGL LOG][Proc: 0]p: solve: 1130.062 [ms]
[OGL LOG][Proc: 0]p: copy_x_back: 5.88 [ms]
[OGL LOG][lduLduBase.H:330] 
Statistics:
	Time per iteration: 3313 [mu s]
	Time per residual norm calculation: 1285.000000 [mu s]
	Time per iteration and DOF: 0.131320 [ns]
	Retrieve results bandwidth 2.868000 [GByte/s]
[OGL LOG][Proc: 0]p: solve_multi_gpu: 1149.06 [ms]
BJcudaGKOCG:  Solving for p, Initial residual = 0.3038383201388882, Final residual = 0.002920797247403708, No Iterations 341
time step continuity errors : sum local = 0.004698950880713221, global = -0.0001952044005545521, cumulative = 0.006608969621400789
smoothSolver:  Solving for nuTilda, Initial residual = 0.019997601537682, Final residual = 0.001135325554895279, No Iterations 4
ExecutionTime = 359.58 s  ClockTime = 361 s

Time = 23

velocityDampingConstraint velocityDamping damped 0 (0%) of cells, with max limit 300
smoothSolver:  Solving for Ux, Initial residual = 0.009258241121667857, Final residual = 0.0007592778262154914, No Iterations 4
smoothSolver:  Solving for Uy, Initial residual = 0.02451152698827183, Final residual = 0.002089173794272444, No Iterations 4
smoothSolver:  Solving for Uz, Initial residual = 0.02653761031624436, Final residual = 0.002239187613414688, No Iterations 4
[OGL LOG][Proc: 0]: global_index_init: 0.5639999999999999 [ms]
[OGL LOG][Proc: 0]p_local_coeffs: call_update: 0 [ms]
[OGL LOG][Proc: 0]p_non_local_coeffs: call_update: 0 [ms]
[OGL LOG][Proc: 0]p: update_local_matrix_data: 78.837 [ms]
[OGL LOG][Proc: 0]p: update_non_local_matrix_data: 0.5600000000000001 [ms]
[OGL LOG][Proc: 0]p_matrix: call_update: 3.137 [ms]
[OGL LOG][Proc: 0]p_rhs: call_update: 2.427 [ms]
[OGL LOG][Preconditioner.H:121] Generate preconditioner BJ MaxBlockSize 1
[OGL LOG][Proc: 0]p: init_precond: 1.714 [ms]
[OGL LOG][StoppingCriterion.H:239] Creating stopping criterion with minIter 204 frequency 8
[OGL LOG][Proc: 0]p: generate_solver: 0.016 [ms]
[OGL LOG][Proc: 0]p: solve: 2654.125 [ms]
[OGL LOG][Proc: 0]p: copy_x_back: 5.699 [ms]
[OGL LOG][lduLduBase.H:330] 
Statistics:
	Time per iteration: 3186 [mu s]
	Time per residual norm calculation: 1425.000000 [mu s]
	Time per iteration and DOF: 0.126286 [ns]
	Retrieve results bandwidth 2.959000 [GByte/s]
[OGL LOG][Proc: 0]p: solve_multi_gpu: 2679.878 [ms]
BJcudaGKOCG:  Solving for p, Initial residual = 0.2739504548626023, Final residual = 0.002474283826255522, No Iterations 833
time step continuity errors : sum local = 0.003908973241177708, global = -6.376899941099609e-05, cumulative = 0.006545200621989793
smoothSolver:  Solving for nuTilda, Initial residual = 0.03156753987888333, Final residual = 0.001833005188487066, No Iterations 3
ExecutionTime = 371.18 s  ClockTime = 373 s

Time = 24

velocityDampingConstraint velocityDamping damped 0 (0%) of cells, with max limit 300
smoothSolver:  Solving for Ux, Initial residual = 0.008733675324431114, Final residual = 0.0007655170115059622, No Iterations 4
smoothSolver:  Solving for Uy, Initial residual = 0.02348206489518475, Final residual = 0.002040554719221526, No Iterations 4
smoothSolver:  Solving for Uz, Initial residual = 0.02386392317845562, Final residual = 0.002047684684213768, No Iterations 4
[OGL LOG][Proc: 0]: global_index_init: 0.618 [ms]
[OGL LOG][Proc: 0]p_local_coeffs: call_update: 0 [ms]
[OGL LOG][Proc: 0]p_non_local_coeffs: call_update: 0 [ms]
[OGL LOG][Proc: 0]p: update_local_matrix_data: 84.779 [ms]
[OGL LOG][Proc: 0]p: update_non_local_matrix_data: 0.5669999999999999 [ms]
[OGL LOG][Proc: 0]p_matrix: call_update: 3.243 [ms]
[OGL LOG][Proc: 0]p_rhs: call_update: 2.358 [ms]
[OGL LOG][Preconditioner.H:121] Generate preconditioner BJ MaxBlockSize 1
[OGL LOG][Proc: 0]p: init_precond: 1.576 [ms]
[OGL LOG][StoppingCriterion.H:239] Creating stopping criterion with minIter 499 frequency 12
[OGL LOG][Proc: 0]p: generate_solver: 0.019 [ms]
[OGL LOG][Proc: 0]p: solve: 1777.187 [ms]
[OGL LOG][Proc: 0]p: copy_x_back: 5.701 [ms]
[OGL LOG][lduLduBase.H:330] 
Statistics:
	Time per iteration: 3145 [mu s]
	Time per residual norm calculation: 1275.000000 [mu s]
	Time per iteration and DOF: 0.124660 [ns]
	Retrieve results bandwidth 2.958000 [GByte/s]
[OGL LOG][Proc: 0]p: solve_multi_gpu: 1795.795 [ms]
BJcudaGKOCG:  Solving for p, Initial residual = 0.3546662569255931, Final residual = 0.003509738060313024, No Iterations 565
time step continuity errors : sum local = 0.003837579189866315, global = -0.0005637567901742573, cumulative = 0.005981443831815536
smoothSolver:  Solving for nuTilda, Initial residual = 0.01867650300626836, Final residual = 0.001095841974522862, No Iterations 4
ExecutionTime = 382.08 s  ClockTime = 384 s

Time = 25

velocityDampingConstraint velocityDamping damped 2 (0%) of cells, with max limit 300
smoothSolver:  Solving for Ux, Initial residual = 0.008659916620192025, Final residual = 0.0007883711557905378, No Iterations 4
smoothSolver:  Solving for Uy, Initial residual = 0.02328138030835794, Final residual = 0.002082567886982909, No Iterations 4
smoothSolver:  Solving for Uz, Initial residual = 0.023288951633332, Final residual = 0.002040189787929879, No Iterations 4
[OGL LOG][Proc: 0]: global_index_init: 0.655 [ms]
[OGL LOG][Proc: 0]p_local_coeffs: call_update: 0 [ms]
[OGL LOG][Proc: 0]p_non_local_coeffs: call_update: 0 [ms]
[OGL LOG][Proc: 0]p: update_local_matrix_data: 78.622 [ms]
[OGL LOG][Proc: 0]p: update_non_local_matrix_data: 0.583 [ms]
[OGL LOG][Proc: 0]p_matrix: call_update: 3.197 [ms]
[OGL LOG][Proc: 0]p_rhs: call_update: 2.178 [ms]
[OGL LOG][Preconditioner.H:121] Generate preconditioner BJ MaxBlockSize 1
[OGL LOG][Proc: 0]p: init_precond: 1.693 [ms]
[OGL LOG][StoppingCriterion.H:239] Creating stopping criterion with minIter 339 frequency 10
[OGL LOG][Proc: 0]p: generate_solver: 0.014 [ms]
[OGL LOG][Proc: 0]p: solve: 1181.733 [ms]
[OGL LOG][Proc: 0]p: copy_x_back: 5.9 [ms]
[OGL LOG][lduLduBase.H:330] 
Statistics:
	Time per iteration: 3273 [mu s]
	Time per residual norm calculation: 1286.000000 [mu s]
	Time per iteration and DOF: 0.129734 [ns]
	Retrieve results bandwidth 2.858000 [GByte/s]
[OGL LOG][Proc: 0]p: solve_multi_gpu: 1206.971 [ms]
BJcudaGKOCG:  Solving for p, Initial residual = 0.3245891387191927, Final residual = 0.003171635605858924, No Iterations 361
time step continuity errors : sum local = 0.003384219058045746, global = -9.810196201441535e-06, cumulative = 0.005971633635614095
smoothSolver:  Solving for nuTilda, Initial residual = 0.03168846569512922, Final residual = 0.001754726519965794, No Iterations 3
ExecutionTime = 392.27 s  ClockTime = 394 s

Time = 26

velocityDampingConstraint velocityDamping damped 0 (0%) of cells, with max limit 300
smoothSolver:  Solving for Ux, Initial residual = 0.008662849925313442, Final residual = 0.0007848370701125796, No Iterations 4
smoothSolver:  Solving for Uy, Initial residual = 0.02106375342729367, Final residual = 0.001944864640730091, No Iterations 4
smoothSolver:  Solving for Uz, Initial residual = 0.02131020885133331, Final residual = 0.001894806201477509, No Iterations 4
[OGL LOG][Proc: 0]: global_index_init: 0.611 [ms]
[OGL LOG][Proc: 0]p_local_coeffs: call_update: 0 [ms]
[OGL LOG][Proc: 0]p_non_local_coeffs: call_update: 0 [ms]
[OGL LOG][Proc: 0]p: update_local_matrix_data: 84.386 [ms]
[OGL LOG][Proc: 0]p: update_non_local_matrix_data: 0.636 [ms]
[OGL LOG][Proc: 0]p_matrix: call_update: 3.216 [ms]
[OGL LOG][Proc: 0]p_rhs: call_update: 2.016 [ms]
[OGL LOG][Preconditioner.H:121] Generate preconditioner BJ MaxBlockSize 1
[OGL LOG][Proc: 0]p: init_precond: 1.454 [ms]
[OGL LOG][StoppingCriterion.H:239] Creating stopping criterion with minIter 216 frequency 8
[OGL LOG][Proc: 0]p: generate_solver: 0.015 [ms]
[OGL LOG][Proc: 0]p: solve: 2611.492 [ms]
[OGL LOG][Proc: 0]p: copy_x_back: 6.013 [ms]
[OGL LOG][lduLduBase.H:330] 
Statistics:
	Time per iteration: 3196 [mu s]
	Time per residual norm calculation: 1285.000000 [mu s]
	Time per iteration and DOF: 0.126682 [ns]
	Retrieve results bandwidth 2.805000 [GByte/s]
[OGL LOG][Proc: 0]p: solve_multi_gpu: 2630.561 [ms]
BJcudaGKOCG:  Solving for p, Initial residual = 0.3230570245484785, Final residual = 0.003141238047705965, No Iterations 817
time step continuity errors : sum local = 0.002909323365056457, global = 6.526489363198889e-05, cumulative = 0.006036898529246083
smoothSolver:  Solving for nuTilda, Initial residual = 0.0173451946412297, Final residual = 0.001058117691861008, No Iterations 4
ExecutionTime = 403.94 s  ClockTime = 406 s

Time = 27

velocityDampingConstraint velocityDamping damped 0 (0%) of cells, with max limit 300
smoothSolver:  Solving for Ux, Initial residual = 0.007603069944616445, Final residual = 0.000672630805140797, No Iterations 4
smoothSolver:  Solving for Uy, Initial residual = 0.01896836203935154, Final residual = 0.001752092630626089, No Iterations 4
smoothSolver:  Solving for Uz, Initial residual = 0.01948764625945515, Final residual = 0.001707527920495665, No Iterations 4
[OGL LOG][Proc: 0]: global_index_init: 0.627 [ms]
[OGL LOG][Proc: 0]p_local_coeffs: call_update: 0 [ms]
[OGL LOG][Proc: 0]p_non_local_coeffs: call_update: 0 [ms]
[OGL LOG][Proc: 0]p: update_local_matrix_data: 79.03 [ms]
[OGL LOG][Proc: 0]p: update_non_local_matrix_data: 0.571 [ms]
[OGL LOG][Proc: 0]p_matrix: call_update: 3.063 [ms]
[OGL LOG][Proc: 0]p_rhs: call_update: 2.331 [ms]
[OGL LOG][Preconditioner.H:121] Generate preconditioner BJ MaxBlockSize 1
[OGL LOG][Proc: 0]p: init_precond: 1.763 [ms]
[OGL LOG][StoppingCriterion.H:239] Creating stopping criterion with minIter 490 frequency 12
[OGL LOG][Proc: 0]p: generate_solver: 0.02 [ms]
[OGL LOG][Proc: 0]p: solve: 2347.662 [ms]
[OGL LOG][Proc: 0]p: copy_x_back: 5.857 [ms]
[OGL LOG][lduLduBase.H:330] 
Statistics:
	Time per iteration: 3551 [mu s]
	Time per residual norm calculation: 1279.000000 [mu s]
	Time per iteration and DOF: 0.140753 [ns]
	Retrieve results bandwidth 2.879000 [GByte/s]
[OGL LOG][Proc: 0]p: solve_multi_gpu: 2372.44 [ms]
BJcudaGKOCG:  Solving for p, Initial residual = 0.2280544003986852, Final residual = 0.002236683438772512, No Iterations 661
time step continuity errors : sum local = 0.002591106947239792, global = 0.0001953861059611079, cumulative = 0.006232284635207191
smoothSolver:  Solving for nuTilda, Initial residual = 0.03059894902670006, Final residual = 0.001685300739931027, No Iterations 3
ExecutionTime = 415.3 s  ClockTime = 417 s

Time = 28

velocityDampingConstraint velocityDamping damped 0 (0%) of cells, with max limit 300
smoothSolver:  Solving for Ux, Initial residual = 0.006929752974345824, Final residual = 0.0006059324539697437, No Iterations 4
smoothSolver:  Solving for Uy, Initial residual = 0.01873188216050831, Final residual = 0.001701603896561304, No Iterations 4
smoothSolver:  Solving for Uz, Initial residual = 0.01959277336835876, Final residual = 0.001718122164721778, No Iterations 4
[OGL LOG][Proc: 0]: global_index_init: 3.918 [ms]
[OGL LOG][Proc: 0]p_local_coeffs: call_update: 0 [ms]
[OGL LOG][Proc: 0]p_non_local_coeffs: call_update: 0 [ms]
[OGL LOG][Proc: 0]p: update_local_matrix_data: 84.955 [ms]
[OGL LOG][Proc: 0]p: update_non_local_matrix_data: 0.534 [ms]
[OGL LOG][Proc: 0]p_matrix: call_update: 3.23 [ms]
[OGL LOG][Proc: 0]p_rhs: call_update: 2.453 [ms]
[OGL LOG][Preconditioner.H:121] Generate preconditioner BJ MaxBlockSize 1
[OGL LOG][Proc: 0]p: init_precond: 1.547 [ms]
[OGL LOG][StoppingCriterion.H:239] Creating stopping criterion with minIter 396 frequency 11
[OGL LOG][Proc: 0]p: generate_solver: 0.019 [ms]
[OGL LOG][Proc: 0]p: solve: 1355.985 [ms]
[OGL LOG][Proc: 0]p: copy_x_back: 5.656 [ms]
[OGL LOG][lduLduBase.H:330] 
Statistics:
	Time per iteration: 3236 [mu s]
	Time per residual norm calculation: 1287.000000 [mu s]
	Time per iteration and DOF: 0.128267 [ns]
	Retrieve results bandwidth 2.982000 [GByte/s]
[OGL LOG][Proc: 0]p: solve_multi_gpu: 1374.173 [ms]
BJcudaGKOCG:  Solving for p, Initial residual = 0.1990699804455553, Final residual = 0.00198672465689472, No Iterations 419
time step continuity errors : sum local = 0.002416198753968605, global = -0.0003726602037007624, cumulative = 0.005859624431506429
smoothSolver:  Solving for nuTilda, Initial residual = 0.01602393665478739, Final residual = 0.00101521580897803, No Iterations 4
ExecutionTime = 425.78 s  ClockTime = 428 s

Time = 29

velocityDampingConstraint velocityDamping damped 0 (0%) of cells, with max limit 300
smoothSolver:  Solving for Ux, Initial residual = 0.006772784667308912, Final residual = 0.0005876573591381517, No Iterations 4
smoothSolver:  Solving for Uy, Initial residual = 0.01881986019155433, Final residual = 0.001719728470536705, No Iterations 4
smoothSolver:  Solving for Uz, Initial residual = 0.0193491720809623, Final residual = 0.001709584257023179, No Iterations 4
[OGL LOG][Proc: 0]: global_index_init: 0.5 [ms]
[OGL LOG][Proc: 0]p_local_coeffs: call_update: 0 [ms]
[OGL LOG][Proc: 0]p_non_local_coeffs: call_update: 0 [ms]
[OGL LOG][Proc: 0]p: update_local_matrix_data: 78.858 [ms]
[OGL LOG][Proc: 0]p: update_non_local_matrix_data: 0.5659999999999999 [ms]
[OGL LOG][Proc: 0]p_matrix: call_update: 3.266 [ms]
[OGL LOG][Proc: 0]p_rhs: call_update: 2.248 [ms]
[OGL LOG][Preconditioner.H:121] Generate preconditioner BJ MaxBlockSize 1
[OGL LOG][Proc: 0]p: init_precond: 1.691 [ms]
[OGL LOG][StoppingCriterion.H:239] Creating stopping criterion with minIter 251 frequency 9
[OGL LOG][Proc: 0]p: generate_solver: 0.014 [ms]
[OGL LOG][Proc: 0]p: solve: 2513.857 [ms]
[OGL LOG][Proc: 0]p: copy_x_back: 6.026 [ms]
[OGL LOG][lduLduBase.H:330] 
Statistics:
	Time per iteration: 3170 [mu s]
	Time per residual norm calculation: 1429.000000 [mu s]
	Time per iteration and DOF: 0.125651 [ns]
	Retrieve results bandwidth 2.799000 [GByte/s]
[OGL LOG][Proc: 0]p: solve_multi_gpu: 2539.552 [ms]
BJcudaGKOCG:  Solving for p, Initial residual = 0.1742543864525017, Final residual = 0.001678494637661799, No Iterations 793
time step continuity errors : sum local = 0.002097026153073393, global = -7.157905291041647e-05, cumulative = 0.005788045378596013
smoothSolver:  Solving for nuTilda, Initial residual = 0.02854869891373593, Final residual = 0.00161687447774995, No Iterations 3
ExecutionTime = 437.26 s  ClockTime = 439 s

Time = 30

velocityDampingConstraint velocityDamping damped 0 (0%) of cells, with max limit 300
smoothSolver:  Solving for Ux, Initial residual = 0.006531510642528227, Final residual = 0.0005811656623687316, No Iterations 4
smoothSolver:  Solving for Uy, Initial residual = 0.01863011083630547, Final residual = 0.001707856129214944, No Iterations 4
smoothSolver:  Solving for Uz, Initial residual = 0.01876269766973648, Final residual = 0.001651651026649611, No Iterations 4
[OGL LOG][Proc: 0]: global_index_init: 1.037 [ms]
[OGL LOG][Proc: 0]p_local_coeffs: call_update: 0 [ms]
[OGL LOG][Proc: 0]p_non_local_coeffs: call_update: 0 [ms]
[OGL LOG][Proc: 0]p: update_local_matrix_data: 80.768 [ms]
[OGL LOG][Proc: 0]p: update_non_local_matrix_data: 0.666 [ms]
[OGL LOG][Proc: 0]p_matrix: call_update: 3.574 [ms]
[OGL LOG][Proc: 0]p_rhs: call_update: 1.908 [ms]
[OGL LOG][Preconditioner.H:121] Generate preconditioner BJ MaxBlockSize 1
[OGL LOG][Proc: 0]p: init_precond: 1.491 [ms]
[OGL LOG][StoppingCriterion.H:239] Creating stopping criterion with minIter 475 frequency 12
[OGL LOG][Proc: 0]p: generate_solver: 0.016 [ms]
[OGL LOG][Proc: 0]p: solve: 1537.859 [ms]
[OGL LOG][Proc: 0]p: copy_x_back: 5.716 [ms]
[OGL LOG][lduLduBase.H:330] 
Statistics:
	Time per iteration: 3197 [mu s]
	Time per residual norm calculation: 1288.000000 [mu s]
	Time per iteration and DOF: 0.126722 [ns]
	Retrieve results bandwidth 2.950000 [GByte/s]
[OGL LOG][Proc: 0]p: solve_multi_gpu: 1558.459 [ms]
BJcudaGKOCG:  Solving for p, Initial residual = 0.2517143351813775, Final residual = 0.001232898733838276, No Iterations 481
time step continuity errors : sum local = 0.0009635037644154888, global = -0.0001832395565747693, cumulative = 0.005604805822021244
smoothSolver:  Solving for nuTilda, Initial residual = 0.01486155035578275, Final residual = 0.0009723313731713431, No Iterations 4
ExecutionTime = 447.79 s  ClockTime = 450 s

Time = 31

velocityDampingConstraint velocityDamping damped 0 (0%) of cells, with max limit 300
smoothSolver:  Solving for Ux, Initial residual = 0.006494673750065656, Final residual = 0.0005800982040797807, No Iterations 4
smoothSolver:  Solving for Uy, Initial residual = 0.01801489064083019, Final residual = 0.001665183071834396, No Iterations 4
smoothSolver:  Solving for Uz, Initial residual = 0.01819329349399723, Final residual = 0.001605352411495178, No Iterations 4
[OGL LOG][Proc: 0]: global_index_init: 0.634 [ms]
[OGL LOG][Proc: 0]p_local_coeffs: call_update: 0 [ms]
[OGL LOG][Proc: 0]p_non_local_coeffs: call_update: 0 [ms]
[OGL LOG][Proc: 0]p: update_local_matrix_data: 81.887 [ms]
[OGL LOG][Proc: 0]p: update_non_local_matrix_data: 0.529 [ms]
[OGL LOG][Proc: 0]p_matrix: call_update: 3.493 [ms]
[OGL LOG][Proc: 0]p_rhs: call_update: 4.139 [ms]
[OGL LOG][Preconditioner.H:121] Generate preconditioner BJ MaxBlockSize 1
[OGL LOG][Proc: 0]p: init_precond: 2.14 [ms]
[OGL LOG][StoppingCriterion.H:239] Creating stopping criterion with minIter 288 frequency 9
[OGL LOG][Proc: 0]p: generate_solver: 0.015 [ms]
[OGL LOG][Proc: 0]p: solve: 2429.423 [ms]
[OGL LOG][Proc: 0]p: copy_x_back: 5.835 [ms]
[OGL LOG][lduLduBase.H:330] 
Statistics:
	Time per iteration: 3247 [mu s]
	Time per residual norm calculation: 988.000000 [mu s]
	Time per iteration and DOF: 0.128703 [ns]
	Retrieve results bandwidth 2.890000 [GByte/s]
[OGL LOG][Proc: 0]p: solve_multi_gpu: 2456.675 [ms]
BJcudaGKOCG:  Solving for p, Initial residual = 0.2490858201043512, Final residual = 0.00239250784972682, No Iterations 748
time step continuity errors : sum local = 0.001715963593185662, global = 6.263240709091777e-05, cumulative = 0.005667438229112161
smoothSolver:  Solving for nuTilda, Initial residual = 0.02662878892253554, Final residual = 0.001554501254178497, No Iterations 3
ExecutionTime = 459.22 s  ClockTime = 461 s

Time = 32

velocityDampingConstraint velocityDamping damped 0 (0%) of cells, with max limit 300
smoothSolver:  Solving for Ux, Initial residual = 0.006320346122072284, Final residual = 0.0005633126813062567, No Iterations 4
smoothSolver:  Solving for Uy, Initial residual = 0.01698331811617645, Final residual = 0.001572726890811254, No Iterations 4
smoothSolver:  Solving for Uz, Initial residual = 0.01708580000384837, Final residual = 0.001535349370795112, No Iterations 4
[OGL LOG][Proc: 0]: global_index_init: 0.843 [ms]
[OGL LOG][Proc: 0]p_local_coeffs: call_update: 0 [ms]
[OGL LOG][Proc: 0]p_non_local_coeffs: call_update: 0 [ms]
[OGL LOG][Proc: 0]p: update_local_matrix_data: 80.694 [ms]
[OGL LOG][Proc: 0]p: update_non_local_matrix_data: 0.613 [ms]
[OGL LOG][Proc: 0]p_matrix: call_update: 3.061 [ms]
[OGL LOG][Proc: 0]p_rhs: call_update: 2.27 [ms]
[OGL LOG][Preconditioner.H:121] Generate preconditioner BJ MaxBlockSize 1
[OGL LOG][Proc: 0]p: init_precond: 1.615 [ms]
[OGL LOG][StoppingCriterion.H:239] Creating stopping criterion with minIter 448 frequency 9
[OGL LOG][Proc: 0]p: generate_solver: 0.015 [ms]
[OGL LOG][Proc: 0]p: solve: 2276.913 [ms]
[OGL LOG][Proc: 0]p: copy_x_back: 5.764 [ms]
[OGL LOG][lduLduBase.H:330] 
Statistics:
	Time per iteration: 3157 [mu s]
	Time per residual norm calculation: 1430.000000 [mu s]
	Time per iteration and DOF: 0.125136 [ns]
	Retrieve results bandwidth 2.926000 [GByte/s]
[OGL LOG][Proc: 0]p: solve_multi_gpu: 2299.675 [ms]
BJcudaGKOCG:  Solving for p, Initial residual = 0.2171854309782682, Final residual = 0.00206895772230489, No Iterations 721
time step continuity errors : sum local = 0.001547070472325811, global = 9.984679620050922e-05, cumulative = 0.00576728502531267
smoothSolver:  Solving for nuTilda, Initial residual = 0.01389013250863087, Final residual = 0.0009334385371320852, No Iterations 4
ExecutionTime = 470.46 s  ClockTime = 473 s

Time = 33

velocityDampingConstraint velocityDamping damped 0 (0%) of cells, with max limit 300
smoothSolver:  Solving for Ux, Initial residual = 0.005885317413100832, Final residual = 0.000520154627908788, No Iterations 4
smoothSolver:  Solving for Uy, Initial residual = 0.01633465821453207, Final residual = 0.001506847438818926, No Iterations 4
smoothSolver:  Solving for Uz, Initial residual = 0.01633315628604777, Final residual = 0.00148454507134409, No Iterations 4
[OGL LOG][Proc: 0]: global_index_init: 0.395 [ms]
[OGL LOG][Proc: 0]p_local_coeffs: call_update: 0 [ms]
[OGL LOG][Proc: 0]p_non_local_coeffs: call_update: 0 [ms]
[OGL LOG][Proc: 0]p: update_local_matrix_data: 81.238 [ms]
[OGL LOG][Proc: 0]p: update_non_local_matrix_data: 0.617 [ms]
[OGL LOG][Proc: 0]p_matrix: call_update: 2.928 [ms]
[OGL LOG][Proc: 0]p_rhs: call_update: 2.67 [ms]
[OGL LOG][Preconditioner.H:121] Generate preconditioner BJ MaxBlockSize 1
[OGL LOG][Proc: 0]p: init_precond: 1.801 [ms]
[OGL LOG][StoppingCriterion.H:239] Creating stopping criterion with minIter 432 frequency 12
[OGL LOG][Proc: 0]p: generate_solver: 0.025 [ms]
[OGL LOG][Proc: 0]p: solve: 1378.548 [ms]
[OGL LOG][Proc: 0]p: copy_x_back: 5.808 [ms]
[OGL LOG][lduLduBase.H:330] 
Statistics:
	Time per iteration: 3183 [mu s]
	Time per residual norm calculation: 1273.000000 [mu s]
	Time per iteration and DOF: 0.126167 [ns]
	Retrieve results bandwidth 2.904000 [GByte/s]
[OGL LOG][Proc: 0]p: solve_multi_gpu: 1403.076 [ms]
BJcudaGKOCG:  Solving for p, Initial residual = 0.1558230913445012, Final residual = 0.0007359539788378265, No Iterations 433
time step continuity errors : sum local = 0.0007014113376507517, global = 0.000159049830135198, cumulative = 0.005926334855447868
smoothSolver:  Solving for nuTilda, Initial residual = 0.02495351705183525, Final residual = 0.001496200759147631, No Iterations 3
ExecutionTime = 480.88 s  ClockTime = 483 s

Time = 34

velocityDampingConstraint velocityDamping damped 0 (0%) of cells, with max limit 300
smoothSolver:  Solving for Ux, Initial residual = 0.00553401550316168, Final residual = 0.0004924588312567083, No Iterations 4
smoothSolver:  Solving for Uy, Initial residual = 0.01624514639384177, Final residual = 0.001500633057290795, No Iterations 4
smoothSolver:  Solving for Uz, Initial residual = 0.01622652509517681, Final residual = 0.001492902871739478, No Iterations 4
[OGL LOG][Proc: 0]: global_index_init: 0.914 [ms]
[OGL LOG][Proc: 0]p_local_coeffs: call_update: 0 [ms]
[OGL LOG][Proc: 0]p_non_local_coeffs: call_update: 0 [ms]
[OGL LOG][Proc: 0]p: update_local_matrix_data: 82.94199999999999 [ms]
[OGL LOG][Proc: 0]p: update_non_local_matrix_data: 0.586 [ms]
[OGL LOG][Proc: 0]p_matrix: call_update: 3.307 [ms]
[OGL LOG][Proc: 0]p_rhs: call_update: 1.964 [ms]
[OGL LOG][Preconditioner.H:121] Generate preconditioner BJ MaxBlockSize 1
[OGL LOG][Proc: 0]p: init_precond: 1.494 [ms]
[OGL LOG][StoppingCriterion.H:239] Creating stopping criterion with minIter 259 frequency 9
[OGL LOG][Proc: 0]p: generate_solver: 0.017 [ms]
[OGL LOG][Proc: 0]p: solve: 1006.771 [ms]
[OGL LOG][Proc: 0]p: copy_x_back: 5.766 [ms]
[OGL LOG][lduLduBase.H:330] 
Statistics:
	Time per iteration: 3378 [mu s]
	Time per residual norm calculation: 1285.000000 [mu s]
	Time per iteration and DOF: 0.133896 [ns]
	Retrieve results bandwidth 2.925000 [GByte/s]
[OGL LOG][Proc: 0]p: solve_multi_gpu: 1027.457 [ms]
BJcudaGKOCG:  Solving for p, Initial residual = 0.1449714248883098, Final residual = 0.00143034646446381, No Iterations 298
time step continuity errors : sum local = 0.001351725131345107, global = -0.0001221042603631085, cumulative = 0.00580423059508476
smoothSolver:  Solving for nuTilda, Initial residual = 0.01304263029881612, Final residual = 0.0008950065650445393, No Iterations 4
ExecutionTime = 490.95 s  ClockTime = 493 s

Time = 35

velocityDampingConstraint velocityDamping damped 0 (0%) of cells, with max limit 300
smoothSolver:  Solving for Ux, Initial residual = 0.005460889487724205, Final residual = 0.0004848867209002753, No Iterations 4
smoothSolver:  Solving for Uy, Initial residual = 0.01618278661163636, Final residual = 0.001507968535156472, No Iterations 4
smoothSolver:  Solving for Uz, Initial residual = 0.01622025166368266, Final residual = 0.001496839331909221, No Iterations 4
[OGL LOG][Proc: 0]: global_index_init: 0.3 [ms]
[OGL LOG][Proc: 0]p_local_coeffs: call_update: 0 [ms]
[OGL LOG][Proc: 0]p_non_local_coeffs: call_update: 0 [ms]
[OGL LOG][Proc: 0]p: update_local_matrix_data: 79.306 [ms]
[OGL LOG][Proc: 0]p: update_non_local_matrix_data: 0.608 [ms]
[OGL LOG][Proc: 0]p_matrix: call_update: 3.386 [ms]
[OGL LOG][Proc: 0]p_rhs: call_update: 2.382 [ms]
[OGL LOG][Preconditioner.H:121] Generate preconditioner BJ MaxBlockSize 1
[OGL LOG][Proc: 0]p: init_precond: 1.701 [ms]
[OGL LOG][StoppingCriterion.H:239] Creating stopping criterion with minIter 178 frequency 7
[...]
[OGL LOG][Proc: 0]p: copy_x_back: 5.654 [ms]
[OGL LOG][lduLduBase.H:330] 
Statistics:
	Time per iteration: 3735 [mu s]
	Time per residual norm calculation: 1287.000000 [mu s]
	Time per iteration and DOF: 0.148047 [ns]
	Retrieve results bandwidth 2.983000 [GByte/s]
[OGL LOG][Proc: 0]p: solve_multi_gpu: 616.712 [ms]
BJcudaGKOCG:  Solving for p, Initial residual = 0.04575812853948093, Final residual = 0.0004550859442346364, No Iterations 157
time step continuity errors : sum local = 0.0003295223575659767, global = 4.258324702943256e-05, cumulative = 0.005573396350582334
smoothSolver:  Solving for nuTilda, Initial residual = 0.006349715868159568, Final residual = 0.0004701535621734819, No Iterations 4
ExecutionTime = 1068.15 s  ClockTime = 1072 s

Time = 91

velocityDampingConstraint velocityDamping damped 0 (0%) of cells, with max limit 300
smoothSolver:  Solving for Ux, Initial residual = 0.002790154000049108, Final residual = 0.0002746700726286949, No Iterations 4
smoothSolver:  Solving for Uy, Initial residual = 0.01165527620440102, Final residual = 0.001150700566313475, No Iterations 4
smoothSolver:  Solving for Uz, Initial residual = 0.0127255159964701, Final residual = 0.001272466491770789, No Iterations 4
[OGL LOG][Proc: 0]: global_index_init: 0.504 [ms]
[OGL LOG][Proc: 0]p_local_coeffs: call_update: 0 [ms]
[OGL LOG][Proc: 0]p_non_local_coeffs: call_update: 0 [ms]
[OGL LOG][Proc: 0]p: update_local_matrix_data: 81.06999999999999 [ms]
[OGL LOG][Proc: 0]p: update_non_local_matrix_data: 0.575 [ms]
[OGL LOG][Proc: 0]p_matrix: call_update: 3.391 [ms]
[OGL LOG][Proc: 0]p_rhs: call_update: 1.877 [ms]
[OGL LOG][Preconditioner.H:121] Generate preconditioner BJ MaxBlockSize 1
[OGL LOG][Proc: 0]p: init_precond: 1.652 [ms]
[OGL LOG][StoppingCriterion.H:239] Creating stopping criterion with minIter 94 frequency 5
[OGL LOG][Proc: 0]p: generate_solver: 0.02 [ms]
[OGL LOG][Proc: 0]p: solve: 2125.274 [ms]
[OGL LOG][Proc: 0]p: copy_x_back: 6.034 [ms]
[OGL LOG][lduLduBase.H:330] 
Statistics:
	Time per iteration: 3315 [mu s]
	Time per residual norm calculation: 1278.000000 [mu s]
	Time per iteration and DOF: 0.131399 [ns]
	Retrieve results bandwidth 2.795000 [GByte/s]
[OGL LOG][Proc: 0]p: solve_multi_gpu: 2145.508 [ms]
BJcudaGKOCG:  Solving for p, Initial residual = 0.04513803467751999, Final residual = 0.0004366018694989102, No Iterations 641
time step continuity errors : sum local = 0.0003154373890903557, global = 3.43882432364904e-07, cumulative = 0.005573740233014698
smoothSolver:  Solving for nuTilda, Initial residual = 0.009401841064048531, Final residual = 0.0008196986014595843, No Iterations 3
ExecutionTime = 1079.2 s  ClockTime = 1083 s

Time = 92

velocityDampingConstraint velocityDamping damped 0 (0%) of cells, with max limit 300
smoothSolver:  Solving for Ux, Initial residual = 0.002743069858307911, Final residual = 0.000271650676892667, No Iterations 4
smoothSolver:  Solving for Uy, Initial residual = 0.01168742580291223, Final residual = 0.001154465421032611, No Iterations 4
smoothSolver:  Solving for Uz, Initial residual = 0.01276736653615438, Final residual = 0.0007639201956683773, No Iterations 5
[OGL LOG][Proc: 0]: global_index_init: 0.746 [ms]
[OGL LOG][Proc: 0]p_local_coeffs: call_update: 0 [ms]
[OGL LOG][Proc: 0]p_non_local_coeffs: call_update: 0 [ms]
[OGL LOG][Proc: 0]p: update_local_matrix_data: 81.373 [ms]
[OGL LOG][Proc: 0]p: update_non_local_matrix_data: 0.579 [ms]
[OGL LOG][Proc: 0]p_matrix: call_update: 2.779 [ms]
[OGL LOG][Proc: 0]p_rhs: call_update: 2.846 [ms]
[OGL LOG][Preconditioner.H:121] Generate preconditioner BJ MaxBlockSize 1
[OGL LOG][Proc: 0]p: init_precond: 1.849 [ms]
[OGL LOG][StoppingCriterion.H:239] Creating stopping criterion with minIter 384 frequency 11
[OGL LOG][Proc: 0]p: generate_solver: 0.016 [ms]
[OGL LOG][Proc: 0]p: solve: 1243.56 [ms]
[OGL LOG][Proc: 0]p: copy_x_back: 5.712 [ms]
[OGL LOG][lduLduBase.H:330] 
Statistics:
	Time per iteration: 3221 [mu s]
	Time per residual norm calculation: 1430.000000 [mu s]
	Time per iteration and DOF: 0.127673 [ns]
	Retrieve results bandwidth 2.952000 [GByte/s]
[OGL LOG][Proc: 0]p: solve_multi_gpu: 1263.748 [ms]
BJcudaGKOCG:  Solving for p, Initial residual = 0.04329745976889501, Final residual = 0.0001940364432526035, No Iterations 386
time step continuity errors : sum local = 0.0001476571188776831, global = -1.405371343029113e-05, cumulative = 0.005559686519584407
smoothSolver:  Solving for nuTilda, Initial residual = 0.006290831332227264, Final residual = 0.0004687440194828315, No Iterations 4
ExecutionTime = 1089.45 s  ClockTime = 1093 s

Time = 93

velocityDampingConstraint velocityDamping damped 0 (0%) of cells, with max limit 300
smoothSolver:  Solving for Ux, Initial residual = 0.002745549390636723, Final residual = 0.0002703669839614889, No Iterations 4
smoothSolver:  Solving for Uy, Initial residual = 0.01171615975116368, Final residual = 0.001159453796340003, No Iterations 4
smoothSolver:  Solving for Uz, Initial residual = 0.01268845186076873, Final residual = 0.001266535070766441, No Iterations 4
[OGL LOG][Proc: 0]: global_index_init: 0.182 [ms]
[OGL LOG][Proc: 0]p_local_coeffs: call_update: 0 [ms]
[OGL LOG][Proc: 0]p_non_local_coeffs: call_update: 0 [ms]
[OGL LOG][Proc: 0]p: update_local_matrix_data: 71.354 [ms]
[OGL LOG][Proc: 0]p: update_non_local_matrix_data: 0.611 [ms]
[OGL LOG][Proc: 0]p_matrix: call_update: 3.772 [ms]
[OGL LOG][Proc: 0]p_rhs: call_update: 1.983 [ms]
[OGL LOG][Preconditioner.H:121] Generate preconditioner BJ MaxBlockSize 1
[OGL LOG][Proc: 0]p: init_precond: 1.725 [ms]
[OGL LOG][StoppingCriterion.H:239] Creating stopping criterion with minIter 231 frequency 8
[OGL LOG][Proc: 0]p: generate_solver: 0.02 [ms]
[OGL LOG][Proc: 0]p: solve: 1970.141 [ms]
[OGL LOG][Proc: 0]p: copy_x_back: 5.693 [ms]
[OGL LOG][lduLduBase.H:330] 
Statistics:
	Time per iteration: 3235 [mu s]
	Time per residual norm calculation: 987.000000 [mu s]
	Time per iteration and DOF: 0.128228 [ns]
	Retrieve results bandwidth 2.962000 [GByte/s]
[OGL LOG][Proc: 0]p: solve_multi_gpu: 1998.647 [ms]
BJcudaGKOCG:  Solving for p, Initial residual = 0.04243296938474878, Final residual = 0.0004192099253652876, No Iterations 609
time step continuity errors : sum local = 0.0003165247291923959, global = -1.181623079670493e-06, cumulative = 0.005558504896504736
smoothSolver:  Solving for nuTilda, Initial residual = 0.009194797501822918, Final residual = 0.0008184270498987121, No Iterations 3
ExecutionTime = 1100.22 s  ClockTime = 1104 s

Time = 94

velocityDampingConstraint velocityDamping damped 0 (0%) of cells, with max limit 300
smoothSolver:  Solving for Ux, Initial residual = 0.00271196056068296, Final residual = 0.0002688237008102285, No Iterations 4
smoothSolver:  Solving for Uy, Initial residual = 0.01171268967388133, Final residual = 0.001162315891199222, No Iterations 4
smoothSolver:  Solving for Uz, Initial residual = 0.01274498710729265, Final residual = 0.001271468186513721, No Iterations 4
[OGL LOG][Proc: 0]: global_index_init: 0.405 [ms]
[OGL LOG][Proc: 0]p_local_coeffs: call_update: 0 [ms]
[OGL LOG][Proc: 0]p_non_local_coeffs: call_update: 0 [ms]
[OGL LOG][Proc: 0]p: update_local_matrix_data: 84.139 [ms]
[OGL LOG][Proc: 0]p: update_non_local_matrix_data: 0.532 [ms]
[OGL LOG][Proc: 0]p_matrix: call_update: 3.367 [ms]
[OGL LOG][Proc: 0]p_rhs: call_update: 2.055 [ms]
[OGL LOG][Preconditioner.H:121] Generate preconditioner BJ MaxBlockSize 1
[OGL LOG][Proc: 0]p: init_precond: 1.621 [ms]
[OGL LOG][StoppingCriterion.H:239] Creating stopping criterion with minIter 365 frequency 9
[OGL LOG][Proc: 0]p: generate_solver: 0.013 [ms]
[OGL LOG][Proc: 0]p: solve: 2074.315 [ms]
[OGL LOG][Proc: 0]p: copy_x_back: 5.761 [ms]
[OGL LOG][lduLduBase.H:330] 
Statistics:
	Time per iteration: 3152 [mu s]
	Time per residual norm calculation: 1434.000000 [mu s]
	Time per iteration and DOF: 0.124938 [ns]
	Retrieve results bandwidth 2.927000 [GByte/s]
[OGL LOG][Proc: 0]p: solve_multi_gpu: 2095.015 [ms]
BJcudaGKOCG:  Solving for p, Initial residual = 0.04348440559743285, Final residual = 0.0004159395779035045, No Iterations 658
time step continuity errors : sum local = 0.0003016929464041943, global = -1.258384068985857e-05, cumulative = 0.005545921055814878
smoothSolver:  Solving for nuTilda, Initial residual = 0.006227077505213851, Final residual = 0.0004673693314547238, No Iterations 4
ExecutionTime = 1111.24 s  ClockTime = 1115 s

Time = 95

velocityDampingConstraint velocityDamping damped 0 (0%) of cells, with max limit 300
smoothSolver:  Solving for Ux, Initial residual = 0.002723344249027931, Final residual = 0.0002683153069216933, No Iterations 4
smoothSolver:  Solving for Uy, Initial residual = 0.01171449295749846, Final residual = 0.001164500510762087, No Iterations 4
smoothSolver:  Solving for Uz, Initial residual = 0.01281520153921951, Final residual = 0.001279086100719433, No Iterations 4
[OGL LOG][Proc: 0]: global_index_init: 0.124 [ms]
[OGL LOG][Proc: 0]p_local_coeffs: call_update: 0 [ms]
[OGL LOG][Proc: 0]p_non_local_coeffs: call_update: 0 [ms]
[OGL LOG][Proc: 0]p: update_local_matrix_data: 77.383 [ms]
[OGL LOG][Proc: 0]p: update_non_local_matrix_data: 0.665 [ms]
[OGL LOG][Proc: 0]p_matrix: call_update: 3.239 [ms]
[OGL LOG][Proc: 0]p_rhs: call_update: 2.205 [ms]
[OGL LOG][Preconditioner.H:121] Generate preconditioner BJ MaxBlockSize 1
[OGL LOG][Proc: 0]p: init_precond: 1.723 [ms]
[OGL LOG][StoppingCriterion.H:239] Creating stopping criterion with minIter 394 frequency 11
[OGL LOG][Proc: 0]p: generate_solver: 0.017 [ms]
[OGL LOG][Proc: 0]p: solve: 1285.823 [ms]
[OGL LOG][Proc: 0]p: copy_x_back: 5.983 [ms]
[OGL LOG][lduLduBase.H:330] 
Statistics:
	Time per iteration: 3238 [mu s]
	Time per residual norm calculation: 1288.000000 [mu s]
	Time per iteration and DOF: 0.128347 [ns]
	Retrieve results bandwidth 2.819000 [GByte/s]
[OGL LOG][Proc: 0]p: solve_multi_gpu: 1310.094 [ms]
BJcudaGKOCG:  Solving for p, Initial residual = 0.04336593222335606, Final residual = 0.0002584067910679672, No Iterations 397
time step continuity errors : sum local = 0.0001842888011902056, global = 2.099236877045802e-05, cumulative = 0.005566913424585335
smoothSolver:  Solving for nuTilda, Initial residual = 0.008992216922034351, Final residual = 0.0008168003683829095, No Iterations 3
ExecutionTime = 1121.47 s  ClockTime = 1125 s

Time = 96

velocityDampingConstraint velocityDamping damped 0 (0%) of cells, with max limit 300
smoothSolver:  Solving for Ux, Initial residual = 0.00270069351539012, Final residual = 0.0002668865161508134, No Iterations 4
smoothSolver:  Solving for Uy, Initial residual = 0.01172428446199858, Final residual = 0.001167865818813214, No Iterations 4
smoothSolver:  Solving for Uz, Initial residual = 0.01286113660390557, Final residual = 0.001283901217434697, No Iterations 4
[OGL LOG][Proc: 0]: global_index_init: 0.46 [ms]
[OGL LOG][Proc: 0]p_local_coeffs: call_update: 0 [ms]
[OGL LOG][Proc: 0]p_non_local_coeffs: call_update: 0 [ms]
[OGL LOG][Proc: 0]p: update_local_matrix_data: 85.848 [ms]
[OGL LOG][Proc: 0]p: update_non_local_matrix_data: 0.577 [ms]
[OGL LOG][Proc: 0]p_matrix: call_update: 2.881 [ms]
[OGL LOG][Proc: 0]p_rhs: call_update: 2.466 [ms]
[OGL LOG][Preconditioner.H:121] Generate preconditioner BJ MaxBlockSize 1
[OGL LOG][Proc: 0]p: init_precond: 1.798 [ms]
[OGL LOG][StoppingCriterion.H:239] Creating stopping criterion with minIter 238 frequency 8
[OGL LOG][Proc: 0]p: generate_solver: 0.018 [ms]
[OGL LOG][Proc: 0]p: solve: 2041.372 [ms]
[OGL LOG][Proc: 0]p: copy_x_back: 5.805 [ms]
[OGL LOG][lduLduBase.H:330] 
Statistics:
	Time per iteration: 3858 [mu s]
	Time per residual norm calculation: 1428.000000 [mu s]
	Time per iteration and DOF: 0.152922 [ns]
	Retrieve results bandwidth 2.905000 [GByte/s]
[OGL LOG][Proc: 0]p: solve_multi_gpu: 2059.318 [ms]
BJcudaGKOCG:  Solving for p, Initial residual = 0.04278457717966672, Final residual = 0.000423517515144098, No Iterations 529
time step continuity errors : sum local = 0.0003025276273134396, global = -4.940523917105687e-06, cumulative = 0.005561972900668229
smoothSolver:  Solving for nuTilda, Initial residual = 0.006160297906198034, Final residual = 0.0004658829381545243, No Iterations 4
ExecutionTime = 1132.42 s  ClockTime = 1136 s

Time = 97

velocityDampingConstraint velocityDamping damped 0 (0%) of cells, with max limit 300
smoothSolver:  Solving for Ux, Initial residual = 0.002699480960457672, Final residual = 0.00026535745611599, No Iterations 4
smoothSolver:  Solving for Uy, Initial residual = 0.01174416308296682, Final residual = 0.001172023479594215, No Iterations 4
smoothSolver:  Solving for Uz, Initial residual = 0.01282380264601245, Final residual = 0.001279692160857103, No Iterations 4
[OGL LOG][Proc: 0]: global_index_init: 0.14 [ms]
[OGL LOG][Proc: 0]p_local_coeffs: call_update: 0 [ms]
[OGL LOG][Proc: 0]p_non_local_coeffs: call_update: 0 [ms]
[OGL LOG][Proc: 0]p: update_local_matrix_data: 78.242 [ms]
[OGL LOG][Proc: 0]p: update_non_local_matrix_data: 0.584 [ms]
[OGL LOG][Proc: 0]p_matrix: call_update: 2.409 [ms]
[OGL LOG][Proc: 0]p_rhs: call_update: 2.879 [ms]
[OGL LOG][Preconditioner.H:121] Generate preconditioner BJ MaxBlockSize 1
[OGL LOG][Proc: 0]p: init_precond: 1.806 [ms]
[OGL LOG][StoppingCriterion.H:239] Creating stopping criterion with minIter 317 frequency 10
[OGL LOG][Proc: 0]p: generate_solver: 0.015 [ms]
[OGL LOG][Proc: 0]p: solve: 1072.058 [ms]
[OGL LOG][Proc: 0]p: copy_x_back: 5.976 [ms]
[OGL LOG][lduLduBase.H:330] 
Statistics:
	Time per iteration: 3339 [mu s]
	Time per residual norm calculation: 1290.000000 [mu s]
	Time per iteration and DOF: 0.132350 [ns]
	Retrieve results bandwidth 2.822000 [GByte/s]
[OGL LOG][Proc: 0]p: solve_multi_gpu: 1095.747 [ms]
BJcudaGKOCG:  Solving for p, Initial residual = 0.04083019873366867, Final residual = 0.0002849000684592371, No Iterations 321
time step continuity errors : sum local = 0.0002102882610063451, global = 2.767957811808552e-05, cumulative = 0.005589652478786315
smoothSolver:  Solving for nuTilda, Initial residual = 0.008793484911833257, Final residual = 0.0008143452465078209, No Iterations 3
ExecutionTime = 1142.47 s  ClockTime = 1146 s

Time = 98

velocityDampingConstraint velocityDamping damped 0 (0%) of cells, with max limit 300
smoothSolver:  Solving for Ux, Initial residual = 0.002659479852883071, Final residual = 0.0002630170235944484, No Iterations 4
smoothSolver:  Solving for Uy, Initial residual = 0.01177651443480432, Final residual = 0.00117743509740165, No Iterations 4
smoothSolver:  Solving for Uz, Initial residual = 0.01277442249105689, Final residual = 0.001273706609159652, No Iterations 4
[OGL LOG][Proc: 0]: global_index_init: 0.536 [ms]
[OGL LOG][Proc: 0]p_local_coeffs: call_update: 0 [ms]
[OGL LOG][Proc: 0]p_non_local_coeffs: call_update: 0 [ms]
[OGL LOG][Proc: 0]p: update_local_matrix_data: 78.892 [ms]
[OGL LOG][Proc: 0]p: update_non_local_matrix_data: 0.578 [ms]
[OGL LOG][Proc: 0]p_matrix: call_update: 3.227 [ms]
[OGL LOG][Proc: 0]p_rhs: call_update: 2.561 [ms]
[OGL LOG][Preconditioner.H:121] Generate preconditioner BJ MaxBlockSize 1
[OGL LOG][Proc: 0]p: init_precond: 1.721 [ms]
[OGL LOG][StoppingCriterion.H:239] Creating stopping criterion with minIter 192 frequency 8
[OGL LOG][Proc: 0]p: generate_solver: 0.018 [ms]
[OGL LOG][Proc: 0]p: solve: 690.497 [ms]
[OGL LOG][Proc: 0]p: copy_x_back: 6.43 [ms]
[OGL LOG][lduLduBase.H:330] 
Statistics:
	Time per iteration: 3577 [mu s]
	Time per residual norm calculation: 1437.000000 [mu s]
	Time per iteration and DOF: 0.141784 [ns]
	Retrieve results bandwidth 2.623000 [GByte/s]
[OGL LOG][Proc: 0]p: solve_multi_gpu: 716.028 [ms]
BJcudaGKOCG:  Solving for p, Initial residual = 0.04053559792162405, Final residual = 0.0002135541128216115, No Iterations 193
time step continuity errors : sum local = 0.0001569429131465382, global = -3.822976843687554e-06, cumulative = 0.005585829501942628
smoothSolver:  Solving for nuTilda, Initial residual = 0.006087822786881145, Final residual = 0.0004639103751254542, No Iterations 4
ExecutionTime = 1152.07 s  ClockTime = 1156 s

Time = 99

velocityDampingConstraint velocityDamping damped 0 (0%) of cells, with max limit 300
smoothSolver:  Solving for Ux, Initial residual = 0.002661319275831897, Final residual = 0.0002617338764617268, No Iterations 4
smoothSolver:  Solving for Uy, Initial residual = 0.01180367665812891, Final residual = 0.0007046490841348013, No Iterations 5
smoothSolver:  Solving for Uz, Initial residual = 0.01272569201596334, Final residual = 0.001267358712404574, No Iterations 4
[OGL LOG][Proc: 0]: global_index_init: 0.074 [ms]
[OGL LOG][Proc: 0]p_local_coeffs: call_update: 0 [ms]
[OGL LOG][Proc: 0]p_non_local_coeffs: call_update: 0 [ms]
[OGL LOG][Proc: 0]p: update_local_matrix_data: 81.84999999999999 [ms]
[OGL LOG][Proc: 0]p: update_non_local_matrix_data: 0.6889999999999999 [ms]
[OGL LOG][Proc: 0]p_matrix: call_update: 3.521 [ms]
[OGL LOG][Proc: 0]p_rhs: call_update: 2.064 [ms]
[OGL LOG][Preconditioner.H:121] Generate preconditioner BJ MaxBlockSize 1
[OGL LOG][Proc: 0]p: init_precond: 1.629 [ms]
[OGL LOG][StoppingCriterion.H:239] Creating stopping criterion with minIter 115 frequency 6
[OGL LOG][Proc: 0]p: generate_solver: 0.014 [ms]
[OGL LOG][Proc: 0]p: solve: 894.665 [ms]
[OGL LOG][Proc: 0]p: copy_x_back: 5.864 [ms]
[OGL LOG][lduLduBase.H:330] 
Statistics:
	Time per iteration: 4364 [mu s]
	Time per residual norm calculation: 1286.000000 [mu s]
	Time per iteration and DOF: 0.172979 [ns]
	Retrieve results bandwidth 2.876000 [GByte/s]
[OGL LOG][Proc: 0]p: solve_multi_gpu: 912.936 [ms]
BJcudaGKOCG:  Solving for p, Initial residual = 0.04087350808958819, Final residual = 0.0004008774056442077, No Iterations 205
time step continuity errors : sum local = 0.0002933278512996079, global = -3.100187320487148e-05, cumulative = 0.005554827628737756
smoothSolver:  Solving for nuTilda, Initial residual = 0.008598631284786665, Final residual = 0.0008113054802165085, No Iterations 3
ExecutionTime = 1161.93 s  ClockTime = 1166 s

Time = 100

velocityDampingConstraint velocityDamping damped 0 (0%) of cells, with max limit 300
smoothSolver:  Solving for Ux, Initial residual = 0.002634957006220873, Final residual = 0.0002603965719832458, No Iterations 4
smoothSolver:  Solving for Uy, Initial residual = 0.01174174306883989, Final residual = 0.001173771365887931, No Iterations 4
smoothSolver:  Solving for Uz, Initial residual = 0.01274809407969997, Final residual = 0.001269158650601199, No Iterations 4
[OGL LOG][Proc: 0]: global_index_init: 0.495 [ms]
[OGL LOG][Proc: 0]p_local_coeffs: call_update: 0 [ms]
[OGL LOG][Proc: 0]p_non_local_coeffs: call_update: 0 [ms]
[OGL LOG][Proc: 0]p: update_local_matrix_data: 83.566 [ms]
[OGL LOG][Proc: 0]p: update_non_local_matrix_data: 0.571 [ms]
[OGL LOG][Proc: 0]p_matrix: call_update: 3.412 [ms]
[OGL LOG][Proc: 0]p_rhs: call_update: 2.253 [ms]
[OGL LOG][Preconditioner.H:121] Generate preconditioner BJ MaxBlockSize 1
[OGL LOG][Proc: 0]p: init_precond: 1.728 [ms]
[OGL LOG][StoppingCriterion.H:239] Creating stopping criterion with minIter 123 frequency 5
[OGL LOG][Proc: 0]p: generate_solver: 0.014 [ms]
[OGL LOG][Proc: 0]p: solve: 2054.34 [ms]
[OGL LOG][Proc: 0]p: copy_x_back: 5.95 [ms]
[OGL LOG][lduLduBase.H:330] 
Statistics:
	Time per iteration: 3308 [mu s]
	Time per residual norm calculation: 1281.000000 [mu s]
	Time per iteration and DOF: 0.131121 [ns]
	Retrieve results bandwidth 2.834000 [GByte/s]
[OGL LOG][Proc: 0]p: solve_multi_gpu: 2074.191 [ms]
BJcudaGKOCG:  Solving for p, Initial residual = 0.04036617842522627, Final residual = 0.0003954224813610282, No Iterations 621
time step continuity errors : sum local = 0.0002885384859217582, global = -1.333493368146795e-05, cumulative = 0.005541492695056288
smoothSolver:  Solving for nuTilda, Initial residual = 0.006011981650461189, Final residual = 0.0004618777328353792, No Iterations 4
ExecutionTime = 1173.06 s  ClockTime = 1177 s

End

Finalising parallel run
