/*---------------------------------------------------------------------------*\
| =========                 |                                                 |
| \\      /  F ield         | OpenFOAM: The Open Source CFD Toolbox           |
|  \\    /   O peration     | Version:  2306                                  |
|   \\  /    A nd           | Website:  www.openfoam.com                      |
|    \\/     M anipulation  |                                                 |
\*---------------------------------------------------------------------------*/
Build  : c423ebec-20231012 OPENFOAM=2306 version=v2306
Arch   : "LSB;label=32;scalar=64"
Exec   : icoFoam -parallel -case /hkfs/work/workspace/scratch/eq4036-l3d_multi/workspace/0e0146273a7cfdc2d4875f1e84c1df3a/case
Date   : Feb 06 2024
Time   : 08:35:45
Host   : hkn0709.localdomain
PID    : 3429176
I/O    : uncollated
Case   : /hkfs/work/workspace/scratch/eq4036-l3d_multi/workspace/0e0146273a7cfdc2d4875f1e84c1df3a/case
nProcs : 8
Hosts  :
(
    (hkn0709.localdomain 8)
)
Pstream initialized with:
    floatTransfer      : false
    nProcsSimpleSum    : 0
    nonBlockingExchange: 0 (tuning: 0)
    exchange algorithm : -1
    commsType          : nonBlocking
    polling iterations : 0
trapFpe: Floating point exception trapping enabled (FOAM_SIGFPE).
fileModificationChecking : Monitoring run-time modified files using timeStampMaster (fileModificationSkew 5, maxFileModificationPolls 20)
allowSystemOperations : Allowing user-supplied system call operations

// * * * * * * * * * * * * * * * * * * * * * * * * * * * * * * * * * * * * * //
Create time

--> FOAM Warning : 
    From void* Foam::dlLibraryTable::openLibrary(const Foam::fileName&, bool)
    in file db/dynamicLibrary/dlLibraryTable/dlLibraryTable.C at line 188
    Could not load "libpetscFoam.so"
libpetscFoam.so: cannot open shared object file: No such file or directory
Create mesh for time = 0


PISO: Operating solver in PISO mode

Reading transportProperties

Reading field p

Reading field U

Reading/calculating face flux field phi


Starting time loop

Time = 0.0001

Courant Number mean: 6.42004e-18 max: 3.88578e-14
[INFO] MatrixAssemblyU: 1861.43 [ms]
DILUPBiCGStab:  Solving for Ux, Initial residual = 1, Final residual = 0.0172113, No Iterations 5
DILUPBiCGStab:  Solving for Uy:  solution singularity
DILUPBiCGStab:  Solving for Uz:  solution singularity
[INFO] MomentumPredictor: 6937.81 [ms]
[INFO] MatrixAssemblyPI: 1927.54 [ms]
[INFO] AdjustPhi: 103.211 [ms]
[INFO] ConstrainPressure: 0.007 [ms]
[INFO] MatrixAssemblyPII: 586.632 [ms]
[OGL LOG][lduLduBase.H:119] Initialising OGL
	OGL commit:  e75313f+
	Branch: dev 
	Build type: Debug
	Ginkgo version: 1.8.0 ( develop)
	Ginkgo commit: sparse-communicator
	MPI is GPU aware: 1
	Forces host buffer based communication: 0
	CPU ranks per GPU: 1
	Matrix format: Ell
	End OGL_INFO
[OGL LOG][Proc: 0]: global_index_init: 0.065 [ms]
[OGL LOG][Proc: 0]p_local_cols: call_init: 0.244 [ms]
[OGL LOG][Proc: 0]p_local_rows: call_init: 0.031 [ms]
[OGL LOG][Proc: 0]p_local_ldu_map: call_init: 0.021 [ms]
[OGL LOG][Proc: 0]p_local_coeffs: call_init: 6.524 [ms]
[OGL LOG][Proc: 0]p_non_local_cols: call_init: 0.031 [ms]
[OGL LOG][Proc: 0]p_non_local_rows: call_init: 0.006 [ms]
[OGL LOG][Proc: 0]p_non_local_ldu_map: call_init: 0.006 [ms]
[OGL LOG][Proc: 0]p_non_local_coeffs: call_init: 0.014 [ms]
