/*---------------------------------------------------------------------------*\
| =========                 |                                                 |
| \\      /  F ield         | OpenFOAM: The Open Source CFD Toolbox           |
|  \\    /   O peration     | Version:  2306                                  |
|   \\  /    A nd           | Website:  www.openfoam.com                      |
|    \\/     M anipulation  |                                                 |
\*---------------------------------------------------------------------------*/
Build  : c423ebec-20231012 OPENFOAM=2306 version=v2306
Arch   : "LSB;label=32;scalar=64"
Exec   : icoFoam -parallel -case /hkfs/work/workspace/scratch/eq4036-l3d_multi/workspace/0e0146273a7cfdc2d4875f1e84c1df3a/case
Date   : Feb 06 2024
Time   : 08:35:45
Host   : hkn0709.localdomain
PID    : 3429176
I/O    : uncollated
Case   : /hkfs/work/workspace/scratch/eq4036-l3d_multi/workspace/0e0146273a7cfdc2d4875f1e84c1df3a/case
nProcs : 8
Hosts  :
(
    (hkn0709.localdomain 8)
)
Pstream initialized with:
    floatTransfer      : false
    nProcsSimpleSum    : 0
    nonBlockingExchange: 0 (tuning: 0)
    exchange algorithm : -1
    commsType          : nonBlocking
    polling iterations : 0
trapFpe: Floating point exception trapping enabled (FOAM_SIGFPE).
fileModificationChecking : Monitoring run-time modified files using timeStampMaster (fileModificationSkew 5, maxFileModificationPolls 20)
allowSystemOperations : Allowing user-supplied system call operations

// * * * * * * * * * * * * * * * * * * * * * * * * * * * * * * * * * * * * * //
Create time

--> FOAM Warning : 
    From void* Foam::dlLibraryTable::openLibrary(const Foam::fileName&, bool)
    in file db/dynamicLibrary/dlLibraryTable/dlLibraryTable.C at line 188
    Could not load "libpetscFoam.so"
libpetscFoam.so: cannot open shared object file: No such file or directory
Create mesh for time = 0


PISO: Operating solver in PISO mode

Reading transportProperties

Reading field p

Reading field U

Reading/calculating face flux field phi


Starting time loop

Time = 0.0001

Courant Number mean: 6.42004e-18 max: 3.88578e-14
[INFO] MatrixAssemblyU: 1861.43 [ms]
DILUPBiCGStab:  Solving for Ux, Initial residual = 1, Final residual = 0.0172113, No Iterations 5
DILUPBiCGStab:  Solving for Uy:  solution singularity
DILUPBiCGStab:  Solving for Uz:  solution singularity
[INFO] MomentumPredictor: 6937.81 [ms]
[INFO] MatrixAssemblyPI: 1927.54 [ms]
[INFO] AdjustPhi: 103.211 [ms]
[INFO] ConstrainPressure: 0.007 [ms]
[INFO] MatrixAssemblyPII: 586.632 [ms]
[OGL LOG][lduLduBase.H:119] Initialising OGL
	OGL commit:  e75313f+
	Branch: dev 
	Build type: Debug
	Ginkgo version: 1.8.0 ( develop)
	Ginkgo commit: sparse-communicator
	MPI is GPU aware: 1
	Forces host buffer based communication: 0
	CPU ranks per GPU: 1
	Matrix format: Ell
	End OGL_INFO
[OGL LOG][Proc: 0]: global_index_init: 0.065 [ms]
[OGL LOG][Proc: 0]p_local_cols: call_init: 0.244 [ms]
[OGL LOG][Proc: 0]p_local_rows: call_init: 0.031 [ms]
[OGL LOG][Proc: 0]p_local_ldu_map: call_init: 0.021 [ms]
[OGL LOG][Proc: 0]p_local_coeffs: call_init: 6.524 [ms]
[OGL LOG][Proc: 0]p_non_local_cols: call_init: 0.031 [ms]
[OGL LOG][Proc: 0]p_non_local_rows: call_init: 0.006 [ms]
[OGL LOG][Proc: 0]p_non_local_ldu_map: call_init: 0.006 [ms]
[OGL LOG][Proc: 0]p_non_local_coeffs: call_init: 0.014 [ms]
[OGL LOG][Proc: 0]p: init_local_sparsity_pattern: 244502 [ms]
[OGL LOG][Proc: 0]p: init_non_local_sparsity_pattern: 590.926 [ms]
[OGL LOG][Proc: 0]p: update_local_matrix_data: 310.937 [ms]
[OGL LOG][Proc: 0]p: update_non_local_matrix_data: 3.224 [ms]
[OGL LOG][Proc: 0]device_partition: call_init: 0.394 [ms]
[OGL LOG][Proc: 0]p_matrix: call_init: 915.132 [ms]
[OGL LOG][Proc: 0]p_rhs: call_init: 20.863 [ms]
[OGL LOG][Proc: 0]p_solution: call_init: 21.731 [ms]
[OGL LOG][Proc: 0]p: init_precond: 0.225 [ms]
[OGL LOG][StoppingCriterion.H:239] Creating stopping criterion with minIter 0 frequency 1
[OGL LOG][Proc: 0]p: generate_solver: 0.558 [ms]
[OGL LOG][Proc: 0]p: solve: 21683.6 [ms]
[OGL LOG][Proc: 0]p: copy_x_back: 35.411 [ms]
[OGL LOG][lduLduBase.H:330] 
Statistics:
	Time per iteration: 6665 [mu s]
	Time per residual norm calculation: 7751.000000 [mu s]
	Time per iteration and DOF: 0.104141 [ns]
	Retrieve results bandwidth 1.807000 [GByte/s]
[OGL LOG][Proc: 0]p: solve_multi_gpu: 22988.5 [ms]
nonecudaGKOCG:  Solving for p, Initial residual = 1, Final residual = 9.87093e-05, No Iterations 3253
[INFO] SolveP: 269896 [ms]
time step continuity errors : sum local = 1.85975e-09, global = -1.062e-21, cumulative = -1.062e-21
[INFO] ContinuityError: 215.704 [ms]
[INFO] CorrectBoundary: 2.35 [ms]
[INFO] PISOStep: 273399 [ms]
[INFO] MatrixAssemblyPI: 1811.84 [ms]
[INFO] AdjustPhi: 104.641 [ms]
[INFO] ConstrainPressure: 0.002 [ms]
[INFO] MatrixAssemblyPII: 584.285 [ms]
[OGL LOG][Proc: 0]: global_index_init: 0.021 [ms]
[OGL LOG][Proc: 0]p_local_coeffs: call_update: 0.001 [ms]
[OGL LOG][Proc: 0]p_non_local_coeffs: call_update: 0 [ms]
[OGL LOG][Proc: 0]p: update_local_matrix_data: 343.421 [ms]
[OGL LOG][Proc: 0]p: update_non_local_matrix_data: 3.018 [ms]
[OGL LOG][Proc: 0]p: regenerate_distributed_matrix: 915.674 [ms]
[OGL LOG][Proc: 0]p_matrix: call_update: 928.613 [ms]
[OGL LOG][Proc: 0]p_rhs: call_update: 25.22 [ms]
[OGL LOG][Proc: 0]p: init_precond: 0.052 [ms]
[OGL LOG][StoppingCriterion.H:239] Creating stopping criterion with minIter 0 frequency 1
[OGL LOG][Proc: 0]p: generate_solver: 0.032 [ms]
[OGL LOG][Proc: 0]p: solve: 21549.7 [ms]
[OGL LOG][Proc: 0]p: copy_x_back: 34.882 [ms]
[OGL LOG][lduLduBase.H:330] 
Statistics:
	Time per iteration: 6657 [mu s]
	Time per residual norm calculation: 1503.000000 [mu s]
	Time per iteration and DOF: 0.104016 [ns]
	Retrieve results bandwidth 1.834000 [GByte/s]
[OGL LOG][Proc: 0]p: solve_multi_gpu: 22541.5 [ms]
nonecudaGKOCG:  Solving for p, Initial residual = 0.813576, Final residual = 9.9326e-05, No Iterations 3237
[INFO] SolveP: 22958.2 [ms]
time step continuity errors : sum local = 2.27536e-09, global = 2.14634e-22, cumulative = -8.47368e-22
[INFO] ContinuityError: 216.663 [ms]
[INFO] CorrectBoundary: 2.131 [ms]
[INFO] PISOStep: 26343.7 [ms]
[INFO] TimeStep: 308781 [ms]
ExecutionTime = 312.38 s  ClockTime = 314 s

Time = 0.0002

Courant Number mean: 0.00817427 max: 0.345604
[INFO] MatrixAssemblyU: 1606.33 [ms]
DILUPBiCGStab:  Solving for Ux, Initial residual = 0.112723, Final residual = 0.0101762, No Iterations 5
DILUPBiCGStab:  Solving for Uy, Initial residual = 0.457346, Final residual = 0.0343511, No Iterations 5
DILUPBiCGStab:  Solving for Uz, Initial residual = 0.99647, Final residual = 0.0834387, No Iterations 5
[INFO] MomentumPredictor: 18562.6 [ms]
[INFO] MatrixAssemblyPI: 1836.25 [ms]
[INFO] AdjustPhi: 104.258 [ms]
[INFO] ConstrainPressure: 0.003 [ms]
[INFO] MatrixAssemblyPII: 571.148 [ms]
[OGL LOG][Proc: 0]: global_index_init: 0.02 [ms]
[OGL LOG][Proc: 0]p_local_coeffs: call_update: 0 [ms]
[OGL LOG][Proc: 0]p_non_local_coeffs: call_update: 0 [ms]
[OGL LOG][Proc: 0]p: update_local_matrix_data: 344.447 [ms]
[OGL LOG][Proc: 0]p: update_non_local_matrix_data: 3.337 [ms]
[OGL LOG][Proc: 0]p: regenerate_distributed_matrix: 911.202 [ms]
[OGL LOG][Proc: 0]p_matrix: call_update: 914.167 [ms]
[OGL LOG][Proc: 0]p_rhs: call_update: 20.501 [ms]
[OGL LOG][Proc: 0]p: init_precond: 0.06 [ms]
[OGL LOG][StoppingCriterion.H:239] Creating stopping criterion with minIter 1942 frequency 17
[OGL LOG][Proc: 0]p: generate_solver: 0.035 [ms]
[OGL LOG][Proc: 0]p: solve: 17396.2 [ms]
[OGL LOG][Proc: 0]p: copy_x_back: 34.538 [ms]
[OGL LOG][lduLduBase.H:330] 
Statistics:
	Time per iteration: 5441 [mu s]
	Time per residual norm calculation: 1362.000000 [mu s]
	Time per iteration and DOF: 0.085016 [ns]
	Retrieve results bandwidth 1.853000 [GByte/s]
[OGL LOG][Proc: 0]p: solve_multi_gpu: 18368 [ms]
nonecudaGKOCG:  Solving for p, Initial residual = 0.887161, Final residual = 8.77083e-05, No Iterations 3197
[INFO] SolveP: 18784.2 [ms]
time step continuity errors : sum local = 4.07802e-09, global = -1.71155e-22, cumulative = -1.01852e-21
[INFO] ContinuityError: 198.749 [ms]
[INFO] CorrectBoundary: 2.308 [ms]
[INFO] PISOStep: 22141 [ms]
[INFO] MatrixAssemblyPI: 1776.85 [ms]
[INFO] AdjustPhi: 104.245 [ms]
[INFO] ConstrainPressure: 0.003 [ms]
[INFO] MatrixAssemblyPII: 569.328 [ms]
[OGL LOG][Proc: 0]: global_index_init: 0.016 [ms]
[OGL LOG][Proc: 0]p_local_coeffs: call_update: 0 [ms]
[OGL LOG][Proc: 0]p_non_local_coeffs: call_update: 0 [ms]
[OGL LOG][Proc: 0]p: update_local_matrix_data: 350.846 [ms]
[OGL LOG][Proc: 0]p: update_non_local_matrix_data: 3.387 [ms]
[OGL LOG][Proc: 0]p: regenerate_distributed_matrix: 911.192 [ms]
[OGL LOG][Proc: 0]p_matrix: call_update: 914.075 [ms]
[OGL LOG][Proc: 0]p_rhs: call_update: 20.55 [ms]
[OGL LOG][Proc: 0]p: init_precond: 0.04 [ms]
[OGL LOG][StoppingCriterion.H:239] Creating stopping criterion with minIter 1918 frequency 20
[OGL LOG][Proc: 0]p: generate_solver: 0.03 [ms]
[OGL LOG][Proc: 0]p: solve: 17136.3 [ms]
[OGL LOG][Proc: 0]p: copy_x_back: 35.377 [ms]
[OGL LOG][lduLduBase.H:330] 
Statistics:
	Time per iteration: 5353 [mu s]
	Time per residual norm calculation: 1204.000000 [mu s]
	Time per iteration and DOF: 0.083641 [ns]
	Retrieve results bandwidth 1.809000 [GByte/s]
[OGL LOG][Proc: 0]p: solve_multi_gpu: 18109 [ms]
nonecudaGKOCG:  Solving for p, Initial residual = 0.83696, Final residual = 7.6282e-05, No Iterations 3201
[INFO] SolveP: 18522.8 [ms]
time step continuity errors : sum local = 3.61082e-09, global = -1.68493e-22, cumulative = -1.18702e-21
[INFO] ContinuityError: 202.8 [ms]
[INFO] CorrectBoundary: 1.748 [ms]
[INFO] PISOStep: 21816.1 [ms]
[INFO] TimeStep: 64307 [ms]
ExecutionTime = 376.39 s  ClockTime = 378 s

Time = 0.0003

Courant Number mean: 0.0126396 max: 0.398278
[INFO] MatrixAssemblyU: 1599.31 [ms]
DILUPBiCGStab:  Solving for Ux, Initial residual = 0.0520701, Final residual = 0.00389062, No Iterations 5
DILUPBiCGStab:  Solving for Uy, Initial residual = 0.218733, Final residual = 0.0196052, No Iterations 5
DILUPBiCGStab:  Solving for Uz, Initial residual = 0.869333, Final residual = 0.0652801, No Iterations 5
[INFO] MomentumPredictor: 15129.1 [ms]
[INFO] MatrixAssemblyPI: 1838.45 [ms]
[INFO] AdjustPhi: 107.528 [ms]
[INFO] ConstrainPressure: 0.003 [ms]
[INFO] MatrixAssemblyPII: 576.561 [ms]
[OGL LOG][Proc: 0]: global_index_init: 6.028 [ms]
[OGL LOG][Proc: 0]p_local_coeffs: call_update: 0 [ms]
[OGL LOG][Proc: 0]p_non_local_coeffs: call_update: 0 [ms]
[OGL LOG][Proc: 0]p: update_local_matrix_data: 344.732 [ms]
[OGL LOG][Proc: 0]p: update_non_local_matrix_data: 3.28 [ms]
[OGL LOG][Proc: 0]p: regenerate_distributed_matrix: 912.188 [ms]
[OGL LOG][Proc: 0]p_matrix: call_update: 915.729 [ms]
[OGL LOG][Proc: 0]p_rhs: call_update: 20.424 [ms]
[OGL LOG][Proc: 0]p: init_precond: 0.047 [ms]
[OGL LOG][StoppingCriterion.H:239] Creating stopping criterion with minIter 1920 frequency 17
[OGL LOG][Proc: 0]p: generate_solver: 0.034 [ms]
[OGL LOG][Proc: 0]p: solve: 10388.6 [ms]
[OGL LOG][Proc: 0]p: copy_x_back: 34.413 [ms]
[OGL LOG][lduLduBase.H:330] 
Statistics:
	Time per iteration: 5405 [mu s]
	Time per residual norm calculation: 1362.000000 [mu s]
	Time per iteration and DOF: 0.084453 [ns]
	Retrieve results bandwidth 1.859000 [GByte/s]
[OGL LOG][Proc: 0]p: solve_multi_gpu: 11368 [ms]
nonecudaGKOCG:  Solving for p, Initial residual = 0.921598, Final residual = 8.29715e-05, No Iterations 1922
[INFO] SolveP: 11781.8 [ms]
time step continuity errors : sum local = 4.53413e-09, global = 2.52755e-22, cumulative = -9.34261e-22
[INFO] ContinuityError: 215.438 [ms]
[INFO] CorrectBoundary: 1.749 [ms]
[INFO] PISOStep: 15159.9 [ms]
[INFO] MatrixAssemblyPI: 1793.46 [ms]
[INFO] AdjustPhi: 104.338 [ms]
[INFO] ConstrainPressure: 0.002 [ms]
[INFO] MatrixAssemblyPII: 576.334 [ms]
[OGL LOG][Proc: 0]: global_index_init: 6.31 [ms]
[OGL LOG][Proc: 0]p_local_coeffs: call_update: 0 [ms]
[OGL LOG][Proc: 0]p_non_local_coeffs: call_update: 0 [ms]
[OGL LOG][Proc: 0]p: update_local_matrix_data: 346.436 [ms]
[OGL LOG][Proc: 0]p: update_non_local_matrix_data: 3.023 [ms]
[OGL LOG][Proc: 0]p: regenerate_distributed_matrix: 911.843 [ms]
[OGL LOG][Proc: 0]p_matrix: call_update: 915.34 [ms]
[OGL LOG][Proc: 0]p_rhs: call_update: 20.567 [ms]
[OGL LOG][Proc: 0]p: init_precond: 0.039 [ms]
[OGL LOG][StoppingCriterion.H:239] Creating stopping criterion with minIter 1153 frequency 16
[OGL LOG][Proc: 0]p: generate_solver: 0.031 [ms]
[OGL LOG][Proc: 0]p: solve: 8415.28 [ms]
[OGL LOG][Proc: 0]p: copy_x_back: 35.27 [ms]
[OGL LOG][lduLduBase.H:330] 
Statistics:
	Time per iteration: 5475 [mu s]
	Time per residual norm calculation: 1352.000000 [mu s]
	Time per iteration and DOF: 0.085547 [ns]
	Retrieve results bandwidth 1.814000 [GByte/s]
[OGL LOG][Proc: 0]p: solve_multi_gpu: 9389.26 [ms]
nonecudaGKOCG:  Solving for p, Initial residual = 0.890996, Final residual = 9.29893e-05, No Iterations 1537
[INFO] SolveP: 9804.44 [ms]
time step continuity errors : sum local = 4.86686e-09, global = 2.37424e-22, cumulative = -6.96837e-22
[INFO] ContinuityError: 206.408 [ms]
[INFO] CorrectBoundary: 1.696 [ms]
[INFO] PISOStep: 13127.9 [ms]
[INFO] TimeStep: 45204 [ms]
ExecutionTime = 421.51 s  ClockTime = 423 s

Time = 0.0004

Courant Number mean: 0.0153891 max: 0.38015
[INFO] MatrixAssemblyU: 1663.5 [ms]
DILUPBiCGStab:  Solving for Ux, Initial residual = 0.0374096, Final residual = 0.00313157, No Iterations 5
DILUPBiCGStab:  Solving for Uy, Initial residual = 0.167027, Final residual = 0.0146675, No Iterations 5
DILUPBiCGStab:  Solving for Uz, Initial residual = 0.725916, Final residual = 0.0444273, No Iterations 5
[INFO] MomentumPredictor: 16379.4 [ms]
[INFO] MatrixAssemblyPI: 1823.21 [ms]
[INFO] AdjustPhi: 105.724 [ms]
[INFO] ConstrainPressure: 0.002 [ms]
[INFO] MatrixAssemblyPII: 579.408 [ms]
[OGL LOG][Proc: 0]: global_index_init: 0.023 [ms]
[OGL LOG][Proc: 0]p_local_coeffs: call_update: 0 [ms]
[OGL LOG][Proc: 0]p_non_local_coeffs: call_update: 0 [ms]
[OGL LOG][Proc: 0]p: update_local_matrix_data: 351.716 [ms]
[OGL LOG][Proc: 0]p: update_non_local_matrix_data: 3.368 [ms]
[OGL LOG][Proc: 0]p: regenerate_distributed_matrix: 912.042 [ms]
[OGL LOG][Proc: 0]p_matrix: call_update: 914.979 [ms]
[OGL LOG][Proc: 0]p_rhs: call_update: 20.414 [ms]
[OGL LOG][Proc: 0]p: init_precond: 0.053 [ms]
[OGL LOG][StoppingCriterion.H:239] Creating stopping criterion with minIter 922 frequency 12
[OGL LOG][Proc: 0]p: generate_solver: 0.035 [ms]
[OGL LOG][Proc: 0]p: solve: 8327.2 [ms]
[OGL LOG][Proc: 0]p: copy_x_back: 34.476 [ms]
[OGL LOG][lduLduBase.H:330] 
Statistics:
	Time per iteration: 5503 [mu s]
	Time per residual norm calculation: 1366.000000 [mu s]
	Time per iteration and DOF: 0.085984 [ns]
	Retrieve results bandwidth 1.856000 [GByte/s]
[OGL LOG][Proc: 0]p: solve_multi_gpu: 9299.62 [ms]
nonecudaGKOCG:  Solving for p, Initial residual = 0.904299, Final residual = 9.76375e-05, No Iterations 1513
[INFO] SolveP: 9715.52 [ms]
time step continuity errors : sum local = 5.91978e-09, global = 6.15753e-22, cumulative = -8.10837e-23
[INFO] ContinuityError: 199.006 [ms]
[INFO] CorrectBoundary: 1.992 [ms]
[INFO] PISOStep: 13070.4 [ms]
[INFO] MatrixAssemblyPI: 1788.35 [ms]
[INFO] AdjustPhi: 103.521 [ms]
[INFO] ConstrainPressure: 0.004 [ms]
[INFO] MatrixAssemblyPII: 571.655 [ms]
[OGL LOG][Proc: 0]: global_index_init: 0.016 [ms]
[OGL LOG][Proc: 0]p_local_coeffs: call_update: 0 [ms]
[OGL LOG][Proc: 0]p_non_local_coeffs: call_update: 0 [ms]
[OGL LOG][Proc: 0]p: update_local_matrix_data: 350.624 [ms]
[OGL LOG][Proc: 0]p: update_non_local_matrix_data: 3.01 [ms]
[OGL LOG][Proc: 0]p: regenerate_distributed_matrix: 910.34 [ms]
[OGL LOG][Proc: 0]p_matrix: call_update: 914.125 [ms]
[OGL LOG][Proc: 0]p_rhs: call_update: 20.615 [ms]
[OGL LOG][Proc: 0]p: init_precond: 0.042 [ms]
[OGL LOG][StoppingCriterion.H:239] Creating stopping criterion with minIter 907 frequency 12
[OGL LOG][Proc: 0]p: generate_solver: 0.031 [ms]
[OGL LOG][Proc: 0]p: solve: 8326.04 [ms]
[OGL LOG][Proc: 0]p: copy_x_back: 35.457 [ms]
[OGL LOG][lduLduBase.H:330] 
Statistics:
	Time per iteration: 5503 [mu s]
	Time per residual norm calculation: 1344.000000 [mu s]
	Time per iteration and DOF: 0.085984 [ns]
	Retrieve results bandwidth 1.805000 [GByte/s]
[OGL LOG][Proc: 0]p: solve_multi_gpu: 9303.39 [ms]
nonecudaGKOCG:  Solving for p, Initial residual = 0.845365, Final residual = 8.66806e-05, No Iterations 1513
[INFO] SolveP: 9716.66 [ms]
time step continuity errors : sum local = 5.16085e-09, global = 3.35228e-22, cumulative = 2.54144e-22
[INFO] ContinuityError: 188.815 [ms]
[INFO] CorrectBoundary: 1.672 [ms]
[INFO] PISOStep: 13011.1 [ms]
[INFO] TimeStep: 44317 [ms]
ExecutionTime = 465.71 s  ClockTime = 467 s

Time = 0.0005

Courant Number mean: 0.0177225 max: 0.413371
[INFO] MatrixAssemblyU: 1601.56 [ms]
DILUPBiCGStab:  Solving for Ux, Initial residual = 0.0315798, Final residual = 0.00272481, No Iterations 5
DILUPBiCGStab:  Solving for Uy, Initial residual = 0.127515, Final residual = 0.0125092, No Iterations 5
DILUPBiCGStab:  Solving for Uz, Initial residual = 0.651558, Final residual = 0.0363501, No Iterations 5
[INFO] MomentumPredictor: 15082 [ms]
[INFO] MatrixAssemblyPI: 1831.32 [ms]
[INFO] AdjustPhi: 104.388 [ms]
[INFO] ConstrainPressure: 0.003 [ms]
[INFO] MatrixAssemblyPII: 572.692 [ms]
[OGL LOG][Proc: 0]: global_index_init: 0.022 [ms]
[OGL LOG][Proc: 0]p_local_coeffs: call_update: 0 [ms]
[OGL LOG][Proc: 0]p_non_local_coeffs: call_update: 0 [ms]
[OGL LOG][Proc: 0]p: update_local_matrix_data: 343.031 [ms]
[OGL LOG][Proc: 0]p: update_non_local_matrix_data: 3.296 [ms]
[OGL LOG][Proc: 0]p: regenerate_distributed_matrix: 910.952 [ms]
[OGL LOG][Proc: 0]p_matrix: call_update: 914.754 [ms]
[OGL LOG][Proc: 0]p_rhs: call_update: 20.294 [ms]
[OGL LOG][Proc: 0]p: init_precond: 0.045 [ms]
[OGL LOG][StoppingCriterion.H:239] Creating stopping criterion with minIter 907 frequency 12
[OGL LOG][Proc: 0]p: generate_solver: 0.034 [ms]
[OGL LOG][Proc: 0]p: solve: 17059 [ms]
[OGL LOG][Proc: 0]p: copy_x_back: 34.637 [ms]
[OGL LOG][lduLduBase.H:330] 
Statistics:
	Time per iteration: 5486 [mu s]
	Time per residual norm calculation: 1358.000000 [mu s]
	Time per iteration and DOF: 0.085719 [ns]
	Retrieve results bandwidth 1.847000 [GByte/s]
[OGL LOG][Proc: 0]p: solve_multi_gpu: 18031.2 [ms]
nonecudaGKOCG:  Solving for p, Initial residual = 0.923744, Final residual = 9.64151e-05, No Iterations 3109
[INFO] SolveP: 18437.9 [ms]
time step continuity errors : sum local = 5.68003e-09, global = 1.54778e-22, cumulative = 4.08923e-22
[INFO] ContinuityError: 199.289 [ms]
[INFO] CorrectBoundary: 2.048 [ms]
[INFO] PISOStep: 21784.4 [ms]
[INFO] MatrixAssemblyPI: 1783.31 [ms]
[INFO] AdjustPhi: 103.894 [ms]
[INFO] ConstrainPressure: 0.003 [ms]
[INFO] MatrixAssemblyPII: 573.355 [ms]
[OGL LOG][Proc: 0]: global_index_init: 0.016 [ms]
[OGL LOG][Proc: 0]p_local_coeffs: call_update: 0 [ms]
[OGL LOG][Proc: 0]p_non_local_coeffs: call_update: 0 [ms]
[OGL LOG][Proc: 0]p: update_local_matrix_data: 355.637 [ms]
[OGL LOG][Proc: 0]p: update_non_local_matrix_data: 3.078 [ms]
[OGL LOG][Proc: 0]p: regenerate_distributed_matrix: 911.586 [ms]
[OGL LOG][Proc: 0]p_matrix: call_update: 914.697 [ms]
[OGL LOG][Proc: 0]p_rhs: call_update: 20.457 [ms]
[OGL LOG][Proc: 0]p: init_precond: 0.043 [ms]
[OGL LOG][StoppingCriterion.H:239] Creating stopping criterion with minIter 1865 frequency 17
[OGL LOG][Proc: 0]p: generate_solver: 0.031 [ms]
[OGL LOG][Proc: 0]p: solve: 16581.9 [ms]
[OGL LOG][Proc: 0]p: copy_x_back: 35.541 [ms]
[OGL LOG][lduLduBase.H:330] 
Statistics:
	Time per iteration: 5357 [mu s]
	Time per residual norm calculation: 1207.000000 [mu s]
	Time per iteration and DOF: 0.083703 [ns]
	Retrieve results bandwidth 1.800000 [GByte/s]
[OGL LOG][Proc: 0]p: solve_multi_gpu: 17555.7 [ms]
nonecudaGKOCG:  Solving for p, Initial residual = 0.886543, Final residual = 9.9939e-05, No Iterations 3095
[INFO] SolveP: 17981.6 [ms]
time step continuity errors : sum local = 5.82006e-09, global = 5.41715e-22, cumulative = 9.50638e-22
[INFO] ContinuityError: 196.211 [ms]
[INFO] CorrectBoundary: 2.057 [ms]
[INFO] PISOStep: 21286.9 [ms]
[INFO] TimeStep: 59941.9 [ms]
ExecutionTime = 525.34 s  ClockTime = 527 s

Time = 0.0006

Courant Number mean: 0.0195736 max: 0.385102
[INFO] MatrixAssemblyU: 1676.85 [ms]
DILUPBiCGStab:  Solving for Ux, Initial residual = 0.0269655, Final residual = 0.00251785, No Iterations 5
DILUPBiCGStab:  Solving for Uy, Initial residual = 0.111003, Final residual = 0.00988512, No Iterations 5
DILUPBiCGStab:  Solving for Uz, Initial residual = 0.570713, Final residual = 0.0293081, No Iterations 5
[INFO] MomentumPredictor: 15095 [ms]
[INFO] MatrixAssemblyPI: 1828 [ms]
[INFO] AdjustPhi: 104.27 [ms]
[INFO] ConstrainPressure: 0.003 [ms]
[INFO] MatrixAssemblyPII: 572 [ms]
[OGL LOG][Proc: 0]: global_index_init: 0.021 [ms]
[OGL LOG][Proc: 0]p_local_coeffs: call_update: 0 [ms]
[OGL LOG][Proc: 0]p_non_local_coeffs: call_update: 0 [ms]
[OGL LOG][Proc: 0]p: update_local_matrix_data: 351.287 [ms]
[OGL LOG][Proc: 0]p: update_non_local_matrix_data: 3.359 [ms]
[OGL LOG][Proc: 0]p: regenerate_distributed_matrix: 910.606 [ms]
[OGL LOG][Proc: 0]p_matrix: call_update: 913.722 [ms]
[OGL LOG][Proc: 0]p_rhs: call_update: 20.293 [ms]
[OGL LOG][Proc: 0]p: init_precond: 0.047 [ms]
[OGL LOG][StoppingCriterion.H:239] Creating stopping criterion with minIter 1857 frequency 17
[OGL LOG][Proc: 0]p: generate_solver: 0.033 [ms]
[OGL LOG][Proc: 0]p: solve: 16845.8 [ms]
[OGL LOG][Proc: 0]p: copy_x_back: 34.696 [ms]
[OGL LOG][lduLduBase.H:330] 
Statistics:
	Time per iteration: 5442 [mu s]
	Time per residual norm calculation: 1361.000000 [mu s]
	Time per iteration and DOF: 0.085031 [ns]
	Retrieve results bandwidth 1.844000 [GByte/s]
[OGL LOG][Proc: 0]p: solve_multi_gpu: 17816.9 [ms]
nonecudaGKOCG:  Solving for p, Initial residual = 0.907846, Final residual = 8.67102e-05, No Iterations 3095
[INFO] SolveP: 18231.7 [ms]
time step continuity errors : sum local = 5.33994e-09, global = 4.04773e-22, cumulative = 1.35541e-21
[INFO] ContinuityError: 197.859 [ms]
[INFO] CorrectBoundary: 2.207 [ms]
[INFO] PISOStep: 21574.4 [ms]
[INFO] MatrixAssemblyPI: 1777.16 [ms]
[INFO] AdjustPhi: 103.335 [ms]
[INFO] ConstrainPressure: 0.003 [ms]
[INFO] MatrixAssemblyPII: 572.207 [ms]
[OGL LOG][Proc: 0]: global_index_init: 0.017 [ms]
[OGL LOG][Proc: 0]p_local_coeffs: call_update: 0 [ms]
[OGL LOG][Proc: 0]p_non_local_coeffs: call_update: 0 [ms]
[OGL LOG][Proc: 0]p: update_local_matrix_data: 350.854 [ms]
[OGL LOG][Proc: 0]p: update_non_local_matrix_data: 3.114 [ms]
[OGL LOG][Proc: 0]p: regenerate_distributed_matrix: 910.963 [ms]
[OGL LOG][Proc: 0]p_matrix: call_update: 914.758 [ms]
[OGL LOG][Proc: 0]p_rhs: call_update: 20.657 [ms]
[OGL LOG][Proc: 0]p: init_precond: 0.041 [ms]
[OGL LOG][StoppingCriterion.H:239] Creating stopping criterion with minIter 1857 frequency 20
[OGL LOG][Proc: 0]p: generate_solver: 0.032 [ms]
[OGL LOG][Proc: 0]p: solve: 16492.7 [ms]
[OGL LOG][Proc: 0]p: copy_x_back: 34.939 [ms]
[OGL LOG][lduLduBase.H:330] 
Statistics:
	Time per iteration: 5353 [mu s]
	Time per residual norm calculation: 1359.000000 [mu s]
	Time per iteration and DOF: 0.083641 [ns]
	Retrieve results bandwidth 1.831000 [GByte/s]
[OGL LOG][Proc: 0]p: solve_multi_gpu: 17466.9 [ms]
nonecudaGKOCG:  Solving for p, Initial residual = 0.845763, Final residual = 9.61699e-05, No Iterations 3081
[INFO] SolveP: 17887.5 [ms]
time step continuity errors : sum local = 6.01532e-09, global = 4.45752e-22, cumulative = 1.80116e-21
[INFO] ContinuityError: 196.122 [ms]
[INFO] CorrectBoundary: 2.039 [ms]
[INFO] PISOStep: 21184.1 [ms]
[INFO] TimeStep: 59717.7 [ms]
ExecutionTime = 584.77 s  ClockTime = 587 s

Time = 0.0007

Courant Number mean: 0.0212378 max: 0.424577
[INFO] MatrixAssemblyU: 1651.25 [ms]
DILUPBiCGStab:  Solving for Ux, Initial residual = 0.0246409, Final residual = 0.00234184, No Iterations 5
DILUPBiCGStab:  Solving for Uy, Initial residual = 0.0998188, Final residual = 0.00913874, No Iterations 5
DILUPBiCGStab:  Solving for Uz, Initial residual = 0.546812, Final residual = 0.0257024, No Iterations 5
[INFO] MomentumPredictor: 14955.3 [ms]
[INFO] MatrixAssemblyPI: 1852.39 [ms]
[INFO] AdjustPhi: 105.618 [ms]
[INFO] ConstrainPressure: 0.003 [ms]
[INFO] MatrixAssemblyPII: 583.011 [ms]
[OGL LOG][Proc: 0]: global_index_init: 0.02 [ms]
[OGL LOG][Proc: 0]p_local_coeffs: call_update: 0 [ms]
[OGL LOG][Proc: 0]p_non_local_coeffs: call_update: 0 [ms]
[OGL LOG][Proc: 0]p: update_local_matrix_data: 343.721 [ms]
[OGL LOG][Proc: 0]p: update_non_local_matrix_data: 3.388 [ms]
[OGL LOG][Proc: 0]p: regenerate_distributed_matrix: 912.421 [ms]
[OGL LOG][Proc: 0]p_matrix: call_update: 916.133 [ms]
[OGL LOG][Proc: 0]p_rhs: call_update: 21.13 [ms]
[OGL LOG][Proc: 0]p: init_precond: 0.042 [ms]
[OGL LOG][StoppingCriterion.H:239] Creating stopping criterion with minIter 1848 frequency 20
[OGL LOG][Proc: 0]p: generate_solver: 0.033 [ms]
[OGL LOG][Proc: 0]p: solve: 16762.2 [ms]
[OGL LOG][Proc: 0]p: copy_x_back: 35.721 [ms]
[OGL LOG][lduLduBase.H:330] 
Statistics:
	Time per iteration: 5440 [mu s]
	Time per residual norm calculation: 1359.000000 [mu s]
	Time per iteration and DOF: 0.085000 [ns]
	Retrieve results bandwidth 1.791000 [GByte/s]
[OGL LOG][Proc: 0]p: solve_multi_gpu: 17738.8 [ms]
nonecudaGKOCG:  Solving for p, Initial residual = 0.924732, Final residual = 9.21857e-05, No Iterations 3081
[INFO] SolveP: 18151.8 [ms]
time step continuity errors : sum local = 5.7188e-09, global = 7.97229e-22, cumulative = 2.59839e-21
[INFO] ContinuityError: 224.682 [ms]
[INFO] CorrectBoundary: 8.498 [ms]
[INFO] PISOStep: 21562.5 [ms]
[INFO] MatrixAssemblyPI: 1827.89 [ms]
[INFO] AdjustPhi: 105.233 [ms]
[INFO] ConstrainPressure: 0.002 [ms]
[INFO] MatrixAssemblyPII: 591.371 [ms]
[OGL LOG][Proc: 0]: global_index_init: 0.022 [ms]
[OGL LOG][Proc: 0]p_local_coeffs: call_update: 0 [ms]
[OGL LOG][Proc: 0]p_non_local_coeffs: call_update: 0 [ms]
[OGL LOG][Proc: 0]p: update_local_matrix_data: 343.087 [ms]
[OGL LOG][Proc: 0]p: update_non_local_matrix_data: 2.939 [ms]
[OGL LOG][Proc: 0]p: regenerate_distributed_matrix: 909.404 [ms]
[OGL LOG][Proc: 0]p_matrix: call_update: 912.79 [ms]
[OGL LOG][Proc: 0]p_rhs: call_update: 21.315 [ms]
[OGL LOG][Proc: 0]p: init_precond: 0.041 [ms]
[OGL LOG][StoppingCriterion.H:239] Creating stopping criterion with minIter 1848 frequency 17
[OGL LOG][Proc: 0]p: generate_solver: 0.033 [ms]
[OGL LOG][Proc: 0]p: solve: 16494 [ms]
[OGL LOG][Proc: 0]p: copy_x_back: 35.334 [ms]
[OGL LOG][lduLduBase.H:330] 
Statistics:
	Time per iteration: 5358 [mu s]
	Time per residual norm calculation: 1362.000000 [mu s]
	Time per iteration and DOF: 0.083719 [ns]
	Retrieve results bandwidth 1.811000 [GByte/s]
[OGL LOG][Proc: 0]p: solve_multi_gpu: 17468.3 [ms]
nonecudaGKOCG:  Solving for p, Initial residual = 0.881609, Final residual = 9.22968e-05, No Iterations 3078
[INFO] SolveP: 17879.8 [ms]
time step continuity errors : sum local = 5.66847e-09, global = 3.29138e-22, cumulative = 2.92753e-21
[INFO] ContinuityError: 211.949 [ms]
[INFO] CorrectBoundary: 1.904 [ms]
[INFO] PISOStep: 21262 [ms]
[INFO] TimeStep: 59616.3 [ms]
ExecutionTime = 644.08 s  ClockTime = 647 s

Time = 0.0008

Courant Number mean: 0.0226541 max: 0.387419
[INFO] MatrixAssemblyU: 1658.22 [ms]
DILUPBiCGStab:  Solving for Ux, Initial residual = 0.0226686, Final residual = 0.0022248, No Iterations 5
DILUPBiCGStab:  Solving for Uy, Initial residual = 0.0896435, Final residual = 0.00770157, No Iterations 5
DILUPBiCGStab:  Solving for Uz, Initial residual = 0.515348, Final residual = 0.0233784, No Iterations 5
[INFO] MomentumPredictor: 15057.2 [ms]
[INFO] MatrixAssemblyPI: 1834.21 [ms]
[INFO] AdjustPhi: 104.2 [ms]
[INFO] ConstrainPressure: 0.003 [ms]
[INFO] MatrixAssemblyPII: 575.172 [ms]
[OGL LOG][Proc: 0]: global_index_init: 0.016 [ms]
[OGL LOG][Proc: 0]p_local_coeffs: call_update: 0 [ms]
[OGL LOG][Proc: 0]p_non_local_coeffs: call_update: 0 [ms]
[OGL LOG][Proc: 0]p: update_local_matrix_data: 350.91 [ms]
[OGL LOG][Proc: 0]p: update_non_local_matrix_data: 3.29 [ms]
[OGL LOG][Proc: 0]p: regenerate_distributed_matrix: 909.792 [ms]
[OGL LOG][Proc: 0]p_matrix: call_update: 912.965 [ms]
[OGL LOG][Proc: 0]p_rhs: call_update: 20.502 [ms]
[OGL LOG][Proc: 0]p: init_precond: 0.036 [ms]
[OGL LOG][StoppingCriterion.H:239] Creating stopping criterion with minIter 1846 frequency 20
[OGL LOG][Proc: 0]p: generate_solver: 0.029 [ms]
[OGL LOG][Proc: 0]p: solve: 16211.7 [ms]
[OGL LOG][Proc: 0]p: copy_x_back: 35.086 [ms]
[OGL LOG][lduLduBase.H:330] 
Statistics:
	Time per iteration: 5438 [mu s]
	Time per residual norm calculation: 1356.000000 [mu s]
	Time per iteration and DOF: 0.084969 [ns]
	Retrieve results bandwidth 1.824000 [GByte/s]
[OGL LOG][Proc: 0]p: solve_multi_gpu: 17182.7 [ms]
nonecudaGKOCG:  Solving for p, Initial residual = 0.90922, Final residual = 9.17526e-05, No Iterations 2981
[INFO] SolveP: 17604.5 [ms]
time step continuity errors : sum local = 5.91966e-09, global = -4.09093e-23, cumulative = 2.88662e-21
[INFO] ContinuityError: 195.584 [ms]
[INFO] CorrectBoundary: 2.335 [ms]
[INFO] PISOStep: 20963.8 [ms]
[INFO] MatrixAssemblyPI: 1777.09 [ms]
[INFO] AdjustPhi: 103.241 [ms]
[INFO] ConstrainPressure: 0.002 [ms]
[INFO] MatrixAssemblyPII: 571.401 [ms]
[OGL LOG][Proc: 0]: global_index_init: 0.02 [ms]
[OGL LOG][Proc: 0]p_local_coeffs: call_update: 0 [ms]
[OGL LOG][Proc: 0]p_non_local_coeffs: call_update: 0 [ms]
[OGL LOG][Proc: 0]p: update_local_matrix_data: 355.156 [ms]
[OGL LOG][Proc: 0]p: update_non_local_matrix_data: 3.355 [ms]
[OGL LOG][Proc: 0]p: regenerate_distributed_matrix: 912.85 [ms]
[OGL LOG][Proc: 0]p_matrix: call_update: 916.485 [ms]
[OGL LOG][Proc: 0]p_rhs: call_update: 20.96 [ms]
[OGL LOG][Proc: 0]p: init_precond: 0.037 [ms]
[OGL LOG][StoppingCriterion.H:239] Creating stopping criterion with minIter 1788 frequency 17
[OGL LOG][Proc: 0]p: generate_solver: 0.034 [ms]
[OGL LOG][Proc: 0]p: solve: 16502.1 [ms]
[OGL LOG][Proc: 0]p: copy_x_back: 35.072 [ms]
[OGL LOG][lduLduBase.H:330] 
Statistics:
	Time per iteration: 5361 [mu s]
	Time per residual norm calculation: 1352.000000 [mu s]
	Time per iteration and DOF: 0.083766 [ns]
	Retrieve results bandwidth 1.824000 [GByte/s]
[OGL LOG][Proc: 0]p: solve_multi_gpu: 17477.4 [ms]
nonecudaGKOCG:  Solving for p, Initial residual = 0.84456, Final residual = 8.23991e-05, No Iterations 3078
[INFO] SolveP: 17894.8 [ms]
time step continuity errors : sum local = 5.39522e-09, global = 1.08377e-22, cumulative = 2.995e-21
[INFO] ContinuityError: 201.429 [ms]
[INFO] CorrectBoundary: 1.768 [ms]
[INFO] PISOStep: 21185.6 [ms]
[INFO] TimeStep: 59051.8 [ms]
ExecutionTime = 702.86 s  ClockTime = 706 s

Time = 0.0009

Courant Number mean: 0.0239786 max: 0.436553
[INFO] MatrixAssemblyU: 1657.37 [ms]
DILUPBiCGStab:  Solving for Ux, Initial residual = 0.0213053, Final residual = 0.00208874, No Iterations 5
DILUPBiCGStab:  Solving for Uy, Initial residual = 0.0863328, Final residual = 0.00734051, No Iterations 5
DILUPBiCGStab:  Solving for Uz, Initial residual = 0.514124, Final residual = 0.0218586, No Iterations 5
[INFO] MomentumPredictor: 13033.2 [ms]
[INFO] MatrixAssemblyPI: 1823.09 [ms]
[INFO] AdjustPhi: 103.577 [ms]
[INFO] ConstrainPressure: 0.002 [ms]
[INFO] MatrixAssemblyPII: 573.124 [ms]
[OGL LOG][Proc: 0]: global_index_init: 0.018 [ms]
[OGL LOG][Proc: 0]p_local_coeffs: call_update: 0 [ms]
[OGL LOG][Proc: 0]p_non_local_coeffs: call_update: 0 [ms]
[OGL LOG][Proc: 0]p: update_local_matrix_data: 349.715 [ms]
[OGL LOG][Proc: 0]p: update_non_local_matrix_data: 3.057 [ms]
[OGL LOG][Proc: 0]p: regenerate_distributed_matrix: 913.276 [ms]
[OGL LOG][Proc: 0]p_matrix: call_update: 916.662 [ms]
[OGL LOG][Proc: 0]p_rhs: call_update: 20.842 [ms]
[OGL LOG][Proc: 0]p: init_precond: 0.04 [ms]
[OGL LOG][StoppingCriterion.H:239] Creating stopping criterion with minIter 1846 frequency 20
[OGL LOG][Proc: 0]p: generate_solver: 0.033 [ms]
[OGL LOG][Proc: 0]p: solve: 16519.6 [ms]
[OGL LOG][Proc: 0]p: copy_x_back: 35.208 [ms]
[OGL LOG][lduLduBase.H:330] 
Statistics:
	Time per iteration: 5361 [mu s]
	Time per residual norm calculation: 1359.000000 [mu s]
	Time per iteration and DOF: 0.083766 [ns]
	Retrieve results bandwidth 1.817000 [GByte/s]
[OGL LOG][Proc: 0]p: solve_multi_gpu: 17494.9 [ms]
nonecudaGKOCG:  Solving for p, Initial residual = 0.925321, Final residual = 6.92445e-05, No Iterations 3081
[INFO] SolveP: 17915.7 [ms]
time step continuity errors : sum local = 4.53382e-09, global = -5.4917e-24, cumulative = 2.98951e-21
[INFO] ContinuityError: 194.952 [ms]
[INFO] CorrectBoundary: 2.288 [ms]
[INFO] PISOStep: 21254.5 [ms]
[INFO] MatrixAssemblyPI: 1777.48 [ms]
[INFO] AdjustPhi: 103.877 [ms]
[INFO] ConstrainPressure: 0.003 [ms]
[INFO] MatrixAssemblyPII: 571.185 [ms]
[OGL LOG][Proc: 0]: global_index_init: 0.019 [ms]
[OGL LOG][Proc: 0]p_local_coeffs: call_update: 0 [ms]
[OGL LOG][Proc: 0]p_non_local_coeffs: call_update: 0 [ms]
[OGL LOG][Proc: 0]p: update_local_matrix_data: 348.631 [ms]
[OGL LOG][Proc: 0]p: update_non_local_matrix_data: 3.276 [ms]
[OGL LOG][Proc: 0]p: regenerate_distributed_matrix: 912.923 [ms]
[OGL LOG][Proc: 0]p_matrix: call_update: 916.318 [ms]
[OGL LOG][Proc: 0]p_rhs: call_update: 20.715 [ms]
[OGL LOG][Proc: 0]p: init_precond: 0.047 [ms]
[OGL LOG][StoppingCriterion.H:239] Creating stopping criterion with minIter 1848 frequency 20
[OGL LOG][Proc: 0]p: generate_solver: 0.033 [ms]
[OGL LOG][Proc: 0]p: solve: 16393 [ms]
[OGL LOG][Proc: 0]p: copy_x_back: 35.053 [ms]
[OGL LOG][lduLduBase.H:330] 
Statistics:
	Time per iteration: 5355 [mu s]
	Time per residual norm calculation: 1354.000000 [mu s]
	Time per iteration and DOF: 0.083672 [ns]
	Retrieve results bandwidth 1.825000 [GByte/s]
[OGL LOG][Proc: 0]p: solve_multi_gpu: 17367.9 [ms]
nonecudaGKOCG:  Solving for p, Initial residual = 0.877348, Final residual = 9.7818e-05, No Iterations 3061
[INFO] SolveP: 17778.8 [ms]
time step continuity errors : sum local = 6.34824e-09, global = 8.49261e-22, cumulative = 3.83877e-21
[INFO] ContinuityError: 194.679 [ms]
[INFO] CorrectBoundary: 2.492 [ms]
[INFO] PISOStep: 21079.1 [ms]
[INFO] TimeStep: 57227.8 [ms]
ExecutionTime = 759.94 s  ClockTime = 763 s

Time = 0.001

Courant Number mean: 0.0251376 max: 0.390967
[INFO] MatrixAssemblyU: 1661.65 [ms]
DILUPBiCGStab:  Solving for Ux, Initial residual = 0.0204522, Final residual = 0.00201223, No Iterations 5
DILUPBiCGStab:  Solving for Uy, Initial residual = 0.0789679, Final residual = 0.00636223, No Iterations 5
DILUPBiCGStab:  Solving for Uz, Initial residual = 0.501915, Final residual = 0.020828, No Iterations 5
[INFO] MomentumPredictor: 15135.4 [ms]
[INFO] MatrixAssemblyPI: 1826.28 [ms]
[INFO] AdjustPhi: 104.076 [ms]
[INFO] ConstrainPressure: 0.002 [ms]
[INFO] MatrixAssemblyPII: 591.869 [ms]
[OGL LOG][Proc: 0]: global_index_init: 3.947 [ms]
[OGL LOG][Proc: 0]p_local_coeffs: call_update: 0 [ms]
[OGL LOG][Proc: 0]p_non_local_coeffs: call_update: 0 [ms]
[OGL LOG][Proc: 0]p: update_local_matrix_data: 345.936 [ms]
[OGL LOG][Proc: 0]p: update_non_local_matrix_data: 3.518 [ms]
[OGL LOG][Proc: 0]p: regenerate_distributed_matrix: 908.065 [ms]
[OGL LOG][Proc: 0]p_matrix: call_update: 911.632 [ms]
[OGL LOG][Proc: 0]p_rhs: call_update: 20.51 [ms]
[OGL LOG][Proc: 0]p: init_precond: 0.049 [ms]
[OGL LOG][StoppingCriterion.H:239] Creating stopping criterion with minIter 1836 frequency 20
[OGL LOG][Proc: 0]p: generate_solver: 0.039 [ms]
[OGL LOG][Proc: 0]p: solve: 16500.5 [ms]
[OGL LOG][Proc: 0]p: copy_x_back: 34.787 [ms]
[OGL LOG][lduLduBase.H:330] 
Statistics:
	Time per iteration: 5355 [mu s]
	Time per residual norm calculation: 1506.000000 [mu s]
	Time per iteration and DOF: 0.083672 [ns]
	Retrieve results bandwidth 1.839000 [GByte/s]
[OGL LOG][Proc: 0]p: solve_multi_gpu: 17469.9 [ms]
nonecudaGKOCG:  Solving for p, Initial residual = 0.913269, Final residual = 7.35983e-05, No Iterations 3081
[INFO] SolveP: 17883.6 [ms]
time step continuity errors : sum local = 5.0892e-09, global = 3.36399e-22, cumulative = 4.17517e-21
[INFO] ContinuityError: 207.583 [ms]
[INFO] CorrectBoundary: 2.076 [ms]
[INFO] PISOStep: 21253.5 [ms]
[INFO] MatrixAssemblyPI: 1783.82 [ms]
[INFO] AdjustPhi: 103.859 [ms]
[INFO] ConstrainPressure: 0.003 [ms]
[INFO] MatrixAssemblyPII: 572.111 [ms]
[OGL LOG][Proc: 0]: global_index_init: 5.79 [ms]
[OGL LOG][Proc: 0]p_local_coeffs: call_update: 0 [ms]
[OGL LOG][Proc: 0]p_non_local_coeffs: call_update: 0 [ms]
[OGL LOG][Proc: 0]p: update_local_matrix_data: 354.058 [ms]
[OGL LOG][Proc: 0]p: update_non_local_matrix_data: 3.016 [ms]
[OGL LOG][Proc: 0]p: regenerate_distributed_matrix: 914.165 [ms]
[OGL LOG][Proc: 0]p_matrix: call_update: 917.066 [ms]
[OGL LOG][Proc: 0]p_rhs: call_update: 21.133 [ms]
[OGL LOG][Proc: 0]p: init_precond: 0.038 [ms]
[OGL LOG][StoppingCriterion.H:239] Creating stopping criterion with minIter 1848 frequency 20
[OGL LOG][Proc: 0]p: generate_solver: 0.028 [ms]
[OGL LOG][Proc: 0]p: solve: 16386.9 [ms]
[OGL LOG][Proc: 0]p: copy_x_back: 35.464 [ms]
[OGL LOG][lduLduBase.H:330] 
Statistics:
	Time per iteration: 5353 [mu s]
	Time per residual norm calculation: 1506.000000 [mu s]
	Time per iteration and DOF: 0.083641 [ns]
	Retrieve results bandwidth 1.804000 [GByte/s]
[OGL LOG][Proc: 0]p: solve_multi_gpu: 17363.5 [ms]
nonecudaGKOCG:  Solving for p, Initial residual = 0.844836, Final residual = 9.98387e-05, No Iterations 3061
[INFO] SolveP: 17794 [ms]
time step continuity errors : sum local = 6.9987e-09, global = 1.60677e-22, cumulative = 4.33584e-21
[INFO] ContinuityError: 202.911 [ms]
[INFO] CorrectBoundary: 8.476 [ms]
[INFO] PISOStep: 21104.1 [ms]
[INFO] TimeStep: 59361 [ms]
ExecutionTime = 819.17 s  ClockTime = 822 s

Time = 0.0011

Courant Number mean: 0.0262535 max: 0.450737
[INFO] MatrixAssemblyU: 1666.22 [ms]
DILUPBiCGStab:  Solving for Ux, Initial residual = 0.0195074, Final residual = 0.00188518, No Iterations 5
DILUPBiCGStab:  Solving for Uy, Initial residual = 0.0789905, Final residual = 0.00621724, No Iterations 5
DILUPBiCGStab:  Solving for Uz, Initial residual = 0.509015, Final residual = 0.0200069, No Iterations 5
[INFO] MomentumPredictor: 13028.5 [ms]
[INFO] MatrixAssemblyPI: 1992.05 [ms]
[INFO] AdjustPhi: 104.101 [ms]
[INFO] ConstrainPressure: 0.002 [ms]
[INFO] MatrixAssemblyPII: 576.448 [ms]
[OGL LOG][Proc: 0]: global_index_init: 0.021 [ms]
[OGL LOG][Proc: 0]p_local_coeffs: call_update: 0 [ms]
[OGL LOG][Proc: 0]p_non_local_coeffs: call_update: 0 [ms]
[OGL LOG][Proc: 0]p: update_local_matrix_data: 352.863 [ms]
[OGL LOG][Proc: 0]p: update_non_local_matrix_data: 3.268 [ms]
[OGL LOG][Proc: 0]p: regenerate_distributed_matrix: 909.806 [ms]
[OGL LOG][Proc: 0]p_matrix: call_update: 912.465 [ms]
[OGL LOG][Proc: 0]p_rhs: call_update: 20.837 [ms]
[OGL LOG][Proc: 0]p: init_precond: 0.039 [ms]
[OGL LOG][StoppingCriterion.H:239] Creating stopping criterion with minIter 1836 frequency 20
[OGL LOG][Proc: 0]p: generate_solver: 0.032 [ms]
[OGL LOG][Proc: 0]p: solve: 14908 [ms]
[OGL LOG][Proc: 0]p: copy_x_back: 35.263 [ms]
[OGL LOG][lduLduBase.H:330] 
Statistics:
	Time per iteration: 5360 [mu s]
	Time per residual norm calculation: 1211.000000 [mu s]
	Time per iteration and DOF: 0.083750 [ns]
	Retrieve results bandwidth 1.814000 [GByte/s]
[OGL LOG][Proc: 0]p: solve_multi_gpu: 15879.1 [ms]
nonecudaGKOCG:  Solving for p, Initial residual = 0.928898, Final residual = 8.36633e-05, No Iterations 2781
[INFO] SolveP: 16295.6 [ms]
time step continuity errors : sum local = 5.95328e-09, global = 5.66453e-22, cumulative = 4.9023e-21
[INFO] ContinuityError: 201.652 [ms]
[INFO] CorrectBoundary: 2.252 [ms]
[INFO] PISOStep: 19809.6 [ms]
[INFO] MatrixAssemblyPI: 1783.83 [ms]
[INFO] AdjustPhi: 104.745 [ms]
[INFO] ConstrainPressure: 0.003 [ms]
[INFO] MatrixAssemblyPII: 572.955 [ms]
[OGL LOG][Proc: 0]: global_index_init: 0.016 [ms]
[OGL LOG][Proc: 0]p_local_coeffs: call_update: 0 [ms]
[OGL LOG][Proc: 0]p_non_local_coeffs: call_update: 0 [ms]
[OGL LOG][Proc: 0]p: update_local_matrix_data: 352.039 [ms]
[OGL LOG][Proc: 0]p: update_non_local_matrix_data: 2.958 [ms]
[OGL LOG][Proc: 0]p: regenerate_distributed_matrix: 911.152 [ms]
[OGL LOG][Proc: 0]p_matrix: call_update: 915.059 [ms]
[OGL LOG][Proc: 0]p_rhs: call_update: 20.373 [ms]
[OGL LOG][Proc: 0]p: init_precond: 0.042 [ms]
[OGL LOG][StoppingCriterion.H:239] Creating stopping criterion with minIter 1668 frequency 16
[OGL LOG][Proc: 0]p: generate_solver: 0.029 [ms]
[OGL LOG][Proc: 0]p: solve: 15096.4 [ms]
[OGL LOG][Proc: 0]p: copy_x_back: 34.936 [ms]
[OGL LOG][lduLduBase.H:330] 
Statistics:
	Time per iteration: 5420 [mu s]
	Time per residual norm calculation: 1362.000000 [mu s]
	Time per iteration and DOF: 0.084687 [ns]
	Retrieve results bandwidth 1.831000 [GByte/s]
[OGL LOG][Proc: 0]p: solve_multi_gpu: 16069.2 [ms]
nonecudaGKOCG:  Solving for p, Initial residual = 0.876096, Final residual = 7.75757e-05, No Iterations 2785
[INFO] SolveP: 16491.4 [ms]
time step continuity errors : sum local = 5.47924e-09, global = 3.31348e-22, cumulative = 5.23364e-21
[INFO] ContinuityError: 194.934 [ms]
[INFO] CorrectBoundary: 2.097 [ms]
[INFO] PISOStep: 19798 [ms]
[INFO] TimeStep: 54513.3 [ms]
ExecutionTime = 873.48 s  ClockTime = 877 s

Time = 0.0012

Courant Number mean: 0.027242 max: 0.395312
[INFO] MatrixAssemblyU: 1659.04 [ms]
DILUPBiCGStab:  Solving for Ux, Initial residual = 0.0192347, Final residual = 0.00184301, No Iterations 5
DILUPBiCGStab:  Solving for Uy, Initial residual = 0.0734658, Final residual = 0.00547677, No Iterations 5
DILUPBiCGStab:  Solving for Uz, Initial residual = 0.504963, Final residual = 0.0194648, No Iterations 5
[INFO] MomentumPredictor: 15146.8 [ms]
[INFO] MatrixAssemblyPI: 1827.91 [ms]
[INFO] AdjustPhi: 103.751 [ms]
[INFO] ConstrainPressure: 0.002 [ms]
[INFO] MatrixAssemblyPII: 573.748 [ms]
[OGL LOG][Proc: 0]: global_index_init: 0.024 [ms]
[OGL LOG][Proc: 0]p_local_coeffs: call_update: 0 [ms]
[OGL LOG][Proc: 0]p_non_local_coeffs: call_update: 0 [ms]
[OGL LOG][Proc: 0]p: update_local_matrix_data: 354.445 [ms]
[OGL LOG][Proc: 0]p: update_non_local_matrix_data: 3.292 [ms]
[OGL LOG][Proc: 0]p: regenerate_distributed_matrix: 910.009 [ms]
[OGL LOG][Proc: 0]p_matrix: call_update: 913.267 [ms]
[OGL LOG][Proc: 0]p_rhs: call_update: 20.488 [ms]
[OGL LOG][Proc: 0]p: init_precond: 0.052 [ms]
[OGL LOG][StoppingCriterion.H:239] Creating stopping criterion with minIter 1671 frequency 19
[OGL LOG][Proc: 0]p: generate_solver: 0.039 [ms]
[OGL LOG][Proc: 0]p: solve: 16401.5 [ms]
[OGL LOG][Proc: 0]p: copy_x_back: 35.477 [ms]
[OGL LOG][lduLduBase.H:330] 
Statistics:
	Time per iteration: 5359 [mu s]
	Time per residual norm calculation: 1353.000000 [mu s]
	Time per iteration and DOF: 0.083734 [ns]
	Retrieve results bandwidth 1.803000 [GByte/s]
[OGL LOG][Proc: 0]p: solve_multi_gpu: 17373.5 [ms]
nonecudaGKOCG:  Solving for p, Initial residual = 0.918902, Final residual = 9.93809e-05, No Iterations 3060
[INFO] SolveP: 17790.1 [ms]
time step continuity errors : sum local = 7.50887e-09, global = 4.98281e-22, cumulative = 5.73193e-21
[INFO] ContinuityError: 206.286 [ms]
[INFO] CorrectBoundary: 1.841 [ms]
[INFO] PISOStep: 21145.2 [ms]
[INFO] MatrixAssemblyPI: 1781.15 [ms]
[INFO] AdjustPhi: 104.248 [ms]
[INFO] ConstrainPressure: 0.002 [ms]
[INFO] MatrixAssemblyPII: 571.281 [ms]
[OGL LOG][Proc: 0]: global_index_init: 12.248 [ms]
[OGL LOG][Proc: 0]p_local_coeffs: call_update: 0 [ms]
[OGL LOG][Proc: 0]p_non_local_coeffs: call_update: 0 [ms]
[OGL LOG][Proc: 0]p: update_local_matrix_data: 356.615 [ms]
[OGL LOG][Proc: 0]p: update_non_local_matrix_data: 2.992 [ms]
[OGL LOG][Proc: 0]p: regenerate_distributed_matrix: 911.266 [ms]
[OGL LOG][Proc: 0]p_matrix: call_update: 914.451 [ms]
[OGL LOG][Proc: 0]p_rhs: call_update: 21.278 [ms]
[OGL LOG][Proc: 0]p: init_precond: 0.047 [ms]
[OGL LOG][StoppingCriterion.H:239] Creating stopping criterion with minIter 1836 frequency 20
[OGL LOG][Proc: 0]p: generate_solver: 0.04 [ms]
[OGL LOG][Proc: 0]p: solve: 16641.7 [ms]
[OGL LOG][Proc: 0]p: copy_x_back: 34.84 [ms]
[OGL LOG][lduLduBase.H:330] 
Statistics:
	Time per iteration: 5436 [mu s]
	Time per residual norm calculation: 1362.000000 [mu s]
	Time per iteration and DOF: 0.084937 [ns]
	Retrieve results bandwidth 1.836000 [GByte/s]
[OGL LOG][Proc: 0]p: solve_multi_gpu: 17614.7 [ms]
nonecudaGKOCG:  Solving for p, Initial residual = 0.848536, Final residual = 8.77142e-05, No Iterations 3061
[INFO] SolveP: 18052 [ms]
time step continuity errors : sum local = 6.71024e-09, global = 3.55597e-22, cumulative = 6.08752e-21
[INFO] ContinuityError: 194.057 [ms]
[INFO] CorrectBoundary: 2.061 [ms]
[INFO] PISOStep: 21365.8 [ms]
[INFO] TimeStep: 59519.7 [ms]
ExecutionTime = 932.72 s  ClockTime = 936 s

Time = 0.0013

Courant Number mean: 0.0282157 max: 0.468187
[INFO] MatrixAssemblyU: 1693.21 [ms]
DILUPBiCGStab:  Solving for Ux, Initial residual = 0.0185755, Final residual = 0.00171952, No Iterations 5
DILUPBiCGStab:  Solving for Uy, Initial residual = 0.0750862, Final residual = 0.00545167, No Iterations 5
DILUPBiCGStab:  Solving for Uz, Initial residual = 0.516616, Final residual = 0.0191977, No Iterations 5
[INFO] MomentumPredictor: 12988.9 [ms]
[INFO] MatrixAssemblyPI: 1985.5 [ms]
[INFO] AdjustPhi: 104.068 [ms]
[INFO] ConstrainPressure: 0.003 [ms]
[INFO] MatrixAssemblyPII: 572.45 [ms]
[OGL LOG][Proc: 0]: global_index_init: 0.02 [ms]
[OGL LOG][Proc: 0]p_local_coeffs: call_update: 0 [ms]
[OGL LOG][Proc: 0]p_non_local_coeffs: call_update: 0 [ms]
[OGL LOG][Proc: 0]p: update_local_matrix_data: 344.209 [ms]
[OGL LOG][Proc: 0]p: update_non_local_matrix_data: 3.323 [ms]
[OGL LOG][Proc: 0]p: regenerate_distributed_matrix: 914.11 [ms]
[OGL LOG][Proc: 0]p_matrix: call_update: 918.336 [ms]
[OGL LOG][Proc: 0]p_rhs: call_update: 20.741 [ms]
[OGL LOG][Proc: 0]p: init_precond: 0.04 [ms]
[OGL LOG][StoppingCriterion.H:239] Creating stopping criterion with minIter 1836 frequency 20
[OGL LOG][Proc: 0]p: generate_solver: 0.028 [ms]
[OGL LOG][Proc: 0]p: solve: 15024.6 [ms]
[OGL LOG][Proc: 0]p: copy_x_back: 35.363 [ms]
[OGL LOG][lduLduBase.H:330] 
Statistics:
	Time per iteration: 5364 [mu s]
	Time per residual norm calculation: 1357.000000 [mu s]
	Time per iteration and DOF: 0.083812 [ns]
	Retrieve results bandwidth 1.809000 [GByte/s]
[OGL LOG][Proc: 0]p: solve_multi_gpu: 16002 [ms]
nonecudaGKOCG:  Solving for p, Initial residual = 0.933029, Final residual = 9.49751e-05, No Iterations 2801
[INFO] SolveP: 16417 [ms]
time step continuity errors : sum local = 7.42943e-09, global = 1.03156e-21, cumulative = 7.11908e-21
[INFO] ContinuityError: 194.681 [ms]
[INFO] CorrectBoundary: 6.399 [ms]
[INFO] PISOStep: 19919.5 [ms]
[INFO] MatrixAssemblyPI: 1770 [ms]
[INFO] AdjustPhi: 103.509 [ms]
[INFO] ConstrainPressure: 0.003 [ms]
[INFO] MatrixAssemblyPII: 571.229 [ms]
[OGL LOG][Proc: 0]: global_index_init: 0.022 [ms]
[OGL LOG][Proc: 0]p_local_coeffs: call_update: 0 [ms]
[OGL LOG][Proc: 0]p_non_local_coeffs: call_update: 0 [ms]
[OGL LOG][Proc: 0]p: update_local_matrix_data: 343.338 [ms]
[OGL LOG][Proc: 0]p: update_non_local_matrix_data: 2.953 [ms]
[OGL LOG][Proc: 0]p: regenerate_distributed_matrix: 924.799 [ms]
[OGL LOG][Proc: 0]p_matrix: call_update: 927.204 [ms]
[OGL LOG][Proc: 0]p_rhs: call_update: 19.825 [ms]
[OGL LOG][Proc: 0]p: init_precond: 0.054 [ms]
[OGL LOG][StoppingCriterion.H:239] Creating stopping criterion with minIter 1680 frequency 19
[OGL LOG][Proc: 0]p: generate_solver: 0.032 [ms]
[OGL LOG][Proc: 0]p: solve: 15258.3 [ms]
[OGL LOG][Proc: 0]p: copy_x_back: 34.341 [ms]
[OGL LOG][lduLduBase.H:330] 
Statistics:
	Time per iteration: 5461 [mu s]
	Time per residual norm calculation: 1363.000000 [mu s]
	Time per iteration and DOF: 0.085328 [ns]
	Retrieve results bandwidth 1.863000 [GByte/s]
[OGL LOG][Proc: 0]p: solve_multi_gpu: 16248.7 [ms]
nonecudaGKOCG:  Solving for p, Initial residual = 0.876545, Final residual = 8.55803e-05, No Iterations 2794
[INFO] SolveP: 16657.6 [ms]
time step continuity errors : sum local = 6.65456e-09, global = 4.28273e-22, cumulative = 7.54735e-21
[INFO] ContinuityError: 197.571 [ms]
[INFO] CorrectBoundary: 1.994 [ms]
[INFO] PISOStep: 19948.3 [ms]
[INFO] TimeStep: 54754 [ms]
ExecutionTime = 987.19 s  ClockTime = 991 s

Time = 0.0014

Courant Number mean: 0.0290816 max: 0.400373
[INFO] MatrixAssemblyU: 1685.55 [ms]
DILUPBiCGStab:  Solving for Ux, Initial residual = 0.0186554, Final residual = 0.00170376, No Iterations 5
DILUPBiCGStab:  Solving for Uy, Initial residual = 0.0710244, Final residual = 0.00486512, No Iterations 5
DILUPBiCGStab:  Solving for Uz, Initial residual = 0.523713, Final residual = 0.0204985, No Iterations 5
[INFO] MomentumPredictor: 12988.5 [ms]
[INFO] MatrixAssemblyPI: 1831.32 [ms]
[INFO] AdjustPhi: 104.107 [ms]
[INFO] ConstrainPressure: 0.002 [ms]
[INFO] MatrixAssemblyPII: 571.18 [ms]
[OGL LOG][Proc: 0]: global_index_init: 0.016 [ms]
[OGL LOG][Proc: 0]p_local_coeffs: call_update: 0 [ms]
[OGL LOG][Proc: 0]p_non_local_coeffs: call_update: 0 [ms]
[OGL LOG][Proc: 0]p: update_local_matrix_data: 345.216 [ms]
[OGL LOG][Proc: 0]p: update_non_local_matrix_data: 3.374 [ms]
[OGL LOG][Proc: 0]p: regenerate_distributed_matrix: 911.692 [ms]
[OGL LOG][Proc: 0]p_matrix: call_update: 915.416 [ms]
[OGL LOG][Proc: 0]p_rhs: call_update: 21.024 [ms]
[OGL LOG][Proc: 0]p: init_precond: 0.059 [ms]
[OGL LOG][StoppingCriterion.H:239] Creating stopping criterion with minIter 1676 frequency 16
[OGL LOG][Proc: 0]p: generate_solver: 0.037 [ms]
[OGL LOG][Proc: 0]p: solve: 16740.2 [ms]
[OGL LOG][Proc: 0]p: copy_x_back: 35.393 [ms]
[OGL LOG][lduLduBase.H:330] 
Statistics:
	Time per iteration: 5447 [mu s]
	Time per residual norm calculation: 1357.000000 [mu s]
	Time per iteration and DOF: 0.085109 [ns]
	Retrieve results bandwidth 1.808000 [GByte/s]
[OGL LOG][Proc: 0]p: solve_multi_gpu: 17714.5 [ms]
nonecudaGKOCG:  Solving for p, Initial residual = 0.924342, Final residual = 7.86898e-05, No Iterations 3073
[INFO] SolveP: 18131.6 [ms]
time step continuity errors : sum local = 6.54128e-09, global = 1.05102e-21, cumulative = 8.59838e-21
[INFO] ContinuityError: 196.89 [ms]
[INFO] CorrectBoundary: 2.309 [ms]
[INFO] PISOStep: 21492.1 [ms]
[INFO] MatrixAssemblyPI: 1770.85 [ms]
[INFO] AdjustPhi: 109.745 [ms]
[INFO] ConstrainPressure: 0.003 [ms]
[INFO] MatrixAssemblyPII: 570.705 [ms]
[OGL LOG][Proc: 0]: global_index_init: 0.022 [ms]
[OGL LOG][Proc: 0]p_local_coeffs: call_update: 0 [ms]
[OGL LOG][Proc: 0]p_non_local_coeffs: call_update: 0 [ms]
[OGL LOG][Proc: 0]p: update_local_matrix_data: 342.476 [ms]
[OGL LOG][Proc: 0]p: update_non_local_matrix_data: 3.3 [ms]
[OGL LOG][Proc: 0]p: regenerate_distributed_matrix: 910.565 [ms]
[OGL LOG][Proc: 0]p_matrix: call_update: 913.602 [ms]
[OGL LOG][Proc: 0]p_rhs: call_update: 21.27 [ms]
[OGL LOG][Proc: 0]p: init_precond: 0.043 [ms]
[OGL LOG][StoppingCriterion.H:239] Creating stopping criterion with minIter 1843 frequency 17
[OGL LOG][Proc: 0]p: generate_solver: 0.031 [ms]
[OGL LOG][Proc: 0]p: solve: 16701.4 [ms]
[OGL LOG][Proc: 0]p: copy_x_back: 34.427 [ms]
[OGL LOG][lduLduBase.H:330] 
Statistics:
	Time per iteration: 5456 [mu s]
	Time per residual norm calculation: 1212.000000 [mu s]
	Time per iteration and DOF: 0.085250 [ns]
	Retrieve results bandwidth 1.859000 [GByte/s]
[OGL LOG][Proc: 0]p: solve_multi_gpu: 17675 [ms]
nonecudaGKOCG:  Solving for p, Initial residual = 0.852716, Final residual = 9.04431e-05, No Iterations 3061
[INFO] SolveP: 18080.6 [ms]
time step continuity errors : sum local = 7.60221e-09, global = 4.10928e-22, cumulative = 9.0093e-21
[INFO] ContinuityError: 203.846 [ms]
[INFO] CorrectBoundary: 1.93 [ms]
[INFO] PISOStep: 21373.4 [ms]
[INFO] TimeStep: 57743.4 [ms]
ExecutionTime = 1044.51 s  ClockTime = 1049 s

Time = 0.0015

Courant Number mean: 0.0299519 max: 0.489744
[INFO] MatrixAssemblyU: 1690.59 [ms]
DILUPBiCGStab:  Solving for Ux, Initial residual = 0.0182578, Final residual = 0.0015921, No Iterations 5
DILUPBiCGStab:  Solving for Uy, Initial residual = 0.0735094, Final residual = 0.00490999, No Iterations 5
DILUPBiCGStab:  Solving for Uz, Initial residual = 0.532075, Final residual = 0.0189279, No Iterations 5
[INFO] MomentumPredictor: 13001.7 [ms]
[INFO] MatrixAssemblyPI: 1988.49 [ms]
[INFO] AdjustPhi: 104.191 [ms]
[INFO] ConstrainPressure: 0.002 [ms]
[INFO] MatrixAssemblyPII: 578.419 [ms]
[OGL LOG][Proc: 0]: global_index_init: 0.017 [ms]
[OGL LOG][Proc: 0]p_local_coeffs: call_update: 0 [ms]
[OGL LOG][Proc: 0]p_non_local_coeffs: call_update: 0 [ms]
[OGL LOG][Proc: 0]p: update_local_matrix_data: 343.223 [ms]
[OGL LOG][Proc: 0]p: update_non_local_matrix_data: 2.931 [ms]
[OGL LOG][Proc: 0]p: regenerate_distributed_matrix: 912.189 [ms]
[OGL LOG][Proc: 0]p_matrix: call_update: 916.254 [ms]
[OGL LOG][Proc: 0]p_rhs: call_update: 21.22 [ms]
[OGL LOG][Proc: 0]p: init_precond: 0.044 [ms]
[OGL LOG][StoppingCriterion.H:239] Creating stopping criterion with minIter 1836 frequency 17
[OGL LOG][Proc: 0]p: generate_solver: 0.044 [ms]
[OGL LOG][Proc: 0]p: solve: 16589.9 [ms]
[OGL LOG][Proc: 0]p: copy_x_back: 35.154 [ms]
[OGL LOG][lduLduBase.H:330] 
Statistics:
	Time per iteration: 5450 [mu s]
	Time per residual norm calculation: 1354.000000 [mu s]
	Time per iteration and DOF: 0.085156 [ns]
	Retrieve results bandwidth 1.820000 [GByte/s]
[OGL LOG][Proc: 0]p: solve_multi_gpu: 17565.1 [ms]
nonecudaGKOCG:  Solving for p, Initial residual = 0.937158, Final residual = 9.96682e-05, No Iterations 3044
[INFO] SolveP: 17974.1 [ms]
time step continuity errors : sum local = 8.61103e-09, global = 8.02484e-22, cumulative = 9.81179e-21
[INFO] ContinuityError: 202.032 [ms]
[INFO] CorrectBoundary: 2.343 [ms]
[INFO] PISOStep: 21504 [ms]
[INFO] MatrixAssemblyPI: 1774.3 [ms]
[INFO] AdjustPhi: 103.768 [ms]
[INFO] ConstrainPressure: 0.003 [ms]
[INFO] MatrixAssemblyPII: 571.023 [ms]
[OGL LOG][Proc: 0]: global_index_init: 0.021 [ms]
[OGL LOG][Proc: 0]p_local_coeffs: call_update: 0 [ms]
[OGL LOG][Proc: 0]p_non_local_coeffs: call_update: 0 [ms]
[OGL LOG][Proc: 0]p: update_local_matrix_data: 342.897 [ms]
[OGL LOG][Proc: 0]p: update_non_local_matrix_data: 3.315 [ms]
[OGL LOG][Proc: 0]p: regenerate_distributed_matrix: 909.439 [ms]
[OGL LOG][Proc: 0]p_matrix: call_update: 912.85 [ms]
[OGL LOG][Proc: 0]p_rhs: call_update: 20.817 [ms]
[OGL LOG][Proc: 0]p: init_precond: 0.035 [ms]
[OGL LOG][StoppingCriterion.H:239] Creating stopping criterion with minIter 1826 frequency 17
[OGL LOG][Proc: 0]p: generate_solver: 0.026 [ms]
[OGL LOG][Proc: 0]p: solve: 16604.3 [ms]
[OGL LOG][Proc: 0]p: copy_x_back: 34.268 [ms]
[OGL LOG][lduLduBase.H:330] 
Statistics:
	Time per iteration: 5454 [mu s]
	Time per residual norm calculation: 1208.000000 [mu s]
	Time per iteration and DOF: 0.085219 [ns]
	Retrieve results bandwidth 1.867000 [GByte/s]
[OGL LOG][Proc: 0]p: solve_multi_gpu: 17574.8 [ms]
nonecudaGKOCG:  Solving for p, Initial residual = 0.877196, Final residual = 9.41324e-05, No Iterations 3044
[INFO] SolveP: 17989 [ms]
time step continuity errors : sum local = 8.09531e-09, global = 7.80083e-23, cumulative = 9.8898e-21
[INFO] ContinuityError: 197.228 [ms]
[INFO] CorrectBoundary: 7.486 [ms]
[INFO] PISOStep: 21284.6 [ms]
[INFO] TimeStep: 57688.8 [ms]
ExecutionTime = 1101.73 s  ClockTime = 1107 s

Time = 0.0016

Courant Number mean: 0.030725 max: 0.4065
[INFO] MatrixAssemblyU: 1683.44 [ms]
DILUPBiCGStab:  Solving for Ux, Initial residual = 0.0185708, Final residual = 0.00159098, No Iterations 5
DILUPBiCGStab:  Solving for Uy, Initial residual = 0.070656, Final residual = 0.00443705, No Iterations 5
DILUPBiCGStab:  Solving for Uz, Initial residual = 0.535508, Final residual = 0.01901, No Iterations 5
[INFO] MomentumPredictor: 15063.4 [ms]
[INFO] MatrixAssemblyPI: 1828.45 [ms]
[INFO] AdjustPhi: 107.386 [ms]
[INFO] ConstrainPressure: 0.004 [ms]
[INFO] MatrixAssemblyPII: 595.841 [ms]
[OGL LOG][Proc: 0]: global_index_init: 0.02 [ms]
[OGL LOG][Proc: 0]p_local_coeffs: call_update: 0 [ms]
[OGL LOG][Proc: 0]p_non_local_coeffs: call_update: 0 [ms]
[OGL LOG][Proc: 0]p: update_local_matrix_data: 348.588 [ms]
[OGL LOG][Proc: 0]p: update_non_local_matrix_data: 3.045 [ms]
[OGL LOG][Proc: 0]p: regenerate_distributed_matrix: 911.688 [ms]
[OGL LOG][Proc: 0]p_matrix: call_update: 915.213 [ms]
[OGL LOG][Proc: 0]p_rhs: call_update: 20.988 [ms]
[OGL LOG][Proc: 0]p: init_precond: 0.059 [ms]
[OGL LOG][StoppingCriterion.H:239] Creating stopping criterion with minIter 1826 frequency 17
[OGL LOG][Proc: 0]p: generate_solver: 0.039 [ms]
[OGL LOG][Proc: 0]p: solve: 16753.4 [ms]
[OGL LOG][Proc: 0]p: copy_x_back: 34.787 [ms]
[OGL LOG][lduLduBase.H:330] 
Statistics:
	Time per iteration: 5442 [mu s]
	Time per residual norm calculation: 1356.000000 [mu s]
	Time per iteration and DOF: 0.085031 [ns]
	Retrieve results bandwidth 1.839000 [GByte/s]
[OGL LOG][Proc: 0]p: solve_multi_gpu: 17726.9 [ms]
nonecudaGKOCG:  Solving for p, Initial residual = 0.929885, Final residual = 7.47664e-05, No Iterations 3078
[INFO] SolveP: 18139.9 [ms]
time step continuity errors : sum local = 6.87167e-09, global = 2.11993e-22, cumulative = 1.01018e-20
[INFO] ContinuityError: 209.505 [ms]
[INFO] CorrectBoundary: 2.137 [ms]
[INFO] PISOStep: 21522.2 [ms]
[INFO] MatrixAssemblyPI: 1785.12 [ms]
[INFO] AdjustPhi: 103.475 [ms]
[INFO] ConstrainPressure: 0.002 [ms]
[INFO] MatrixAssemblyPII: 571.498 [ms]
[OGL LOG][Proc: 0]: global_index_init: 0.018 [ms]
[OGL LOG][Proc: 0]p_local_coeffs: call_update: 0 [ms]
[OGL LOG][Proc: 0]p_non_local_coeffs: call_update: 0 [ms]
[OGL LOG][Proc: 0]p: update_local_matrix_data: 348.6 [ms]
[OGL LOG][Proc: 0]p: update_non_local_matrix_data: 3.327 [ms]
[OGL LOG][Proc: 0]p: regenerate_distributed_matrix: 912.069 [ms]
[OGL LOG][Proc: 0]p_matrix: call_update: 915.806 [ms]
[OGL LOG][Proc: 0]p_rhs: call_update: 21.318 [ms]
[OGL LOG][Proc: 0]p: init_precond: 0.035 [ms]
[OGL LOG][StoppingCriterion.H:239] Creating stopping criterion with minIter 1846 frequency 17
[OGL LOG][Proc: 0]p: generate_solver: 0.027 [ms]
[OGL LOG][Proc: 0]p: solve: 16644.1 [ms]
[OGL LOG][Proc: 0]p: copy_x_back: 35.382 [ms]
[OGL LOG][lduLduBase.H:330] 
Statistics:
	Time per iteration: 5437 [mu s]
	Time per residual norm calculation: 1212.000000 [mu s]
	Time per iteration and DOF: 0.084953 [ns]
	Retrieve results bandwidth 1.808000 [GByte/s]
[OGL LOG][Proc: 0]p: solve_multi_gpu: 17619.1 [ms]
nonecudaGKOCG:  Solving for p, Initial residual = 0.856967, Final residual = 9.54352e-05, No Iterations 3061
[INFO] SolveP: 18038.1 [ms]
time step continuity errors : sum local = 8.8585e-09, global = 8.42406e-23, cumulative = 1.0186e-20
[INFO] ContinuityError: 202.868 [ms]
[INFO] CorrectBoundary: 7.529 [ms]
[INFO] PISOStep: 21349.4 [ms]
[INFO] TimeStep: 59823.7 [ms]
ExecutionTime = 1161.12 s  ClockTime = 1166 s

Time = 0.0017

Courant Number mean: 0.0315173 max: 0.516588
[INFO] MatrixAssemblyU: 1684.63 [ms]
DILUPBiCGStab:  Solving for Ux, Initial residual = 0.0184128, Final residual = 0.00149437, No Iterations 5
DILUPBiCGStab:  Solving for Uy, Initial residual = 0.0737367, Final residual = 0.00452468, No Iterations 5
DILUPBiCGStab:  Solving for Uz, Initial residual = 0.549281, Final residual = 0.0189155, No Iterations 5
[INFO] MomentumPredictor: 13038.9 [ms]
[INFO] MatrixAssemblyPI: 1988.09 [ms]
[INFO] AdjustPhi: 103.135 [ms]
[INFO] ConstrainPressure: 0.003 [ms]
[INFO] MatrixAssemblyPII: 571.187 [ms]
[OGL LOG][Proc: 0]: global_index_init: 0.02 [ms]
[OGL LOG][Proc: 0]p_local_coeffs: call_update: 0 [ms]
[OGL LOG][Proc: 0]p_non_local_coeffs: call_update: 0 [ms]
[OGL LOG][Proc: 0]p: update_local_matrix_data: 346.782 [ms]
[OGL LOG][Proc: 0]p: update_non_local_matrix_data: 3.347 [ms]
[OGL LOG][Proc: 0]p: regenerate_distributed_matrix: 913.314 [ms]
[OGL LOG][Proc: 0]p_matrix: call_update: 916.594 [ms]
[OGL LOG][Proc: 0]p_rhs: call_update: 21.197 [ms]
[OGL LOG][Proc: 0]p: init_precond: 0.046 [ms]
[OGL LOG][StoppingCriterion.H:239] Creating stopping criterion with minIter 1836 frequency 17
[OGL LOG][Proc: 0]p: generate_solver: 0.037 [ms]
[OGL LOG][Proc: 0]p: solve: 16635.6 [ms]
[OGL LOG][Proc: 0]p: copy_x_back: 35.345 [ms]
[OGL LOG][lduLduBase.H:330] 
Statistics:
	Time per iteration: 5434 [mu s]
	Time per residual norm calculation: 1363.000000 [mu s]
	Time per iteration and DOF: 0.084906 [ns]
	Retrieve results bandwidth 1.810000 [GByte/s]
[OGL LOG][Proc: 0]p: solve_multi_gpu: 17611.3 [ms]
nonecudaGKOCG:  Solving for p, Initial residual = 0.941041, Final residual = 9.13678e-05, No Iterations 3061
[INFO] SolveP: 18020.4 [ms]
time step continuity errors : sum local = 8.76673e-09, global = 8.63352e-22, cumulative = 1.10494e-20
[INFO] ContinuityError: 210.606 [ms]
[INFO] CorrectBoundary: 2.09 [ms]
[INFO] PISOStep: 21530.1 [ms]
[INFO] MatrixAssemblyPI: 1786.65 [ms]
[INFO] AdjustPhi: 110.278 [ms]
[INFO] ConstrainPressure: 0.002 [ms]
[INFO] MatrixAssemblyPII: 579.933 [ms]
[OGL LOG][Proc: 0]: global_index_init: 0.017 [ms]
[OGL LOG][Proc: 0]p_local_coeffs: call_update: 0 [ms]
[OGL LOG][Proc: 0]p_non_local_coeffs: call_update: 0 [ms]
[OGL LOG][Proc: 0]p: update_local_matrix_data: 353.306 [ms]
[OGL LOG][Proc: 0]p: update_non_local_matrix_data: 2.99 [ms]
[OGL LOG][Proc: 0]p: regenerate_distributed_matrix: 912.709 [ms]
[OGL LOG][Proc: 0]p_matrix: call_update: 915.819 [ms]
[OGL LOG][Proc: 0]p_rhs: call_update: 20.81 [ms]
[OGL LOG][Proc: 0]p: init_precond: 0.033 [ms]
[OGL LOG][StoppingCriterion.H:239] Creating stopping criterion with minIter 1836 frequency 20
[OGL LOG][Proc: 0]p: generate_solver: 0.027 [ms]
[OGL LOG][Proc: 0]p: solve: 16661.3 [ms]
[OGL LOG][Proc: 0]p: copy_x_back: 34.308 [ms]
[OGL LOG][lduLduBase.H:330] 
Statistics:
	Time per iteration: 5443 [mu s]
	Time per residual norm calculation: 1494.000000 [mu s]
	Time per iteration and DOF: 0.085047 [ns]
	Retrieve results bandwidth 1.865000 [GByte/s]
[OGL LOG][Proc: 0]p: solve_multi_gpu: 17634.7 [ms]
nonecudaGKOCG:  Solving for p, Initial residual = 0.878102, Final residual = 8.89026e-05, No Iterations 3061
[INFO] SolveP: 18057.6 [ms]
time step continuity errors : sum local = 8.50164e-09, global = 6.35277e-22, cumulative = 1.16847e-20
[INFO] ContinuityError: 202.924 [ms]
[INFO] CorrectBoundary: 1.981 [ms]
[INFO] PISOStep: 21395.8 [ms]
[INFO] TimeStep: 57854.3 [ms]
ExecutionTime = 1218.56 s  ClockTime = 1224 s

Time = 0.0018

Courant Number mean: 0.0322168 max: 0.413929
[INFO] MatrixAssemblyU: 1684.9 [ms]
DILUPBiCGStab:  Solving for Ux, Initial residual = 0.0189154, Final residual = 0.00150179, No Iterations 5
DILUPBiCGStab:  Solving for Uy, Initial residual = 0.0720577, Final residual = 0.00414996, No Iterations 5
DILUPBiCGStab:  Solving for Uz, Initial residual = 0.554785, Final residual = 0.0190126, No Iterations 5
[INFO] MomentumPredictor: 15059.2 [ms]
[INFO] MatrixAssemblyPI: 1827.43 [ms]
[INFO] AdjustPhi: 104.535 [ms]
[INFO] ConstrainPressure: 0.002 [ms]
[INFO] MatrixAssemblyPII: 570.597 [ms]
[OGL LOG][Proc: 0]: global_index_init: 0.022 [ms]
[OGL LOG][Proc: 0]p_local_coeffs: call_update: 0 [ms]
[OGL LOG][Proc: 0]p_non_local_coeffs: call_update: 0 [ms]
[OGL LOG][Proc: 0]p: update_local_matrix_data: 356.513 [ms]
[OGL LOG][Proc: 0]p: update_non_local_matrix_data: 3.322 [ms]
[OGL LOG][Proc: 0]p: regenerate_distributed_matrix: 913.448 [ms]
[OGL LOG][Proc: 0]p_matrix: call_update: 916.385 [ms]
[OGL LOG][Proc: 0]p_rhs: call_update: 20.979 [ms]
[OGL LOG][Proc: 0]p: init_precond: 0.038 [ms]
[OGL LOG][StoppingCriterion.H:239] Creating stopping criterion with minIter 1836 frequency 20
[OGL LOG][Proc: 0]p: generate_solver: 0.033 [ms]
[OGL LOG][Proc: 0]p: solve: 16791 [ms]
[OGL LOG][Proc: 0]p: copy_x_back: 35.54 [ms]
[OGL LOG][lduLduBase.H:330] 
Statistics:
	Time per iteration: 5449 [mu s]
	Time per residual norm calculation: 1357.000000 [mu s]
	Time per iteration and DOF: 0.085141 [ns]
	Retrieve results bandwidth 1.800000 [GByte/s]
[OGL LOG][Proc: 0]p: solve_multi_gpu: 17766.8 [ms]
nonecudaGKOCG:  Solving for p, Initial residual = 0.936059, Final residual = 7.28192e-05, No Iterations 3081
[INFO] SolveP: 18194.2 [ms]
time step continuity errors : sum local = 7.43796e-09, global = 1.04162e-21, cumulative = 1.27263e-20
[INFO] ContinuityError: 194.864 [ms]
[INFO] CorrectBoundary: 7.716 [ms]
[INFO] PISOStep: 21552.8 [ms]
[INFO] MatrixAssemblyPI: 1782.99 [ms]
[INFO] AdjustPhi: 103.383 [ms]
[INFO] ConstrainPressure: 0.003 [ms]
[INFO] MatrixAssemblyPII: 571.436 [ms]
[OGL LOG][Proc: 0]: global_index_init: 0.017 [ms]
[OGL LOG][Proc: 0]p_local_coeffs: call_update: 0 [ms]
[OGL LOG][Proc: 0]p_non_local_coeffs: call_update: 0 [ms]
[OGL LOG][Proc: 0]p: update_local_matrix_data: 344.167 [ms]
[OGL LOG][Proc: 0]p: update_non_local_matrix_data: 3.08 [ms]
[OGL LOG][Proc: 0]p: regenerate_distributed_matrix: 914.933 [ms]
[OGL LOG][Proc: 0]p_matrix: call_update: 918.627 [ms]
[OGL LOG][Proc: 0]p_rhs: call_update: 21.412 [ms]
[OGL LOG][Proc: 0]p: init_precond: 0.044 [ms]
[OGL LOG][StoppingCriterion.H:239] Creating stopping criterion with minIter 1848 frequency 17
[OGL LOG][Proc: 0]p: generate_solver: 0.035 [ms]
[OGL LOG][Proc: 0]p: solve: 16667.7 [ms]
[OGL LOG][Proc: 0]p: copy_x_back: 33.383 [ms]
[OGL LOG][lduLduBase.H:330] 
Statistics:
	Time per iteration: 5445 [mu s]
	Time per residual norm calculation: 1360.000000 [mu s]
	Time per iteration and DOF: 0.085078 [ns]
	Retrieve results bandwidth 1.917000 [GByte/s]
[OGL LOG][Proc: 0]p: solve_multi_gpu: 17647.5 [ms]
nonecudaGKOCG:  Solving for p, Initial residual = 0.862225, Final residual = 9.58057e-05, No Iterations 3061
[INFO] SolveP: 18056.6 [ms]
time step continuity errors : sum local = 9.87313e-09, global = 2.94114e-23, cumulative = 1.27557e-20
[INFO] ContinuityError: 230.268 [ms]
[INFO] CorrectBoundary: 1.934 [ms]
[INFO] PISOStep: 21406 [ms]
[INFO] TimeStep: 59907.6 [ms]
ExecutionTime = 1278.04 s  ClockTime = 1284 s

Time = 0.0019

Courant Number mean: 0.0329483 max: 0.550154
[INFO] MatrixAssemblyU: 1690.49 [ms]
DILUPBiCGStab:  Solving for Ux, Initial residual = 0.0189983, Final residual = 0.00142187, No Iterations 5
DILUPBiCGStab:  Solving for Uy, Initial residual = 0.0756653, Final residual = 0.00426384, No Iterations 5
DILUPBiCGStab:  Solving for Uz, Initial residual = 0.568213, Final residual = 0.0190194, No Iterations 5
[INFO] MomentumPredictor: 13014.2 [ms]
[INFO] MatrixAssemblyPI: 1985.49 [ms]
[INFO] AdjustPhi: 103.657 [ms]
[INFO] ConstrainPressure: 0.002 [ms]
[INFO] MatrixAssemblyPII: 572.877 [ms]
[OGL LOG][Proc: 0]: global_index_init: 0.019 [ms]
[OGL LOG][Proc: 0]p_local_coeffs: call_update: 0 [ms]
[OGL LOG][Proc: 0]p_non_local_coeffs: call_update: 0 [ms]
[OGL LOG][Proc: 0]p: update_local_matrix_data: 353.134 [ms]
[OGL LOG][Proc: 0]p: update_non_local_matrix_data: 3.341 [ms]
[OGL LOG][Proc: 0]p: regenerate_distributed_matrix: 912.534 [ms]
[OGL LOG][Proc: 0]p_matrix: call_update: 916.014 [ms]
[OGL LOG][Proc: 0]p_rhs: call_update: 21.264 [ms]
[OGL LOG][Proc: 0]p: init_precond: 0.036 [ms]
[OGL LOG][StoppingCriterion.H:239] Creating stopping criterion with minIter 1836 frequency 17
[OGL LOG][Proc: 0]p: generate_solver: 0.029 [ms]
[OGL LOG][Proc: 0]p: solve: 16091.7 [ms]
[OGL LOG][Proc: 0]p: copy_x_back: 35.507 [ms]
[OGL LOG][lduLduBase.H:330] 
Statistics:
	Time per iteration: 5469 [mu s]
	Time per residual norm calculation: 1203.000000 [mu s]
	Time per iteration and DOF: 0.085453 [ns]
	Retrieve results bandwidth 1.802000 [GByte/s]
[OGL LOG][Proc: 0]p: solve_multi_gpu: 17066.9 [ms]
nonecudaGKOCG:  Solving for p, Initial residual = 0.945383, Final residual = 8.56594e-05, No Iterations 2942
[INFO] SolveP: 17490.9 [ms]
time step continuity errors : sum local = 9.18215e-09, global = 7.31626e-22, cumulative = 1.34873e-20
[INFO] ContinuityError: 194.415 [ms]
[INFO] CorrectBoundary: 11.618 [ms]
[INFO] PISOStep: 20999.5 [ms]
[INFO] MatrixAssemblyPI: 1771.89 [ms]
[INFO] AdjustPhi: 103.855 [ms]
[INFO] ConstrainPressure: 0.003 [ms]
[INFO] MatrixAssemblyPII: 572.832 [ms]
[OGL LOG][Proc: 0]: global_index_init: 0.021 [ms]
[OGL LOG][Proc: 0]p_local_coeffs: call_update: 0 [ms]
[OGL LOG][Proc: 0]p_non_local_coeffs: call_update: 0 [ms]
[OGL LOG][Proc: 0]p: update_local_matrix_data: 359.927 [ms]
[OGL LOG][Proc: 0]p: update_non_local_matrix_data: 3.391 [ms]
[OGL LOG][Proc: 0]p: regenerate_distributed_matrix: 911.139 [ms]
[OGL LOG][Proc: 0]p_matrix: call_update: 914.421 [ms]
[OGL LOG][Proc: 0]p_rhs: call_update: 20.663 [ms]
[OGL LOG][Proc: 0]p: init_precond: 0.038 [ms]
[OGL LOG][StoppingCriterion.H:239] Creating stopping criterion with minIter 1765 frequency 17
[OGL LOG][Proc: 0]p: generate_solver: 0.03 [ms]
[OGL LOG][Proc: 0]p: solve: 16328 [ms]
[OGL LOG][Proc: 0]p: copy_x_back: 33.617 [ms]
[OGL LOG][lduLduBase.H:330] 
Statistics:
	Time per iteration: 5363 [mu s]
	Time per residual norm calculation: 1360.000000 [mu s]
	Time per iteration and DOF: 0.083797 [ns]
	Retrieve results bandwidth 1.903000 [GByte/s]
[OGL LOG][Proc: 0]p: solve_multi_gpu: 17299.2 [ms]
nonecudaGKOCG:  Solving for p, Initial residual = 0.879939, Final residual = 9.70632e-05, No Iterations 3044
[INFO] SolveP: 17724.4 [ms]
time step continuity errors : sum local = 1.03817e-08, global = 4.51765e-22, cumulative = 1.39391e-20
[INFO] ContinuityError: 228.238 [ms]
[INFO] CorrectBoundary: 1.913 [ms]
[INFO] PISOStep: 21049.4 [ms]
[INFO] TimeStep: 56958.8 [ms]
ExecutionTime = 1334.72 s  ClockTime = 1341 s

Time = 0.002

Courant Number mean: 0.0335878 max: 0.422987
[INFO] MatrixAssemblyU: 1687.84 [ms]
DILUPBiCGStab:  Solving for Ux, Initial residual = 0.0196886, Final residual = 0.00143425, No Iterations 5
DILUPBiCGStab:  Solving for Uy, Initial residual = 0.075003, Final residual = 0.00397099, No Iterations 5
DILUPBiCGStab:  Solving for Uz, Initial residual = 0.574777, Final residual = 0.0191371, No Iterations 5
[INFO] MomentumPredictor: 15075.2 [ms]
[INFO] MatrixAssemblyPI: 1830.12 [ms]
[INFO] AdjustPhi: 104.011 [ms]
[INFO] ConstrainPressure: 0.002 [ms]
[INFO] MatrixAssemblyPII: 573.986 [ms]
[OGL LOG][Proc: 0]: global_index_init: 0.019 [ms]
[OGL LOG][Proc: 0]p_local_coeffs: call_update: 0 [ms]
[OGL LOG][Proc: 0]p_non_local_coeffs: call_update: 0 [ms]
[OGL LOG][Proc: 0]p: update_local_matrix_data: 350.946 [ms]
[OGL LOG][Proc: 0]p: update_non_local_matrix_data: 3.258 [ms]
[OGL LOG][Proc: 0]p: regenerate_distributed_matrix: 912.75 [ms]
[OGL LOG][Proc: 0]p_matrix: call_update: 916.298 [ms]
[OGL LOG][Proc: 0]p_rhs: call_update: 21.091 [ms]
[OGL LOG][Proc: 0]p: init_precond: 0.047 [ms]
[OGL LOG][StoppingCriterion.H:239] Creating stopping criterion with minIter 1826 frequency 20
[OGL LOG][Proc: 0]p: generate_solver: 0.035 [ms]
[OGL LOG][Proc: 0]p: solve: 16759.9 [ms]
[OGL LOG][Proc: 0]p: copy_x_back: 35.398 [ms]
[OGL LOG][lduLduBase.H:330] 
Statistics:
	Time per iteration: 5439 [mu s]
	Time per residual norm calculation: 1354.000000 [mu s]
	Time per iteration and DOF: 0.084984 [ns]
	Retrieve results bandwidth 1.808000 [GByte/s]
[OGL LOG][Proc: 0]p: solve_multi_gpu: 17735.7 [ms]
nonecudaGKOCG:  Solving for p, Initial residual = 0.942146, Final residual = 7.75298e-05, No Iterations 3081
[INFO] SolveP: 18156.7 [ms]
time step continuity errors : sum local = 8.85309e-09, global = 3.58565e-22, cumulative = 1.42976e-20
[INFO] ContinuityError: 201.121 [ms]
[INFO] CorrectBoundary: 2.409 [ms]
[INFO] PISOStep: 21522.2 [ms]
[INFO] MatrixAssemblyPI: 1773.79 [ms]
[INFO] AdjustPhi: 103.177 [ms]
[INFO] ConstrainPressure: 0.004 [ms]
[INFO] MatrixAssemblyPII: 572.27 [ms]
[OGL LOG][Proc: 0]: global_index_init: 0.046 [ms]
[OGL LOG][Proc: 0]p_local_coeffs: call_update: 0 [ms]
[OGL LOG][Proc: 0]p_non_local_coeffs: call_update: 0 [ms]
[OGL LOG][Proc: 0]p: update_local_matrix_data: 356.998 [ms]
[OGL LOG][Proc: 0]p: update_non_local_matrix_data: 3.381 [ms]
[OGL LOG][Proc: 0]p: regenerate_distributed_matrix: 912.297 [ms]
[OGL LOG][Proc: 0]p_matrix: call_update: 916.12 [ms]
[OGL LOG][Proc: 0]p_rhs: call_update: 21.287 [ms]
[OGL LOG][Proc: 0]p: init_precond: 0.04 [ms]
[OGL LOG][StoppingCriterion.H:239] Creating stopping criterion with minIter 1848 frequency 17
[OGL LOG][Proc: 0]p: generate_solver: 0.033 [ms]
[OGL LOG][Proc: 0]p: solve: 16500.2 [ms]
[OGL LOG][Proc: 0]p: copy_x_back: 34.584 [ms]
[OGL LOG][lduLduBase.H:330] 
Statistics:
	Time per iteration: 5360 [mu s]
	Time per residual norm calculation: 1356.000000 [mu s]
	Time per iteration and DOF: 0.083750 [ns]
	Retrieve results bandwidth 1.850000 [GByte/s]
[OGL LOG][Proc: 0]p: solve_multi_gpu: 17474.5 [ms]
nonecudaGKOCG:  Solving for p, Initial residual = 0.867457, Final residual = 7.55642e-05, No Iterations 3078
[INFO] SolveP: 17899.3 [ms]
time step continuity errors : sum local = 8.69819e-09, global = 9.6486e-22, cumulative = 1.52625e-20
[INFO] ContinuityError: 204.774 [ms]
[INFO] CorrectBoundary: 11.924 [ms]
[INFO] PISOStep: 21202.9 [ms]
[INFO] TimeStep: 59694.9 [ms]
ExecutionTime = 1394.13 s  ClockTime = 1401 s

End

Finalising parallel run
