/*---------------------------------------------------------------------------*\
| =========                 |                                                 |
| \\      /  F ield         | OpenFOAM: The Open Source CFD Toolbox           |
|  \\    /   O peration     | Version:  2306                                  |
|   \\  /    A nd           | Website:  www.openfoam.com                      |
|    \\/     M anipulation  |                                                 |
\*---------------------------------------------------------------------------*/
Build  : a6e826bd55-20230630 OPENFOAM=2306 version=v2306
Arch   : "LSB;label=32;scalar=64"
Exec   : icoFoam -parallel -case /tmp/lidDrivenCavity3D/workspace/8526c77d6a60577919be881fcdfcba91/case
Date   : Dec 10 2023
Time   : 16:06:34
Host   : nla-gpu2.ianm.kit.edu
PID    : 300101
I/O    : uncollated
Case   : /tmp/lidDrivenCavity3D/workspace/8526c77d6a60577919be881fcdfcba91/case
nProcs : 32
Hosts  :
(
    (nla-gpu2.ianm.kit.edu 32)
)
Pstream initialized with:
    floatTransfer      : false
    nProcsSimpleSum    : 0
    nonBlockingExchange: 0 (tuning: 0)
    exchange algorithm : -1
    commsType          : nonBlocking
    polling iterations : 0
trapFpe: Floating point exception trapping enabled (FOAM_SIGFPE).
fileModificationChecking : Monitoring run-time modified files using timeStampMaster (fileModificationSkew 5, maxFileModificationPolls 20)
allowSystemOperations : Allowing user-supplied system call operations

// * * * * * * * * * * * * * * * * * * * * * * * * * * * * * * * * * * * * * //
Create time

--> FOAM Warning : 
    From void* Foam::dlLibraryTable::openLibrary(const Foam::fileName&, bool)
    in file db/dynamicLibrary/dlLibraryTable/dlLibraryTable.C at line 188
    Could not load "libpetscFoam.so"
libpetscFoam.so: cannot open shared object file: No such file or directory
Create mesh for time = 0


PISO: Operating solver in PISO mode

Reading transportProperties

Reading field p

Reading field U

Reading/calculating face flux field phi


Starting time loop

Time = 0.000125

Courant Number mean: 8.02505e-18 max: 4.85723e-14
[INFO] MatrixAssemblyU: 562.052 [ms]
DILUPBiCGStab:  Solving for Ux, Initial residual = 1, Final residual = 0.0215184, No Iterations 5
DILUPBiCGStab:  Solving for Uy:  solution singularity
DILUPBiCGStab:  Solving for Uz:  solution singularity
[INFO] MomentumPredictor: 2071.23 [ms]
[INFO] MatrixAssemblyPI: 590.097 [ms]
[INFO] AdjustPhi: 27.53 [ms]
[INFO] ConstrainPressure: 0.011 [ms]
[INFO] MatrixAssemblyPII: 165.986 [ms]
[OGL LOG][lduLduBase.H:119] Initialising OGL
	OGL commit:  5ef1233
	Branch: feat/on_device_permute 
	Build type: Release
	Ginkgo version: 1.7.0 ( develop)
	Ginkgo commit: sparse-communicator
	MPI is GPU aware: 1
	Forces host buffer based communication: 0
	CPU ranks per GPU: 1
	Matrix format: Coo
	End OGL_INFO
[OGL LOG][Proc: 0]: global_index_init: 0.076 [ms]
[OGL LOG][Proc: 0]p_local_cols: call_init: 0.02 [ms]
[OGL LOG][Proc: 0]p_local_rows: call_init: 0.014 [ms]
[OGL LOG][Proc: 0]p_local_ldu_map: call_init: 0.008 [ms]
[OGL LOG][Proc: 0]p_local_coeffs: call_init: 0.009 [ms]
[OGL LOG][Proc: 0]p_non_local_cols: call_init: 0.011 [ms]
[OGL LOG][Proc: 0]p_non_local_rows: call_init: 0.003 [ms]
[OGL LOG][Proc: 0]p_non_local_ldu_map: call_init: 0.002 [ms]
[OGL LOG][Proc: 0]p_non_local_coeffs: call_init: 0.002 [ms]
[OGL LOG][Proc: 0]p: init_local_sparsity_pattern: 487.096 [ms]
[OGL LOG][Proc: 0]p: init_non_local_sparsity_pattern: 38.553 [ms]
[OGL LOG][Proc: 0]p: update_local_matrix_data: 61.071 [ms]
[OGL LOG][Proc: 0]p: update_non_local_matrix_data: 0.267 [ms]
[OGL LOG][Proc: 0]device_partition: call_init: 0.204 [ms]
[OGL LOG][Proc: 0]p_matrix: call_init: 264.273 [ms]
[OGL LOG][Proc: 0]p_rhs: call_init: 18.12 [ms]
[OGL LOG][Proc: 0]p_solution: call_init: 4.419 [ms]
[OGL LOG][Proc: 0]p: init_precond: 0.084 [ms]
[OGL LOG][StoppingCriterion.H:373] Creating stopping criterion with minIter 0 frequency 1
[OGL LOG][Proc: 0]p: generate_solver: 0.045 [ms]
[OGL LOG][Proc: 0]p: solve: 25049.4 [ms]
[OGL LOG][Proc: 0]p: copy_x_back: 11.966 [ms]
[OGL LOG][lduLduBase.H:330] 
Statistics:
	Time per iteration: 5008 [mu s]
	Time per residual norm calculation: 2141.000000 [mu s]
	Time per iteration and DOF: 0.078250 [ns]
	Retrieve results bandwidth 1.337000 [GByte/s]
[OGL LOG][Proc: 0]p: solve_multi_gpu: 25363.1 [ms]
nonehipGKOCG:  Solving for p, Initial residual = 1, Final residual = 29.0223, No Iterations 5001
[INFO] SolveP: 26331 [ms]
time step continuity errors : sum local = 0.000744048, global = 1.43572e-19, cumulative = 1.43572e-19
[INFO] ContinuityError: 58.672 [ms]
[INFO] CorrectBoundary: 1.03 [ms]
[INFO] PISOStep: 27363.5 [ms]
[INFO] MatrixAssemblyPI: 556.713 [ms]
[INFO] AdjustPhi: 26.668 [ms]
[INFO] ConstrainPressure: 0.003 [ms]
[INFO] MatrixAssemblyPII: 164.651 [ms]
[OGL LOG][Proc: 0]: global_index_init: 0.215 [ms]
[OGL LOG][Proc: 0]p_local_coeffs: call_update: 0.001 [ms]
[OGL LOG][Proc: 0]p_non_local_coeffs: call_update: 0 [ms]
[OGL LOG][Proc: 0]p: update_local_matrix_data: 79.177 [ms]
[OGL LOG][Proc: 0]p: update_non_local_matrix_data: 0.482 [ms]
[OGL LOG][Proc: 0]p_matrix: call_update: 34.726 [ms]
[OGL LOG][Proc: 0]p_rhs: call_update: 13.725 [ms]
[OGL LOG][Proc: 0]p: init_precond: 0.066 [ms]
[OGL LOG][StoppingCriterion.H:373] Creating stopping criterion with minIter 3000 frequency 31
[OGL LOG][Proc: 0]p: generate_solver: 0.002 [ms]
[mpiexec@nla-gpu2.ianm.kit.edu] Sending Ctrl-C to processes as requested
[mpiexec@nla-gpu2.ianm.kit.edu] Press Ctrl-C again to force abort
