/*---------------------------------------------------------------------------*\
| =========                 |                                                 |
| \\      /  F ield         | OpenFOAM: The Open Source CFD Toolbox           |
|  \\    /   O peration     | Version:  2212                                  |
|   \\  /    A nd           | Website:  www.openfoam.com                      |
|    \\/     M anipulation  |                                                 |
\*---------------------------------------------------------------------------*/
Build  : 5614a571f2-20230228 OPENFOAM=2212 patch=230110 version=v2212
Arch   : "LSB;label=32;scalar=64"
Exec   : icoFoam -parallel -case /home/greole/data/code/exasim-project/micro_benchmarks/LidDrivenCavity3D/workspace/8524217f7655f92e07d93abf5705c370/case
Date   : Jul 03 2023
Time   : 09:50:07
Host   : guyot
PID    : 2737066
I/O    : uncollated
Case   : /home/greole/data/code/exasim-project/micro_benchmarks/LidDrivenCavity3D/workspace/8524217f7655f92e07d93abf5705c370/case
nProcs : 128
Hosts  :
(
    (guyot 128)
)
Pstream initialized with:
    floatTransfer      : 0
    nProcsSimpleSum    : 0
    commsType          : nonBlocking
    polling iterations : 0
trapFpe: Floating point exception trapping enabled (FOAM_SIGFPE).
fileModificationChecking : Monitoring run-time modified files using timeStampMaster (fileModificationSkew 5, maxFileModificationPolls 20)
allowSystemOperations : Allowing user-supplied system call operations

// * * * * * * * * * * * * * * * * * * * * * * * * * * * * * * * * * * * * * //
Create time

--> FOAM Warning : 
    From void* Foam::dlLibraryTable::openLibrary(const Foam::fileName&, bool)
    in file db/dynamicLibrary/dlLibraryTable/dlLibraryTable.C at line 188
    Could not load "libpetscFoam.so"
libpetscFoam.so: cannot open shared object file: No such file or directory
Create mesh for time = 0


PISO: Operating solver in PISO mode

Reading transportProperties

Reading field p

Reading field U

Reading/calculating face flux field phi


Starting time loop

Time = 0.00025

Courant Number mean: 8.24341e-18 max: 2.08167e-14
[INFO] MatrixAssemblyU: 44.271 [ms]
DILUPBiCGStab:  Solving for Ux, Initial residual = 1, Final residual = 0.0112746, No Iterations 5
DILUPBiCGStab:  Solving for Uy:  solution singularity
DILUPBiCGStab:  Solving for Uz:  solution singularity
[INFO] MomentumPredictor: 158.417 [ms]
[INFO] MatrixAssemblyPI: 42.806 [ms]
[INFO] AdjustPhi: 3.047 [ms]
[INFO] ConstrainPressure: 0.006 [ms]
[INFO] MatrixAssemblyPII: 12.877 [ms]
GAMG:  Solving for p, Initial residual = 1, Final residual = 9.25503e-05, No Iterations 20
[INFO] SolveP: 395.9 [ms]
time step continuity errors : sum local = 7.64679e-09, global = 9.56221e-22, cumulative = 9.56221e-22
[INFO] ContinuityError: 3.152 [ms]
[INFO] CorrectBoundary: 0.176 [ms]
[INFO] PISOStep: 477.085 [ms]
[INFO] MatrixAssemblyPI: 42.984 [ms]
[INFO] AdjustPhi: 1.269 [ms]
[INFO] ConstrainPressure: 0.002 [ms]
[INFO] MatrixAssemblyPII: 14.44 [ms]
GAMG:  Solving for p, Initial residual = 0.792868, Final residual = 7.77181e-05, No Iterations 18
[INFO] SolveP: 325.08 [ms]
time step continuity errors : sum local = 7.95198e-09, global = -3.81744e-22, cumulative = 5.74477e-22
[INFO] ContinuityError: 3.591 [ms]
[INFO] CorrectBoundary: 0.238 [ms]
[INFO] PISOStep: 404.875 [ms]
[INFO] TimeStep: 1089.11 [ms]
ExecutionTime = 1.41 s  ClockTime = 2 s

Time = 0.0005

Courant Number mean: 0.0158603 max: 0.41246
[INFO] MatrixAssemblyU: 41.637 [ms]
DILUPBiCGStab:  Solving for Ux, Initial residual = 0.129555, Final residual = 0.00642675, No Iterations 5
DILUPBiCGStab:  Solving for Uy, Initial residual = 0.427628, Final residual = 0.0173034, No Iterations 5
DILUPBiCGStab:  Solving for Uz, Initial residual = 0.981913, Final residual = 0.0442487, No Iterations 5
[INFO] MomentumPredictor: 294.357 [ms]
[INFO] MatrixAssemblyPI: 43.8 [ms]
[INFO] AdjustPhi: 1.253 [ms]
[INFO] ConstrainPressure: 0.002 [ms]
[INFO] MatrixAssemblyPII: 14.3 [ms]
GAMG:  Solving for p, Initial residual = 0.838824, Final residual = 7.86038e-05, No Iterations 20
[INFO] SolveP: 358.78 [ms]
time step continuity errors : sum local = 1.25863e-08, global = -2.06299e-21, cumulative = -1.48851e-21
[INFO] ContinuityError: 3.044 [ms]
[INFO] CorrectBoundary: 0.141 [ms]
[INFO] PISOStep: 439.308 [ms]
[INFO] MatrixAssemblyPI: 42.501 [ms]
[INFO] AdjustPhi: 1.278 [ms]
[INFO] ConstrainPressure: 0.002 [ms]
[INFO] MatrixAssemblyPII: 14.509 [ms]
GAMG:  Solving for p, Initial residual = 0.779478, Final residual = 7.67197e-05, No Iterations 20
[INFO] SolveP: 362.295 [ms]
time step continuity errors : sum local = 1.25076e-08, global = 2.25407e-22, cumulative = -1.2631e-21
[INFO] ContinuityError: 2.838 [ms]
[INFO] CorrectBoundary: 0.244 [ms]
[INFO] PISOStep: 441.484 [ms]
[INFO] TimeStep: 1221.85 [ms]
ExecutionTime = 2.62 s  ClockTime = 3 s

Time = 0.00075

Courant Number mean: 0.024218 max: 0.472309
[INFO] MatrixAssemblyU: 42.605 [ms]
DILUPBiCGStab:  Solving for Ux, Initial residual = 0.0548691, Final residual = 0.00223669, No Iterations 5
DILUPBiCGStab:  Solving for Uy, Initial residual = 0.182991, Final residual = 0.00913211, No Iterations 5
DILUPBiCGStab:  Solving for Uz, Initial residual = 0.811887, Final residual = 0.0354728, No Iterations 5
[INFO] MomentumPredictor: 292.676 [ms]
[INFO] MatrixAssemblyPI: 43.796 [ms]
[INFO] AdjustPhi: 1.397 [ms]
[INFO] ConstrainPressure: 0.003 [ms]
[INFO] MatrixAssemblyPII: 14.18 [ms]
GAMG:  Solving for p, Initial residual = 0.855698, Final residual = 9.06368e-05, No Iterations 23
[INFO] SolveP: 409.934 [ms]
time step continuity errors : sum local = 1.28372e-08, global = 9.26442e-23, cumulative = -1.17046e-21
[INFO] ContinuityError: 2.622 [ms]
[INFO] CorrectBoundary: 0.25 [ms]
[INFO] PISOStep: 490.542 [ms]
[INFO] MatrixAssemblyPI: 42.666 [ms]
[INFO] AdjustPhi: 1.314 [ms]
[INFO] ConstrainPressure: 0.005 [ms]
[INFO] MatrixAssemblyPII: 14.125 [ms]
GAMG:  Solving for p, Initial residual = 0.818849, Final residual = 8.42999e-05, No Iterations 26
[INFO] SolveP: 461.356 [ms]
time step continuity errors : sum local = 1.16631e-08, global = -1.38966e-22, cumulative = -1.30943e-21
[INFO] ContinuityError: 2.846 [ms]
[INFO] CorrectBoundary: 0.149 [ms]
[INFO] PISOStep: 540.842 [ms]
[INFO] TimeStep: 1371.59 [ms]
ExecutionTime = 3.98 s  ClockTime = 5 s

Time = 0.001

Courant Number mean: 0.0290758 max: 0.467705
[INFO] MatrixAssemblyU: 42.203 [ms]
DILUPBiCGStab:  Solving for Ux, Initial residual = 0.0348775, Final residual = 0.00146826, No Iterations 5
DILUPBiCGStab:  Solving for Uy, Initial residual = 0.129605, Final residual = 0.00584109, No Iterations 5
DILUPBiCGStab:  Solving for Uz, Initial residual = 0.644121, Final residual = 0.0255609, No Iterations 5
[INFO] MomentumPredictor: 293.773 [ms]
[INFO] MatrixAssemblyPI: 43.868 [ms]
[INFO] AdjustPhi: 1.191 [ms]
[INFO] ConstrainPressure: 0.002 [ms]
[INFO] MatrixAssemblyPII: 14.452 [ms]
GAMG:  Solving for p, Initial residual = 0.782715, Final residual = 6.49867e-05, No Iterations 19
[INFO] SolveP: 340.144 [ms]
time step continuity errors : sum local = 8.40781e-09, global = -3.58417e-21, cumulative = -4.8936e-21
[INFO] ContinuityError: 2.834 [ms]
[INFO] CorrectBoundary: 0.235 [ms]
[INFO] PISOStep: 420.646 [ms]
[INFO] MatrixAssemblyPI: 42.466 [ms]
[INFO] AdjustPhi: 1.335 [ms]
[INFO] ConstrainPressure: 0.002 [ms]
[INFO] MatrixAssemblyPII: 14.295 [ms]
GAMG:  Solving for p, Initial residual = 0.717956, Final residual = 8.68161e-05, No Iterations 18
[INFO] SolveP: 323.302 [ms]
time step continuity errors : sum local = 1.14293e-08, global = -2.70819e-21, cumulative = -7.60179e-21
[INFO] ContinuityError: 2.898 [ms]
[INFO] CorrectBoundary: 0.19 [ms]
[INFO] PISOStep: 402.321 [ms]
[INFO] TimeStep: 1163.84 [ms]
ExecutionTime = 5.13 s  ClockTime = 6 s

Time = 0.00125

Courant Number mean: 0.0332099 max: 0.473192
[INFO] MatrixAssemblyU: 42.286 [ms]
DILUPBiCGStab:  Solving for Ux, Initial residual = 0.0272925, Final residual = 0.00107904, No Iterations 5
DILUPBiCGStab:  Solving for Uy, Initial residual = 0.0821468, Final residual = 0.0042555, No Iterations 5
DILUPBiCGStab:  Solving for Uz, Initial residual = 0.533479, Final residual = 0.0232299, No Iterations 5
[INFO] MomentumPredictor: 293.855 [ms]
[INFO] MatrixAssemblyPI: 43.912 [ms]
[INFO] AdjustPhi: 1.229 [ms]
[INFO] ConstrainPressure: 0.002 [ms]
[INFO] MatrixAssemblyPII: 14.451 [ms]
GAMG:  Solving for p, Initial residual = 0.786187, Final residual = 8.96068e-05, No Iterations 25
[INFO] SolveP: 442.048 [ms]
time step continuity errors : sum local = 9.57221e-09, global = -1.64195e-21, cumulative = -9.24374e-21
[INFO] ContinuityError: 3.027 [ms]
[INFO] CorrectBoundary: 0.196 [ms]
[INFO] PISOStep: 522.372 [ms]
[INFO] MatrixAssemblyPI: 42.606 [ms]
[INFO] AdjustPhi: 1.428 [ms]
[INFO] ConstrainPressure: 0.002 [ms]
[INFO] MatrixAssemblyPII: 14.474 [ms]
GAMG:  Solving for p, Initial residual = 0.733632, Final residual = 7.19126e-05, No Iterations 24
[INFO] SolveP: 424.918 [ms]
time step continuity errors : sum local = 7.54806e-09, global = -1.51788e-21, cumulative = -1.07616e-20
[INFO] ContinuityError: 2.873 [ms]
[INFO] CorrectBoundary: 0.153 [ms]
[INFO] PISOStep: 504.402 [ms]
[INFO] TimeStep: 1367.98 [ms]
ExecutionTime = 6.49 s  ClockTime = 7 s

Time = 0.0015

Courant Number mean: 0.0365055 max: 0.475538
[INFO] MatrixAssemblyU: 41.34 [ms]
DILUPBiCGStab:  Solving for Ux, Initial residual = 0.020592, Final residual = 0.000769652, No Iterations 5
DILUPBiCGStab:  Solving for Uy, Initial residual = 0.0665133, Final residual = 0.00298632, No Iterations 5
DILUPBiCGStab:  Solving for Uz, Initial residual = 0.410418, Final residual = 0.0185033, No Iterations 5
[INFO] MomentumPredictor: 294.662 [ms]
[INFO] MatrixAssemblyPI: 43.736 [ms]
[INFO] AdjustPhi: 1.332 [ms]
[INFO] ConstrainPressure: 0.003 [ms]
[INFO] MatrixAssemblyPII: 14.405 [ms]
GAMG:  Solving for p, Initial residual = 0.699455, Final residual = 9.83406e-05, No Iterations 19
[INFO] SolveP: 338.729 [ms]
time step continuity errors : sum local = 9.66956e-09, global = -4.39067e-21, cumulative = -1.51523e-20
[INFO] ContinuityError: 2.753 [ms]
[INFO] CorrectBoundary: 0.224 [ms]
[INFO] PISOStep: 419.053 [ms]
[INFO] MatrixAssemblyPI: 42.768 [ms]
[INFO] AdjustPhi: 1.228 [ms]
[INFO] ConstrainPressure: 0.002 [ms]
[INFO] MatrixAssemblyPII: 14.222 [ms]
GAMG:  Solving for p, Initial residual = 0.636574, Final residual = 8.57002e-05, No Iterations 19
[INFO] SolveP: 339.107 [ms]
time step continuity errors : sum local = 8.45269e-09, global = -1.24532e-21, cumulative = -1.63976e-20
[INFO] ContinuityError: 3.112 [ms]
[INFO] CorrectBoundary: 0.225 [ms]
[INFO] PISOStep: 418.202 [ms]
[INFO] TimeStep: 1178.31 [ms]
ExecutionTime = 7.66 s  ClockTime = 8 s

Time = 0.00175

Courant Number mean: 0.0394206 max: 0.477501
[INFO] MatrixAssemblyU: 41.535 [ms]
DILUPBiCGStab:  Solving for Ux, Initial residual = 0.017593, Final residual = 0.000616012, No Iterations 5
DILUPBiCGStab:  Solving for Uy, Initial residual = 0.0496602, Final residual = 0.00212762, No Iterations 5
DILUPBiCGStab:  Solving for Uz, Initial residual = 0.346375, Final residual = 0.0183939, No Iterations 5
[INFO] MomentumPredictor: 293.717 [ms]
[INFO] MatrixAssemblyPI: 44.294 [ms]
[INFO] AdjustPhi: 0.872 [ms]
[INFO] ConstrainPressure: 0.002 [ms]
[INFO] MatrixAssemblyPII: 14.452 [ms]
GAMG:  Solving for p, Initial residual = 0.695622, Final residual = 6.79058e-05, No Iterations 25
[INFO] SolveP: 441.862 [ms]
time step continuity errors : sum local = 5.57167e-09, global = -3.49608e-21, cumulative = -1.98937e-20
[INFO] ContinuityError: 2.682 [ms]
[INFO] CorrectBoundary: 0.203 [ms]
[INFO] PISOStep: 522.222 [ms]
[INFO] MatrixAssemblyPI: 42.56 [ms]
[INFO] AdjustPhi: 1.332 [ms]
[INFO] ConstrainPressure: 0.002 [ms]
[INFO] MatrixAssemblyPII: 14.294 [ms]
GAMG:  Solving for p, Initial residual = 0.634433, Final residual = 9.66836e-05, No Iterations 26
[INFO] SolveP: 459.834 [ms]
time step continuity errors : sum local = 7.90611e-09, global = -6.19351e-22, cumulative = -2.0513e-20
[INFO] ContinuityError: 2.866 [ms]
[INFO] CorrectBoundary: 0.103 [ms]
[INFO] PISOStep: 538.986 [ms]
[INFO] TimeStep: 1401.29 [ms]
ExecutionTime = 9.05 s  ClockTime = 10 s

Time = 0.002

Courant Number mean: 0.0419466 max: 0.479205
[INFO] MatrixAssemblyU: 42.202 [ms]
DILUPBiCGStab:  Solving for Ux, Initial residual = 0.01443, Final residual = 0.000474068, No Iterations 5
DILUPBiCGStab:  Solving for Uy, Initial residual = 0.0422983, Final residual = 0.00169285, No Iterations 5
DILUPBiCGStab:  Solving for Uz, Initial residual = 0.258911, Final residual = 0.0116848, No Iterations 5
[INFO] MomentumPredictor: 295.32 [ms]
[INFO] MatrixAssemblyPI: 43.793 [ms]
[INFO] AdjustPhi: 1.331 [ms]
[INFO] ConstrainPressure: 0.001 [ms]
[INFO] MatrixAssemblyPII: 14.491 [ms]
GAMG:  Solving for p, Initial residual = 0.60872, Final residual = 9.79484e-05, No Iterations 19
[INFO] SolveP: 339.014 [ms]
time step continuity errors : sum local = 7.65647e-09, global = -2.42447e-21, cumulative = -2.29375e-20
[INFO] ContinuityError: 2.958 [ms]
[INFO] CorrectBoundary: 0.22 [ms]
[INFO] PISOStep: 419.487 [ms]
[INFO] MatrixAssemblyPI: 42.986 [ms]
[INFO] AdjustPhi: 0.923 [ms]
[INFO] ConstrainPressure: 0.002 [ms]
[INFO] MatrixAssemblyPII: 14.485 [ms]
GAMG:  Solving for p, Initial residual = 0.549731, Final residual = 9.14802e-05, No Iterations 19
[INFO] SolveP: 339.846 [ms]
time step continuity errors : sum local = 7.13029e-09, global = -3.89892e-21, cumulative = -2.68364e-20
[INFO] ContinuityError: 3.054 [ms]
[INFO] CorrectBoundary: 0.176 [ms]
[INFO] PISOStep: 418.862 [ms]
[INFO] TimeStep: 1180.76 [ms]
ExecutionTime = 10.22 s  ClockTime = 11 s

Time = 0.00225

Courant Number mean: 0.0442346 max: 0.480345
[INFO] MatrixAssemblyU: 42.269 [ms]
DILUPBiCGStab:  Solving for Ux, Initial residual = 0.0126949, Final residual = 0.00039118, No Iterations 5
DILUPBiCGStab:  Solving for Uy, Initial residual = 0.0341665, Final residual = 0.00117337, No Iterations 5
DILUPBiCGStab:  Solving for Uz, Initial residual = 0.225142, Final residual = 0.0125798, No Iterations 5
[INFO] MomentumPredictor: 293 [ms]
[INFO] MatrixAssemblyPI: 43.979 [ms]
[INFO] AdjustPhi: 1.099 [ms]
[INFO] ConstrainPressure: 0.002 [ms]
[INFO] MatrixAssemblyPII: 14.128 [ms]
GAMG:  Solving for p, Initial residual = 0.596709, Final residual = 9.17603e-05, No Iterations 23
[INFO] SolveP: 407.249 [ms]
time step continuity errors : sum local = 6.21789e-09, global = -3.16273e-21, cumulative = -2.99992e-20
[INFO] ContinuityError: 3.329 [ms]
[INFO] CorrectBoundary: 0.213 [ms]
[INFO] PISOStep: 488.082 [ms]
[INFO] MatrixAssemblyPI: 42.92 [ms]
[INFO] AdjustPhi: 0.912 [ms]
[INFO] ConstrainPressure: 0.002 [ms]
[INFO] MatrixAssemblyPII: 14.373 [ms]
GAMG:  Solving for p, Initial residual = 0.534989, Final residual = 9.5214e-05, No Iterations 22
[INFO] SolveP: 390.026 [ms]
time step continuity errors : sum local = 6.43189e-09, global = -4.44196e-21, cumulative = -3.44411e-20
[INFO] ContinuityError: 3.019 [ms]
[INFO] CorrectBoundary: 0.333 [ms]
[INFO] PISOStep: 468.826 [ms]
[INFO] TimeStep: 1297.08 [ms]
ExecutionTime = 11.5 s  ClockTime = 12 s

Time = 0.0025

Courant Number mean: 0.0462927 max: 0.481457
[INFO] MatrixAssemblyU: 43.175 [ms]
DILUPBiCGStab:  Solving for Ux, Initial residual = 0.0109345, Final residual = 0.000318145, No Iterations 5
DILUPBiCGStab:  Solving for Uy, Initial residual = 0.0298995, Final residual = 0.000978354, No Iterations 5
DILUPBiCGStab:  Solving for Uz, Initial residual = 0.174608, Final residual = 0.00858478, No Iterations 5
[INFO] MomentumPredictor: 292.272 [ms]
[INFO] MatrixAssemblyPI: 42.852 [ms]
[INFO] AdjustPhi: 2.106 [ms]
[INFO] ConstrainPressure: 0.002 [ms]
[INFO] MatrixAssemblyPII: 14.102 [ms]
GAMG:  Solving for p, Initial residual = 0.52253, Final residual = 9.14196e-05, No Iterations 19
[INFO] SolveP: 339.678 [ms]
time step continuity errors : sum local = 5.98166e-09, global = -2.98943e-21, cumulative = -3.74305e-20
[INFO] ContinuityError: 3.1 [ms]
[INFO] CorrectBoundary: 0.236 [ms]
[INFO] PISOStep: 419.71 [ms]
[INFO] MatrixAssemblyPI: 42.169 [ms]
[INFO] AdjustPhi: 2.159 [ms]
[INFO] ConstrainPressure: 0.002 [ms]
[INFO] MatrixAssemblyPII: 14.407 [ms]
GAMG:  Solving for p, Initial residual = 0.468418, Final residual = 8.51451e-05, No Iterations 19
[INFO] SolveP: 339.263 [ms]
time step continuity errors : sum local = 5.54694e-09, global = -3.84019e-21, cumulative = -4.12707e-20
[INFO] ContinuityError: 3.008 [ms]
[INFO] CorrectBoundary: 0.192 [ms]
[INFO] PISOStep: 418.696 [ms]
[INFO] TimeStep: 1178.75 [ms]
ExecutionTime = 12.68 s  ClockTime = 13 s

Time = 0.00275

Courant Number mean: 0.0481854 max: 0.482222
[INFO] MatrixAssemblyU: 42.438 [ms]
DILUPBiCGStab:  Solving for Ux, Initial residual = 0.0097922, Final residual = 0.000267933, No Iterations 5
DILUPBiCGStab:  Solving for Uy, Initial residual = 0.0253394, Final residual = 0.000697041, No Iterations 5
DILUPBiCGStab:  Solving for Uz, Initial residual = 0.154806, Final residual = 0.00904735, No Iterations 5
[INFO] MomentumPredictor: 294.099 [ms]
[INFO] MatrixAssemblyPI: 44.13 [ms]
[INFO] AdjustPhi: 1.105 [ms]
[INFO] ConstrainPressure: 0.004 [ms]
[INFO] MatrixAssemblyPII: 14.519 [ms]
GAMG:  Solving for p, Initial residual = 0.499458, Final residual = 9.59028e-05, No Iterations 20
[INFO] SolveP: 357.309 [ms]
time step continuity errors : sum local = 5.65978e-09, global = -2.56136e-21, cumulative = -4.38321e-20
[INFO] ContinuityError: 2.823 [ms]
[INFO] CorrectBoundary: 0.22 [ms]
[INFO] PISOStep: 437.775 [ms]
[INFO] MatrixAssemblyPI: 42.963 [ms]
[INFO] AdjustPhi: 1.146 [ms]
[INFO] ConstrainPressure: 0.003 [ms]
[INFO] MatrixAssemblyPII: 14.692 [ms]
GAMG:  Solving for p, Initial residual = 0.444112, Final residual = 8.36735e-05, No Iterations 20
[INFO] SolveP: 356.692 [ms]
time step continuity errors : sum local = 4.94012e-09, global = -4.00335e-21, cumulative = -4.78354e-20
[INFO] ContinuityError: 2.729 [ms]
[INFO] CorrectBoundary: 0.174 [ms]
[INFO] PISOStep: 436.126 [ms]
[INFO] TimeStep: 1215.27 [ms]
ExecutionTime = 13.88 s  ClockTime = 14 s

Time = 0.003

Courant Number mean: 0.0499236 max: 0.483018
[INFO] MatrixAssemblyU: 42.007 [ms]
DILUPBiCGStab:  Solving for Ux, Initial residual = 0.00869639, Final residual = 0.000226088, No Iterations 5
DILUPBiCGStab:  Solving for Uy, Initial residual = 0.0226161, Final residual = 0.000589823, No Iterations 5
DILUPBiCGStab:  Solving for Uz, Initial residual = 0.130351, Final residual = 0.00720852, No Iterations 5
[INFO] MomentumPredictor: 293.968 [ms]
[INFO] MatrixAssemblyPI: 43.584 [ms]
[INFO] AdjustPhi: 1.612 [ms]
[INFO] ConstrainPressure: 0.004 [ms]
[INFO] MatrixAssemblyPII: 14.471 [ms]
GAMG:  Solving for p, Initial residual = 0.443216, Final residual = 8.69663e-05, No Iterations 19
[INFO] SolveP: 339.782 [ms]
time step continuity errors : sum local = 4.97579e-09, global = -4.32285e-21, cumulative = -5.21583e-20
[INFO] ContinuityError: 2.998 [ms]
[INFO] CorrectBoundary: 0.259 [ms]
[INFO] PISOStep: 420.167 [ms]
[INFO] MatrixAssemblyPI: 42.55 [ms]
[INFO] AdjustPhi: 1.425 [ms]
[INFO] ConstrainPressure: 0.002 [ms]
[INFO] MatrixAssemblyPII: 14.42 [ms]
GAMG:  Solving for p, Initial residual = 0.395043, Final residual = 9.33627e-05, No Iterations 19
[INFO] SolveP: 339.96 [ms]
time step continuity errors : sum local = 5.31807e-09, global = -3.25537e-21, cumulative = -5.54137e-20
[INFO] ContinuityError: 2.658 [ms]
[INFO] CorrectBoundary: 0.157 [ms]
[INFO] PISOStep: 419.11 [ms]
[INFO] TimeStep: 1180.09 [ms]
ExecutionTime = 15.05 s  ClockTime = 16 s

Time = 0.00325

Courant Number mean: 0.0515386 max: 0.483584
[INFO] MatrixAssemblyU: 42.254 [ms]
DILUPBiCGStab:  Solving for Ux, Initial residual = 0.00789037, Final residual = 0.000193603, No Iterations 5
DILUPBiCGStab:  Solving for Uy, Initial residual = 0.0197972, Final residual = 0.00046633, No Iterations 5
DILUPBiCGStab:  Solving for Uz, Initial residual = 0.115322, Final residual = 0.00692886, No Iterations 5
[INFO] MomentumPredictor: 294.383 [ms]
[INFO] MatrixAssemblyPI: 43.506 [ms]
[INFO] AdjustPhi: 1.626 [ms]
[INFO] ConstrainPressure: 0.003 [ms]
[INFO] MatrixAssemblyPII: 14.482 [ms]
GAMG:  Solving for p, Initial residual = 0.413774, Final residual = 9.37788e-05, No Iterations 20
[INFO] SolveP: 356.196 [ms]
time step continuity errors : sum local = 5.02134e-09, global = -5.03319e-21, cumulative = -6.04468e-20
[INFO] ContinuityError: 2.83 [ms]
[INFO] CorrectBoundary: 0.279 [ms]
[INFO] PISOStep: 436.527 [ms]
[INFO] MatrixAssemblyPI: 43.014 [ms]
[INFO] AdjustPhi: 1.043 [ms]
[INFO] ConstrainPressure: 0.002 [ms]
[INFO] MatrixAssemblyPII: 14.527 [ms]
GAMG:  Solving for p, Initial residual = 0.366057, Final residual = 8.01111e-05, No Iterations 23
[INFO] SolveP: 407.679 [ms]
time step continuity errors : sum local = 4.27641e-09, global = -3.34181e-21, cumulative = -6.37887e-20
[INFO] ContinuityError: 2.652 [ms]
[INFO] CorrectBoundary: 0.143 [ms]
[INFO] PISOStep: 487.286 [ms]
[INFO] TimeStep: 1265.31 [ms]
ExecutionTime = 16.3 s  ClockTime = 17 s

Time = 0.0035

Courant Number mean: 0.053039 max: 0.484179
[INFO] MatrixAssemblyU: 41.853 [ms]
DILUPBiCGStab:  Solving for Ux, Initial residual = 0.00715214, Final residual = 0.000167915, No Iterations 5
DILUPBiCGStab:  Solving for Uy, Initial residual = 0.0179417, Final residual = 0.000397949, No Iterations 5
DILUPBiCGStab:  Solving for Uz, Initial residual = 0.0959683, Final residual = 0.0054039, No Iterations 5
[INFO] MomentumPredictor: 294.249 [ms]
[INFO] MatrixAssemblyPI: 43.635 [ms]
[INFO] AdjustPhi: 1.775 [ms]
[INFO] ConstrainPressure: 0.002 [ms]
[INFO] MatrixAssemblyPII: 14.325 [ms]
GAMG:  Solving for p, Initial residual = 0.371634, Final residual = 7.54969e-05, No Iterations 19
[INFO] SolveP: 340.233 [ms]
time step continuity errors : sum local = 3.88948e-09, global = -3.305e-21, cumulative = -6.70937e-20
[INFO] ContinuityError: 2.922 [ms]
[INFO] CorrectBoundary: 0.492 [ms]
[INFO] PISOStep: 420.715 [ms]
[INFO] MatrixAssemblyPI: 42.74 [ms]
[INFO] AdjustPhi: 1.458 [ms]
[INFO] ConstrainPressure: 0.004 [ms]
[INFO] MatrixAssemblyPII: 14.347 [ms]
GAMG:  Solving for p, Initial residual = 0.33008, Final residual = 8.27753e-05, No Iterations 19
[INFO] SolveP: 340.863 [ms]
time step continuity errors : sum local = 4.25045e-09, global = -7.49343e-21, cumulative = -7.45871e-20
[INFO] ContinuityError: 2.926 [ms]
[INFO] CorrectBoundary: 0.067 [ms]
[INFO] PISOStep: 420.437 [ms]
[INFO] TimeStep: 1182.08 [ms]
ExecutionTime = 17.48 s  ClockTime = 18 s

Time = 0.00375

Courant Number mean: 0.0544461 max: 0.484618
[INFO] MatrixAssemblyU: 42.828 [ms]
DILUPBiCGStab:  Solving for Ux, Initial residual = 0.00655651, Final residual = 0.000146114, No Iterations 5
DILUPBiCGStab:  Solving for Uy, Initial residual = 0.0160645, Final residual = 0.000343048, No Iterations 5
DILUPBiCGStab:  Solving for Uz, Initial residual = 0.0842011, Final residual = 0.00499741, No Iterations 5
[INFO] MomentumPredictor: 292.318 [ms]
[INFO] MatrixAssemblyPI: 44.175 [ms]
[INFO] AdjustPhi: 0.873 [ms]
[INFO] ConstrainPressure: 0.003 [ms]
[INFO] MatrixAssemblyPII: 14.333 [ms]
GAMG:  Solving for p, Initial residual = 0.339884, Final residual = 7.42507e-05, No Iterations 19
[INFO] SolveP: 339.878 [ms]
time step continuity errors : sum local = 3.66063e-09, global = -7.25355e-21, cumulative = -8.18406e-20
[INFO] ContinuityError: 2.595 [ms]
[INFO] CorrectBoundary: 0.156 [ms]
[INFO] PISOStep: 420.067 [ms]
[INFO] MatrixAssemblyPI: 43.003 [ms]
[INFO] AdjustPhi: 1.224 [ms]
[INFO] ConstrainPressure: 0.003 [ms]
[INFO] MatrixAssemblyPII: 14.373 [ms]
GAMG:  Solving for p, Initial residual = 0.299977, Final residual = 7.17806e-05, No Iterations 19
[INFO] SolveP: 340.241 [ms]
time step continuity errors : sum local = 3.54087e-09, global = -7.25396e-21, cumulative = -8.90946e-20
[INFO] ContinuityError: 2.982 [ms]
[INFO] CorrectBoundary: 0.202 [ms]
[INFO] PISOStep: 419.602 [ms]
[INFO] TimeStep: 1179.62 [ms]
ExecutionTime = 18.64 s  ClockTime = 19 s

Time = 0.004

Courant Number mean: 0.0557643 max: 0.485081
[INFO] MatrixAssemblyU: 42.402 [ms]
DILUPBiCGStab:  Solving for Ux, Initial residual = 0.0060292, Final residual = 0.000129843, No Iterations 5
DILUPBiCGStab:  Solving for Uy, Initial residual = 0.0147373, Final residual = 0.000296184, No Iterations 5
DILUPBiCGStab:  Solving for Uz, Initial residual = 0.0731154, Final residual = 0.00414707, No Iterations 5
[INFO] MomentumPredictor: 292.966 [ms]
[INFO] MatrixAssemblyPI: 43.921 [ms]
[INFO] AdjustPhi: 1.159 [ms]
[INFO] ConstrainPressure: 0.004 [ms]
[INFO] MatrixAssemblyPII: 14.366 [ms]
GAMG:  Solving for p, Initial residual = 0.308351, Final residual = 7.51677e-05, No Iterations 19
[INFO] SolveP: 340.179 [ms]
time step continuity errors : sum local = 3.56642e-09, global = -4.78938e-21, cumulative = -9.3884e-20
[INFO] ContinuityError: 2.919 [ms]
[INFO] CorrectBoundary: 0.177 [ms]
[INFO] PISOStep: 420.626 [ms]
[INFO] MatrixAssemblyPI: 42.441 [ms]
[INFO] AdjustPhi: 1.617 [ms]
[INFO] ConstrainPressure: 0.002 [ms]
[INFO] MatrixAssemblyPII: 14.411 [ms]
GAMG:  Solving for p, Initial residual = 0.273248, Final residual = 9.52947e-05, No Iterations 18
[INFO] SolveP: 323.353 [ms]
time step continuity errors : sum local = 4.52632e-09, global = -5.24639e-21, cumulative = -9.91304e-20
[INFO] ContinuityError: 3.002 [ms]
[INFO] CorrectBoundary: 0.163 [ms]
[INFO] PISOStep: 402.428 [ms]
[INFO] TimeStep: 1163.39 [ms]
ExecutionTime = 19.8 s  ClockTime = 20 s

Time = 0.00425

Courant Number mean: 0.0570078 max: 0.48544
[INFO] MatrixAssemblyU: 43.058 [ms]
DILUPBiCGStab:  Solving for Ux, Initial residual = 0.00557381, Final residual = 0.000114641, No Iterations 5
DILUPBiCGStab:  Solving for Uy, Initial residual = 0.0134128, Final residual = 0.000268441, No Iterations 5
DILUPBiCGStab:  Solving for Uz, Initial residual = 0.0647379, Final residual = 0.00372321, No Iterations 5
[INFO] MomentumPredictor: 292.616 [ms]
[INFO] MatrixAssemblyPI: 44.275 [ms]
[INFO] AdjustPhi: 0.787 [ms]
[INFO] ConstrainPressure: 0.002 [ms]
[INFO] MatrixAssemblyPII: 14.173 [ms]
GAMG:  Solving for p, Initial residual = 0.277959, Final residual = 6.05615e-05, No Iterations 20
[INFO] SolveP: 356.111 [ms]
time step continuity errors : sum local = 2.80238e-09, global = -7.29377e-21, cumulative = -1.06424e-19
[INFO] ContinuityError: 2.683 [ms]
[INFO] CorrectBoundary: 0.244 [ms]
[INFO] PISOStep: 436.465 [ms]
[INFO] MatrixAssemblyPI: 42.375 [ms]
[INFO] AdjustPhi: 1.663 [ms]
[INFO] ConstrainPressure: 0.004 [ms]
[INFO] MatrixAssemblyPII: 14.605 [ms]
GAMG:  Solving for p, Initial residual = 0.245157, Final residual = 6.85729e-05, No Iterations 19
[INFO] SolveP: 339.434 [ms]
time step continuity errors : sum local = 3.17134e-09, global = -5.21951e-21, cumulative = -1.11644e-19
[INFO] ContinuityError: 2.817 [ms]
[INFO] CorrectBoundary: 0.322 [ms]
[INFO] PISOStep: 418.863 [ms]
[INFO] TimeStep: 1195.93 [ms]
ExecutionTime = 20.98 s  ClockTime = 22 s

Time = 0.0045

Courant Number mean: 0.0581809 max: 0.48581
[INFO] MatrixAssemblyU: 42.276 [ms]
DILUPBiCGStab:  Solving for Ux, Initial residual = 0.0051798, Final residual = 0.000103769, No Iterations 5
DILUPBiCGStab:  Solving for Uy, Initial residual = 0.0124283, Final residual = 0.000235633, No Iterations 5
DILUPBiCGStab:  Solving for Uz, Initial residual = 0.0561754, Final residual = 0.00306728, No Iterations 5
[INFO] MomentumPredictor: 293.4 [ms]
[INFO] MatrixAssemblyPI: 43.711 [ms]
[INFO] AdjustPhi: 1.396 [ms]
[INFO] ConstrainPressure: 0.002 [ms]
[INFO] MatrixAssemblyPII: 14.429 [ms]
GAMG:  Solving for p, Initial residual = 0.253451, Final residual = 8.29191e-05, No Iterations 19
[INFO] SolveP: 339.056 [ms]
time step continuity errors : sum local = 3.69217e-09, global = -2.7421e-21, cumulative = -1.14386e-19
[INFO] ContinuityError: 2.757 [ms]
[INFO] CorrectBoundary: 0.302 [ms]
[INFO] PISOStep: 419.613 [ms]
[INFO] MatrixAssemblyPI: 42.253 [ms]
[INFO] AdjustPhi: 1.342 [ms]
[INFO] ConstrainPressure: 0.004 [ms]
[INFO] MatrixAssemblyPII: 14.252 [ms]
GAMG:  Solving for p, Initial residual = 0.22427, Final residual = 9.82292e-05, No Iterations 17
[INFO] SolveP: 306.103 [ms]
time step continuity errors : sum local = 4.36024e-09, global = -6.13024e-21, cumulative = -1.20516e-19
[INFO] ContinuityError: 2.807 [ms]
[INFO] CorrectBoundary: 0.236 [ms]
[INFO] PISOStep: 385.051 [ms]
[INFO] TimeStep: 1145.22 [ms]
ExecutionTime = 22.12 s  ClockTime = 23 s

Time = 0.00475

Courant Number mean: 0.0592928 max: 0.486109
[INFO] MatrixAssemblyU: 42.634 [ms]
DILUPBiCGStab:  Solving for Ux, Initial residual = 0.00482256, Final residual = 9.26821e-05, No Iterations 5
DILUPBiCGStab:  Solving for Uy, Initial residual = 0.0114479, Final residual = 0.000219286, No Iterations 5
DILUPBiCGStab:  Solving for Uz, Initial residual = 0.0532972, Final residual = 0.00289901, No Iterations 5
[INFO] MomentumPredictor: 292.169 [ms]
[INFO] MatrixAssemblyPI: 44.047 [ms]
[INFO] AdjustPhi: 1.081 [ms]
[INFO] ConstrainPressure: 0.004 [ms]
[INFO] MatrixAssemblyPII: 14.379 [ms]
GAMG:  Solving for p, Initial residual = 0.226642, Final residual = 9.15655e-05, No Iterations 17
[INFO] SolveP: 304.842 [ms]
time step continuity errors : sum local = 4.01961e-09, global = -5.71871e-21, cumulative = -1.26235e-19
[INFO] ContinuityError: 2.963 [ms]
[INFO] CorrectBoundary: 0.185 [ms]
[INFO] PISOStep: 385.565 [ms]
[INFO] MatrixAssemblyPI: 42.888 [ms]
[INFO] AdjustPhi: 4.334 [ms]
[INFO] ConstrainPressure: 0.002 [ms]
[INFO] MatrixAssemblyPII: 14.167 [ms]
GAMG:  Solving for p, Initial residual = 0.1999, Final residual = 9.53507e-05, No Iterations 18
[INFO] SolveP: 322.09 [ms]
time step continuity errors : sum local = 4.201e-09, global = -2.78305e-21, cumulative = -1.29018e-19
[INFO] ContinuityError: 2.808 [ms]
[INFO] CorrectBoundary: 0.185 [ms]
[INFO] PISOStep: 404.652 [ms]
[INFO] TimeStep: 1129.94 [ms]
ExecutionTime = 23.24 s  ClockTime = 24 s

Time = 0.005

Courant Number mean: 0.0603472 max: 0.486416
[INFO] MatrixAssemblyU: 41.887 [ms]
DILUPBiCGStab:  Solving for Ux, Initial residual = 0.00451757, Final residual = 8.5092e-05, No Iterations 5
DILUPBiCGStab:  Solving for Uy, Initial residual = 0.0106955, Final residual = 0.000195695, No Iterations 5
DILUPBiCGStab:  Solving for Uz, Initial residual = 0.0491396, Final residual = 0.00248092, No Iterations 5
[INFO] MomentumPredictor: 294.14 [ms]
[INFO] MatrixAssemblyPI: 43.966 [ms]
[INFO] AdjustPhi: 1.093 [ms]
[INFO] ConstrainPressure: 0.004 [ms]
[INFO] MatrixAssemblyPII: 14.014 [ms]
GAMG:  Solving for p, Initial residual = 0.207281, Final residual = 8.50566e-05, No Iterations 18
[INFO] SolveP: 323.076 [ms]
time step continuity errors : sum local = 3.60577e-09, global = -7.7633e-21, cumulative = -1.36781e-19
[INFO] ContinuityError: 2.814 [ms]
[INFO] CorrectBoundary: 0.202 [ms]
[INFO] PISOStep: 403.558 [ms]
[INFO] MatrixAssemblyPI: 43.26 [ms]
[INFO] AdjustPhi: 0.797 [ms]
[INFO] ConstrainPressure: 0.004 [ms]
[INFO] MatrixAssemblyPII: 14.351 [ms]
GAMG:  Solving for p, Initial residual = 0.183418, Final residual = 9.54356e-05, No Iterations 18
[INFO] SolveP: 323.177 [ms]
time step continuity errors : sum local = 4.03753e-09, global = -7.70808e-21, cumulative = -1.44489e-19
[INFO] ContinuityError: 2.988 [ms]
[INFO] CorrectBoundary: 0.218 [ms]
[INFO] PISOStep: 402.545 [ms]
[INFO] TimeStep: 1147.06 [ms]
ExecutionTime = 24.37 s  ClockTime = 25 s

End

Finalising parallel run
