/*---------------------------------------------------------------------------*\
| =========                 |                                                 |
| \\      /  F ield         | OpenFOAM: The Open Source CFD Toolbox           |
|  \\    /   O peration     | Version:  2306                                  |
|   \\  /    A nd           | Website:  www.openfoam.com                      |
|    \\/     M anipulation  |                                                 |
\*---------------------------------------------------------------------------*/
Build  : c423ebec-20231012 OPENFOAM=2306 version=v2306
Arch   : "LSB;label=32;scalar=64"
Exec   : icoFoam -parallel -case /hkfs/work/workspace/scratch/eq4036-l3d/workspace/ab913fd4333309af84cf44b209f3c207/case
Date   : Jan 10 2024
Time   : 21:59:59
Host   : hkn0626.localdomain
PID    : 959249
I/O    : uncollated
Case   : /hkfs/work/workspace/scratch/eq4036-l3d/workspace/ab913fd4333309af84cf44b209f3c207/case
nProcs : 76
Hosts  :
(
    (hkn0626.localdomain 76)
)
Pstream initialized with:
    floatTransfer      : false
    nProcsSimpleSum    : 0
    nonBlockingExchange: 0 (tuning: 0)
    exchange algorithm : -1
    commsType          : nonBlocking
    polling iterations : 0
trapFpe: Floating point exception trapping enabled (FOAM_SIGFPE).
fileModificationChecking : Monitoring run-time modified files using timeStampMaster (fileModificationSkew 5, maxFileModificationPolls 20)
allowSystemOperations : Allowing user-supplied system call operations

// * * * * * * * * * * * * * * * * * * * * * * * * * * * * * * * * * * * * * //
Create time

--> FOAM Warning : 
    From void* Foam::dlLibraryTable::openLibrary(const Foam::fileName&, bool)
    in file db/dynamicLibrary/dlLibraryTable/dlLibraryTable.C at line 188
    Could not load "libpetscFoam.so"
libpetscFoam.so: cannot open shared object file: No such file or directory
Create mesh for time = 0


PISO: Operating solver in PISO mode

Reading transportProperties

Reading field p

Reading field U

Reading/calculating face flux field phi


Starting time loop

Time = 0.0005

Courant Number mean: 8.62851e-18 max: 8.67362e-15
[INFO] MatrixAssemblyU: 8.431 [ms]
DILUPBiCGStab:  Solving for Ux, Initial residual = 1, Final residual = 0.00725578, No Iterations 5
DILUPBiCGStab:  Solving for Uy:  solution singularity
DILUPBiCGStab:  Solving for Uz:  solution singularity
[INFO] MomentumPredictor: 14.92 [ms]
[INFO] MatrixAssemblyPI: 4.648 [ms]
[INFO] AdjustPhi: 1.067 [ms]
[INFO] ConstrainPressure: 0.005 [ms]
[INFO] MatrixAssemblyPII: 1.512 [ms]
[OGL LOG][lduLduBase.H:119] Initialising OGL
	OGL commit:  e75313f+
	Branch: dev 
	Build type: Debug
	Ginkgo version: 1.8.0 ( develop)
	Ginkgo commit: sparse-communicator
	MPI is GPU aware: 1
	Forces host buffer based communication: 0
	CPU ranks per GPU: 1
	Matrix format: Ell
	End OGL_INFO
[OGL LOG][Proc: 0]: global_index_init: 125.729 [ms]
[OGL LOG][Proc: 0]p_local_cols: call_init: 1.478 [ms]
[OGL LOG][Proc: 0]p_local_rows: call_init: 0.751 [ms]
[OGL LOG][Proc: 0]p_local_ldu_map: call_init: 0.446 [ms]
[OGL LOG][Proc: 0]p_local_coeffs: call_init: 8.124 [ms]
[OGL LOG][Proc: 0]p_non_local_cols: call_init: 0.041 [ms]
[OGL LOG][Proc: 0]p_non_local_rows: call_init: 0.557 [ms]
[OGL LOG][Proc: 0]p_non_local_ldu_map: call_init: 0.412 [ms]
[OGL LOG][Proc: 0]p_non_local_coeffs: call_init: 0.715 [ms]
[OGL LOG][Proc: 0]p: init_local_sparsity_pattern: 254.949 [ms]
[OGL LOG][Proc: 0]p: init_non_local_sparsity_pattern: 22.769 [ms]
[OGL LOG][Proc: 0]p: update_local_matrix_data: 62.869 [ms]
[OGL LOG][Proc: 0]p: update_non_local_matrix_data: 0.269 [ms]
[OGL LOG][Proc: 0]device_partition: call_init: 0.149 [ms]
[OGL LOG][Proc: 0]p_matrix: call_init: 22.728 [ms]
[OGL LOG][Proc: 0]p_rhs: call_init: 1.177 [ms]
[OGL LOG][Proc: 0]p_solution: call_init: 0.621 [ms]
[OGL LOG][Preconditioner.H:346] Generate preconditioner Multigrid MaxLevels 9 MinCoarseRows 10 ZeroGuess 1 Cycle v
[OGL LOG][Proc: 0]p: init_precond: 1376.88 [ms]
[OGL LOG][StoppingCriterion.H:239] Creating stopping criterion with minIter 0 frequency 1
[OGL LOG][Proc: 0]p: generate_solver: 0.03 [ms]
[OGL LOG][Proc: 0]p: solve: 54526.7 [ms]
[OGL LOG][Proc: 0]p: copy_x_back: 0.236 [ms]
[OGL LOG][lduLduBase.H:330] 
Statistics:
	Time per iteration: 159902 [mu s]
	Time per residual norm calculation: 10318.000000 [mu s]
	Time per iteration and DOF: 159.902000 [ns]
	Retrieve results bandwidth 0.486000 [GByte/s]
[OGL LOG][Proc: 0]p: solve_multi_gpu: 55952.4 [ms]
MultigridcudaGKOCG:  Solving for p, Initial residual = 1, Final residual = 9.41238e-05, No Iterations 341
[INFO] SolveP: 77360.1 [ms]
time step continuity errors : sum local = 1.96742e-08, global = 3.02229e-21, cumulative = 3.02229e-21
[INFO] ContinuityError: 4.986 [ms]
[INFO] CorrectBoundary: 0.115 [ms]
[INFO] PISOStep: 77377 [ms]
[INFO] MatrixAssemblyPI: 5.285 [ms]
[INFO] AdjustPhi: 0.428 [ms]
[INFO] ConstrainPressure: 0.002 [ms]
[INFO] MatrixAssemblyPII: 1.334 [ms]
[OGL LOG][Proc: 0]: global_index_init: 0.331 [ms]
[OGL LOG][Proc: 0]p_local_coeffs: call_update: 0.001 [ms]
[OGL LOG][Proc: 0]p_non_local_coeffs: call_update: 0 [ms]
[OGL LOG][Proc: 0]p: update_local_matrix_data: 3.451 [ms]
[OGL LOG][Proc: 0]p: update_non_local_matrix_data: 0.175 [ms]
[OGL LOG][Proc: 0]p: regenerate_distributed_matrix: 4.997 [ms]
[OGL LOG][Proc: 0]p_matrix: call_update: 7.397 [ms]
[OGL LOG][Proc: 0]p_rhs: call_update: 4.271 [ms]
[OGL LOG][Preconditioner.H:346] Generate preconditioner Multigrid MaxLevels 9 MinCoarseRows 10 ZeroGuess 1 Cycle v
[OGL LOG][Proc: 0]p: init_precond: 1393.77 [ms]
[OGL LOG][StoppingCriterion.H:239] Creating stopping criterion with minIter 204 frequency 3
[OGL LOG][Proc: 0]p: generate_solver: 0.013 [ms]
[OGL LOG][Proc: 0]p: solve: 13611.9 [ms]
[OGL LOG][Proc: 0]p: copy_x_back: 0.174 [ms]
[OGL LOG][lduLduBase.H:330] 
Statistics:
	Time per iteration: 40391 [mu s]
	Time per residual norm calculation: 12812.000000 [mu s]
	Time per iteration and DOF: 40.391000 [ns]
	Retrieve results bandwidth 0.659000 [GByte/s]
[OGL LOG][Proc: 0]p: solve_multi_gpu: 15042.2 [ms]
MultigridcudaGKOCG:  Solving for p, Initial residual = 0.724053, Final residual = 9.22961e-05, No Iterations 337
[INFO] SolveP: 15052.1 [ms]
time step continuity errors : sum local = 2.56698e-08, global = 2.24887e-20, cumulative = 2.5511e-20
[INFO] ContinuityError: 1.439 [ms]
[INFO] CorrectBoundary: 0.128 [ms]
[INFO] PISOStep: 15065 [ms]
[INFO] TimeStep: 92466.7 [ms]
ExecutionTime = 75.74 s  ClockTime = 94 s

Time = 0.001

Courant Number mean: 0.0213254 max: 0.377012
[INFO] MatrixAssemblyU: 6.133 [ms]
DILUPBiCGStab:  Solving for Ux, Initial residual = 0.149758, Final residual = 0.00333968, No Iterations 5
DILUPBiCGStab:  Solving for Uy, Initial residual = 0.369529, Final residual = 0.0068562, No Iterations 5
DILUPBiCGStab:  Solving for Uz, Initial residual = 0.986324, Final residual = 0.0191213, No Iterations 5
[INFO] MomentumPredictor: 22.627 [ms]
[INFO] MatrixAssemblyPI: 4.787 [ms]
[INFO] AdjustPhi: 0.87 [ms]
[INFO] ConstrainPressure: 0.002 [ms]
[INFO] MatrixAssemblyPII: 1.75 [ms]
[OGL LOG][Proc: 0]: global_index_init: 0.088 [ms]
[OGL LOG][Proc: 0]p_local_coeffs: call_update: 0 [ms]
[OGL LOG][Proc: 0]p_non_local_coeffs: call_update: 0 [ms]
[OGL LOG][Proc: 0]p: update_local_matrix_data: 2.83 [ms]
[OGL LOG][Proc: 0]p: update_non_local_matrix_data: 0.174 [ms]
[OGL LOG][Proc: 0]p: regenerate_distributed_matrix: 5.945 [ms]
[OGL LOG][Proc: 0]p_matrix: call_update: 7.726 [ms]
[OGL LOG][Proc: 0]p_rhs: call_update: 4.368 [ms]
[OGL LOG][Preconditioner.H:346] Generate preconditioner Multigrid MaxLevels 9 MinCoarseRows 10 ZeroGuess 1 Cycle v
[OGL LOG][Proc: 0]p: init_precond: 1408.8 [ms]
[OGL LOG][StoppingCriterion.H:239] Creating stopping criterion with minIter 202 frequency 6
[OGL LOG][Proc: 0]p: generate_solver: 0.01 [ms]
[OGL LOG][Proc: 0]p: solve: 12859.6 [ms]
[OGL LOG][Proc: 0]p: copy_x_back: 0.219 [ms]
[OGL LOG][lduLduBase.H:330] 
Statistics:
	Time per iteration: 39568 [mu s]
	Time per residual norm calculation: 10718.000000 [mu s]
	Time per iteration and DOF: 39.568000 [ns]
	Retrieve results bandwidth 0.523000 [GByte/s]
[OGL LOG][Proc: 0]p: solve_multi_gpu: 14299.6 [ms]
MultigridcudaGKOCG:  Solving for p, Initial residual = 0.689857, Final residual = 7.94285e-05, No Iterations 325
[INFO] SolveP: 14313.2 [ms]
time step continuity errors : sum local = 2.51574e-08, global = 3.48749e-20, cumulative = 6.03859e-20
[INFO] ContinuityError: 4.73 [ms]
[INFO] CorrectBoundary: 0.168 [ms]
[INFO] PISOStep: 14329.6 [ms]
[INFO] MatrixAssemblyPI: 6.375 [ms]
[INFO] AdjustPhi: 0.51 [ms]
[INFO] ConstrainPressure: 0.002 [ms]
[INFO] MatrixAssemblyPII: 1.353 [ms]
[OGL LOG][Proc: 0]: global_index_init: 0.079 [ms]
[OGL LOG][Proc: 0]p_local_coeffs: call_update: 0 [ms]
[OGL LOG][Proc: 0]p_non_local_coeffs: call_update: 0 [ms]
[OGL LOG][Proc: 0]p: update_local_matrix_data: 3.165 [ms]
[OGL LOG][Proc: 0]p: update_non_local_matrix_data: 0.188 [ms]
[OGL LOG][Proc: 0]p: regenerate_distributed_matrix: 4.184 [ms]
[OGL LOG][Proc: 0]p_matrix: call_update: 6.673 [ms]
[OGL LOG][Proc: 0]p_rhs: call_update: 4.851 [ms]
[OGL LOG][Preconditioner.H:346] Generate preconditioner Multigrid MaxLevels 9 MinCoarseRows 10 ZeroGuess 1 Cycle v
[OGL LOG][Proc: 0]p: init_precond: 1411.16 [ms]
[OGL LOG][StoppingCriterion.H:239] Creating stopping criterion with minIter 195 frequency 6
[OGL LOG][Proc: 0]p: generate_solver: 0.013 [ms]
[OGL LOG][Proc: 0]p: solve: 12876.7 [ms]
[OGL LOG][Proc: 0]p: copy_x_back: 0.187 [ms]
[OGL LOG][lduLduBase.H:330] 
Statistics:
	Time per iteration: 39620 [mu s]
	Time per residual norm calculation: 12704.000000 [mu s]
	Time per iteration and DOF: 39.620000 [ns]
	Retrieve results bandwidth 0.613000 [GByte/s]
[OGL LOG][Proc: 0]p: solve_multi_gpu: 14322.6 [ms]
MultigridcudaGKOCG:  Solving for p, Initial residual = 0.617403, Final residual = 7.26579e-05, No Iterations 325
[INFO] SolveP: 14333.3 [ms]
time step continuity errors : sum local = 2.34726e-08, global = 2.57523e-20, cumulative = 8.61382e-20
[INFO] ContinuityError: 2.321 [ms]
[INFO] CorrectBoundary: 1.12 [ms]
[INFO] PISOStep: 14349.8 [ms]
[INFO] TimeStep: 28712 [ms]
ExecutionTime = 104.26 s  ClockTime = 122 s

Time = 0.0015

Courant Number mean: 0.0322504 max: 0.44083
[INFO] MatrixAssemblyU: 5.849 [ms]
DILUPBiCGStab:  Solving for Ux, Initial residual = 0.0534, Final residual = 0.000960917, No Iterations 5
DILUPBiCGStab:  Solving for Uy, Initial residual = 0.125939, Final residual = 0.00233141, No Iterations 5
DILUPBiCGStab:  Solving for Uz, Initial residual = 0.56594, Final residual = 0.00989944, No Iterations 5
[INFO] MomentumPredictor: 20.881 [ms]
[INFO] MatrixAssemblyPI: 5.058 [ms]
[INFO] AdjustPhi: 0.179 [ms]
[INFO] ConstrainPressure: 0.002 [ms]
[INFO] MatrixAssemblyPII: 1.437 [ms]
[OGL LOG][Proc: 0]: global_index_init: 0.078 [ms]
[OGL LOG][Proc: 0]p_local_coeffs: call_update: 0 [ms]
[OGL LOG][Proc: 0]p_non_local_coeffs: call_update: 0 [ms]
[OGL LOG][Proc: 0]p: update_local_matrix_data: 3.112 [ms]
[OGL LOG][Proc: 0]p: update_non_local_matrix_data: 0.195 [ms]
[OGL LOG][Proc: 0]p: regenerate_distributed_matrix: 4.204 [ms]
[OGL LOG][Proc: 0]p_matrix: call_update: 6.687 [ms]
[OGL LOG][Proc: 0]p_rhs: call_update: 5.224 [ms]
[OGL LOG][Preconditioner.H:346] Generate preconditioner Multigrid MaxLevels 9 MinCoarseRows 10 ZeroGuess 1 Cycle v
[OGL LOG][Proc: 0]p: init_precond: 1396.17 [ms]
[OGL LOG][StoppingCriterion.H:239] Creating stopping criterion with minIter 195 frequency 6
[OGL LOG][Proc: 0]p: generate_solver: 0.01 [ms]
[OGL LOG][Proc: 0]p: solve: 12410.6 [ms]
[OGL LOG][Proc: 0]p: copy_x_back: 0.114 [ms]
[OGL LOG][lduLduBase.H:330] 
Statistics:
	Time per iteration: 39650 [mu s]
	Time per residual norm calculation: 12661.000000 [mu s]
	Time per iteration and DOF: 39.650000 [ns]
	Retrieve results bandwidth 1.006000 [GByte/s]
[OGL LOG][Proc: 0]p: solve_multi_gpu: 13837.1 [ms]
MultigridcudaGKOCG:  Solving for p, Initial residual = 0.633619, Final residual = 7.60606e-05, No Iterations 313
[INFO] SolveP: 13846.8 [ms]
time step continuity errors : sum local = 1.7559e-08, global = 4.15814e-20, cumulative = 1.2772e-19
[INFO] ContinuityError: 7.616 [ms]
[INFO] CorrectBoundary: 0.5 [ms]
[INFO] PISOStep: 13864.6 [ms]
[INFO] MatrixAssemblyPI: 4.263 [ms]
[INFO] AdjustPhi: 1.732 [ms]
[INFO] ConstrainPressure: 0.003 [ms]
[INFO] MatrixAssemblyPII: 1.346 [ms]
[OGL LOG][Proc: 0]: global_index_init: 0.12 [ms]
[OGL LOG][Proc: 0]p_local_coeffs: call_update: 0 [ms]
[OGL LOG][Proc: 0]p_non_local_coeffs: call_update: 0 [ms]
[OGL LOG][Proc: 0]p: update_local_matrix_data: 3.893 [ms]
[OGL LOG][Proc: 0]p: update_non_local_matrix_data: 0.266 [ms]
[OGL LOG][Proc: 0]p: regenerate_distributed_matrix: 3.802 [ms]
[OGL LOG][Proc: 0]p_matrix: call_update: 6.317 [ms]
[OGL LOG][Proc: 0]p_rhs: call_update: 5.438 [ms]
[OGL LOG][Preconditioner.H:346] Generate preconditioner Multigrid MaxLevels 9 MinCoarseRows 10 ZeroGuess 1 Cycle v
[OGL LOG][Proc: 0]p: init_precond: 1395.19 [ms]
[OGL LOG][StoppingCriterion.H:239] Creating stopping criterion with minIter 187 frequency 6
[OGL LOG][Proc: 0]p: generate_solver: 0.011 [ms]
[OGL LOG][Proc: 0]p: solve: 12418 [ms]
[OGL LOG][Proc: 0]p: copy_x_back: 0.189 [ms]
[OGL LOG][lduLduBase.H:330] 
Statistics:
	Time per iteration: 39674 [mu s]
	Time per residual norm calculation: 11572.000000 [mu s]
	Time per iteration and DOF: 39.674000 [ns]
	Retrieve results bandwidth 0.607000 [GByte/s]
[OGL LOG][Proc: 0]p: solve_multi_gpu: 13849.1 [ms]
MultigridcudaGKOCG:  Solving for p, Initial residual = 0.581697, Final residual = 7.18958e-05, No Iterations 313
[INFO] SolveP: 13858.2 [ms]
time step continuity errors : sum local = 1.6147e-08, global = 3.43547e-20, cumulative = 1.62074e-19
[INFO] ContinuityError: 1.597 [ms]
[INFO] CorrectBoundary: 0.128 [ms]
[INFO] PISOStep: 13872.1 [ms]
[INFO] TimeStep: 27764.7 [ms]
ExecutionTime = 131.83 s  ClockTime = 150 s

Time = 0.002

Courant Number mean: 0.0386981 max: 0.452801
[INFO] MatrixAssemblyU: 6.002 [ms]
DILUPBiCGStab:  Solving for Ux, Initial residual = 0.032111, Final residual = 0.000539719, No Iterations 5
DILUPBiCGStab:  Solving for Uy, Initial residual = 0.0812203, Final residual = 0.00153463, No Iterations 5
DILUPBiCGStab:  Solving for Uz, Initial residual = 0.274623, Final residual = 0.0036567, No Iterations 5
[INFO] MomentumPredictor: 20.927 [ms]
[INFO] MatrixAssemblyPI: 4.943 [ms]
[INFO] AdjustPhi: 0.466 [ms]
[INFO] ConstrainPressure: 0.003 [ms]
[INFO] MatrixAssemblyPII: 1.258 [ms]
[OGL LOG][Proc: 0]: global_index_init: 0.069 [ms]
[OGL LOG][Proc: 0]p_local_coeffs: call_update: 0 [ms]
[OGL LOG][Proc: 0]p_non_local_coeffs: call_update: 0 [ms]
[OGL LOG][Proc: 0]p: update_local_matrix_data: 2.934 [ms]
[OGL LOG][Proc: 0]p: update_non_local_matrix_data: 0.19 [ms]
[OGL LOG][Proc: 0]p: regenerate_distributed_matrix: 4.279 [ms]
[OGL LOG][Proc: 0]p_matrix: call_update: 6.742 [ms]
[OGL LOG][Proc: 0]p_rhs: call_update: 5.197 [ms]
[OGL LOG][Preconditioner.H:346] Generate preconditioner Multigrid MaxLevels 9 MinCoarseRows 10 ZeroGuess 1 Cycle v
[OGL LOG][Proc: 0]p: init_precond: 1404.7 [ms]
[OGL LOG][StoppingCriterion.H:239] Creating stopping criterion with minIter 187 frequency 6
[OGL LOG][Proc: 0]p: generate_solver: 0.011 [ms]
[OGL LOG][Proc: 0]p: solve: 12167.4 [ms]
[OGL LOG][Proc: 0]p: copy_x_back: 0.114 [ms]
[OGL LOG][lduLduBase.H:330] 
Statistics:
	Time per iteration: 39633 [mu s]
	Time per residual norm calculation: 11262.000000 [mu s]
	Time per iteration and DOF: 39.633000 [ns]
	Retrieve results bandwidth 1.006000 [GByte/s]
[OGL LOG][Proc: 0]p: solve_multi_gpu: 13609.9 [ms]
MultigridcudaGKOCG:  Solving for p, Initial residual = 0.411546, Final residual = 6.99253e-05, No Iterations 307
[INFO] SolveP: 13616.1 [ms]
time step continuity errors : sum local = 1.36725e-08, global = 3.90901e-20, cumulative = 2.01164e-19
[INFO] ContinuityError: 2.428 [ms]
[INFO] CorrectBoundary: 0.11 [ms]
[INFO] PISOStep: 13628.5 [ms]
[INFO] MatrixAssemblyPI: 4.368 [ms]
[INFO] AdjustPhi: 1.969 [ms]
[INFO] ConstrainPressure: 0.002 [ms]
[INFO] MatrixAssemblyPII: 1.255 [ms]
[OGL LOG][Proc: 0]: global_index_init: 0.083 [ms]
[OGL LOG][Proc: 0]p_local_coeffs: call_update: 0 [ms]
[OGL LOG][Proc: 0]p_non_local_coeffs: call_update: 0 [ms]
[OGL LOG][Proc: 0]p: update_local_matrix_data: 3.357 [ms]
[OGL LOG][Proc: 0]p: update_non_local_matrix_data: 0.182 [ms]
[OGL LOG][Proc: 0]p: regenerate_distributed_matrix: 4.275 [ms]
[OGL LOG][Proc: 0]p_matrix: call_update: 6.696 [ms]
[OGL LOG][Proc: 0]p_rhs: call_update: 5.523 [ms]
[OGL LOG][Preconditioner.H:346] Generate preconditioner Multigrid MaxLevels 9 MinCoarseRows 10 ZeroGuess 1 Cycle v
[OGL LOG][Proc: 0]p: init_precond: 1401.51 [ms]
[OGL LOG][StoppingCriterion.H:239] Creating stopping criterion with minIter 184 frequency 6
[OGL LOG][Proc: 0]p: generate_solver: 0.014 [ms]
[OGL LOG][Proc: 0]p: solve: 12183.4 [ms]
[OGL LOG][Proc: 0]p: copy_x_back: 0.197 [ms]
[OGL LOG][lduLduBase.H:330] 
Statistics:
	Time per iteration: 39685 [mu s]
	Time per residual norm calculation: 11019.000000 [mu s]
	Time per iteration and DOF: 39.685000 [ns]
	Retrieve results bandwidth 0.582000 [GByte/s]
[OGL LOG][Proc: 0]p: solve_multi_gpu: 13618.8 [ms]
MultigridcudaGKOCG:  Solving for p, Initial residual = 0.350319, Final residual = 6.32318e-05, No Iterations 307
[INFO] SolveP: 13628.9 [ms]
time step continuity errors : sum local = 1.24803e-08, global = 4.16057e-20, cumulative = 2.4277e-19
[INFO] ContinuityError: 4.338 [ms]
[INFO] CorrectBoundary: 0.143 [ms]
[INFO] PISOStep: 13646.2 [ms]
[INFO] TimeStep: 27303.6 [ms]
ExecutionTime = 158.94 s  ClockTime = 177 s

Time = 0.0025

Courant Number mean: 0.0437391 max: 0.459443
[INFO] MatrixAssemblyU: 5.977 [ms]
DILUPBiCGStab:  Solving for Ux, Initial residual = 0.0237261, Final residual = 0.000326732, No Iterations 5
DILUPBiCGStab:  Solving for Uy, Initial residual = 0.0520043, Final residual = 0.000526175, No Iterations 5
DILUPBiCGStab:  Solving for Uz, Initial residual = 0.103411, Final residual = 0.00178418, No Iterations 5
[INFO] MomentumPredictor: 20.63 [ms]
[INFO] MatrixAssemblyPI: 4.897 [ms]
[INFO] AdjustPhi: 0.246 [ms]
[INFO] ConstrainPressure: 0.001 [ms]
[INFO] MatrixAssemblyPII: 1.223 [ms]
[OGL LOG][Proc: 0]: global_index_init: 0.067 [ms]
[OGL LOG][Proc: 0]p_local_coeffs: call_update: 0 [ms]
[OGL LOG][Proc: 0]p_non_local_coeffs: call_update: 0 [ms]
[OGL LOG][Proc: 0]p: update_local_matrix_data: 3.145 [ms]
[OGL LOG][Proc: 0]p: update_non_local_matrix_data: 0.203 [ms]
[OGL LOG][Proc: 0]p: regenerate_distributed_matrix: 4.189 [ms]
[OGL LOG][Proc: 0]p_matrix: call_update: 6.674 [ms]
[OGL LOG][Proc: 0]p_rhs: call_update: 5.35 [ms]
[OGL LOG][Preconditioner.H:346] Generate preconditioner Multigrid MaxLevels 9 MinCoarseRows 10 ZeroGuess 1 Cycle v
[OGL LOG][Proc: 0]p: init_precond: 1404 [ms]
[OGL LOG][StoppingCriterion.H:239] Creating stopping criterion with minIter 184 frequency 6
[OGL LOG][Proc: 0]p: generate_solver: 0.01 [ms]
[OGL LOG][Proc: 0]p: solve: 11699.7 [ms]
[OGL LOG][Proc: 0]p: copy_x_back: 0.113 [ms]
[OGL LOG][lduLduBase.H:330] 
Statistics:
	Time per iteration: 39659 [mu s]
	Time per residual norm calculation: 13425.000000 [mu s]
	Time per iteration and DOF: 39.659000 [ns]
	Retrieve results bandwidth 1.015000 [GByte/s]
[OGL LOG][Proc: 0]p: solve_multi_gpu: 13141.3 [ms]
MultigridcudaGKOCG:  Solving for p, Initial residual = 0.313598, Final residual = 9.56951e-05, No Iterations 295
[INFO] SolveP: 13147.6 [ms]
time step continuity errors : sum local = 1.5453e-08, global = 4.85248e-20, cumulative = 2.91295e-19
[INFO] ContinuityError: 3.038 [ms]
[INFO] CorrectBoundary: 0.802 [ms]
[INFO] PISOStep: 13161 [ms]
[INFO] MatrixAssemblyPI: 5.1 [ms]
[INFO] AdjustPhi: 0.612 [ms]
[INFO] ConstrainPressure: 0.001 [ms]
[INFO] MatrixAssemblyPII: 1.187 [ms]
[OGL LOG][Proc: 0]: global_index_init: 0.091 [ms]
[OGL LOG][Proc: 0]p_local_coeffs: call_update: 0 [ms]
[OGL LOG][Proc: 0]p_non_local_coeffs: call_update: 0 [ms]
[OGL LOG][Proc: 0]p: update_local_matrix_data: 3.665 [ms]
[OGL LOG][Proc: 0]p: update_non_local_matrix_data: 0.203 [ms]
[OGL LOG][Proc: 0]p: regenerate_distributed_matrix: 4.369 [ms]
[OGL LOG][Proc: 0]p_matrix: call_update: 6.804 [ms]
[OGL LOG][Proc: 0]p_rhs: call_update: 5.567 [ms]
[OGL LOG][Preconditioner.H:346] Generate preconditioner Multigrid MaxLevels 9 MinCoarseRows 10 ZeroGuess 1 Cycle v
[OGL LOG][Proc: 0]p: init_precond: 1401.82 [ms]
[OGL LOG][StoppingCriterion.H:239] Creating stopping criterion with minIter 177 frequency 7
[OGL LOG][Proc: 0]p: generate_solver: 0.01 [ms]
[OGL LOG][Proc: 0]p: solve: 11673.2 [ms]
[OGL LOG][Proc: 0]p: copy_x_back: 0.189 [ms]
[OGL LOG][lduLduBase.H:330] 
Statistics:
	Time per iteration: 39570 [mu s]
	Time per residual norm calculation: 10260.000000 [mu s]
	Time per iteration and DOF: 39.570000 [ns]
	Retrieve results bandwidth 0.607000 [GByte/s]
[OGL LOG][Proc: 0]p: solve_multi_gpu: 13110.2 [ms]
MultigridcudaGKOCG:  Solving for p, Initial residual = 0.268981, Final residual = 8.83936e-05, No Iterations 295
[INFO] SolveP: 13121.9 [ms]
time step continuity errors : sum local = 1.41653e-08, global = 4.22568e-20, cumulative = 3.33552e-19
[INFO] ContinuityError: 1.32 [ms]
[INFO] CorrectBoundary: 0.116 [ms]
[INFO] PISOStep: 13135.2 [ms]
[INFO] TimeStep: 26324.3 [ms]
ExecutionTime = 185.07 s  ClockTime = 204 s

Time = 0.003

Courant Number mean: 0.0477872 max: 0.463704
[INFO] MatrixAssemblyU: 6.011 [ms]
DILUPBiCGStab:  Solving for Ux, Initial residual = 0.0180628, Final residual = 0.000204285, No Iterations 5
DILUPBiCGStab:  Solving for Uy, Initial residual = 0.0404258, Final residual = 0.000355235, No Iterations 5
DILUPBiCGStab:  Solving for Uz, Initial residual = 0.0872993, Final residual = 0.00120946, No Iterations 5
[INFO] MomentumPredictor: 20.386 [ms]
[INFO] MatrixAssemblyPI: 4.872 [ms]
[INFO] AdjustPhi: 0.618 [ms]
[INFO] ConstrainPressure: 0.002 [ms]
[INFO] MatrixAssemblyPII: 1.452 [ms]
[OGL LOG][Proc: 0]: global_index_init: 0.066 [ms]
[OGL LOG][Proc: 0]p_local_coeffs: call_update: 0 [ms]
[OGL LOG][Proc: 0]p_non_local_coeffs: call_update: 0 [ms]
[OGL LOG][Proc: 0]p: update_local_matrix_data: 3.489 [ms]
[OGL LOG][Proc: 0]p: update_non_local_matrix_data: 0.224 [ms]
[OGL LOG][Proc: 0]p: regenerate_distributed_matrix: 4.09 [ms]
[OGL LOG][Proc: 0]p_matrix: call_update: 6.534 [ms]
[OGL LOG][Proc: 0]p_rhs: call_update: 5.228 [ms]
[OGL LOG][Preconditioner.H:346] Generate preconditioner Multigrid MaxLevels 9 MinCoarseRows 10 ZeroGuess 1 Cycle v
[OGL LOG][Proc: 0]p: init_precond: 1409.83 [ms]
[OGL LOG][StoppingCriterion.H:239] Creating stopping criterion with minIter 177 frequency 6
[OGL LOG][Proc: 0]p: generate_solver: 0.01 [ms]
[OGL LOG][Proc: 0]p: solve: 7105.9 [ms]
[OGL LOG][Proc: 0]p: copy_x_back: 0.11 [ms]
[OGL LOG][lduLduBase.H:330] 
Statistics:
	Time per iteration: 39259 [mu s]
	Time per residual norm calculation: 12386.000000 [mu s]
	Time per iteration and DOF: 39.259000 [ns]
	Retrieve results bandwidth 1.042000 [GByte/s]
[OGL LOG][Proc: 0]p: solve_multi_gpu: 8548.53 [ms]
MultigridcudaGKOCG:  Solving for p, Initial residual = 0.192304, Final residual = 9.38627e-05, No Iterations 181
[INFO] SolveP: 8557 [ms]
time step continuity errors : sum local = 1.62911e-08, global = 4.2978e-20, cumulative = 3.7653e-19
[INFO] ContinuityError: 5.578 [ms]
[INFO] CorrectBoundary: 0.418 [ms]
[INFO] PISOStep: 8572.78 [ms]
[INFO] MatrixAssemblyPI: 4.991 [ms]
[INFO] AdjustPhi: 0.563 [ms]
[INFO] ConstrainPressure: 0.002 [ms]
[INFO] MatrixAssemblyPII: 1.107 [ms]
[OGL LOG][Proc: 0]: global_index_init: 0.085 [ms]
[OGL LOG][Proc: 0]p_local_coeffs: call_update: 0 [ms]
[OGL LOG][Proc: 0]p_non_local_coeffs: call_update: 0 [ms]
[OGL LOG][Proc: 0]p: update_local_matrix_data: 3.123 [ms]
[OGL LOG][Proc: 0]p: update_non_local_matrix_data: 0.194 [ms]
[OGL LOG][Proc: 0]p: regenerate_distributed_matrix: 4.113 [ms]
[OGL LOG][Proc: 0]p_matrix: call_update: 6.734 [ms]
[OGL LOG][Proc: 0]p_rhs: call_update: 5.587 [ms]
[OGL LOG][Preconditioner.H:346] Generate preconditioner Multigrid MaxLevels 9 MinCoarseRows 10 ZeroGuess 1 Cycle v
[OGL LOG][Proc: 0]p: init_precond: 1410.49 [ms]
[OGL LOG][StoppingCriterion.H:239] Creating stopping criterion with minIter 108 frequency 4
[OGL LOG][Proc: 0]p: generate_solver: 0.012 [ms]
[OGL LOG][Proc: 0]p: solve: 5826.7 [ms]
[OGL LOG][Proc: 0]p: copy_x_back: 0.116 [ms]
[OGL LOG][lduLduBase.H:330] 
Statistics:
	Time per iteration: 40184 [mu s]
	Time per residual norm calculation: 11008.000000 [mu s]
	Time per iteration and DOF: 40.184000 [ns]
	Retrieve results bandwidth 0.989000 [GByte/s]
[OGL LOG][Proc: 0]p: solve_multi_gpu: 7269.75 [ms]
MultigridcudaGKOCG:  Solving for p, Initial residual = 0.159787, Final residual = 9.50872e-05, No Iterations 145
[INFO] SolveP: 7279.09 [ms]
time step continuity errors : sum local = 1.529e-08, global = 4.3184e-20, cumulative = 4.19714e-19
[INFO] ContinuityError: 4.967 [ms]
[INFO] CorrectBoundary: 0.093 [ms]
[INFO] PISOStep: 7295.26 [ms]
[INFO] TimeStep: 15896.1 [ms]
ExecutionTime = 200.86 s  ClockTime = 220 s

Time = 0.0035

Courant Number mean: 0.0512067 max: 0.466614
[INFO] MatrixAssemblyU: 5.468 [ms]
DILUPBiCGStab:  Solving for Ux, Initial residual = 0.0147737, Final residual = 0.00013055, No Iterations 5
DILUPBiCGStab:  Solving for Uy, Initial residual = 0.0320421, Final residual = 0.000249188, No Iterations 5
DILUPBiCGStab:  Solving for Uz, Initial residual = 0.0598299, Final residual = 0.00068318, No Iterations 5
[INFO] MomentumPredictor: 21.005 [ms]
[INFO] MatrixAssemblyPI: 4.835 [ms]
[INFO] AdjustPhi: 0.233 [ms]
[INFO] ConstrainPressure: 0.002 [ms]
[INFO] MatrixAssemblyPII: 1.168 [ms]
[OGL LOG][Proc: 0]: global_index_init: 0.064 [ms]
[OGL LOG][Proc: 0]p_local_coeffs: call_update: 0 [ms]
[OGL LOG][Proc: 0]p_non_local_coeffs: call_update: 0 [ms]
[OGL LOG][Proc: 0]p: update_local_matrix_data: 3.456 [ms]
[OGL LOG][Proc: 0]p: update_non_local_matrix_data: 0.198 [ms]
[OGL LOG][Proc: 0]p: regenerate_distributed_matrix: 4.159 [ms]
[OGL LOG][Proc: 0]p_matrix: call_update: 6.639 [ms]
[OGL LOG][Proc: 0]p_rhs: call_update: 5.414 [ms]
[OGL LOG][Preconditioner.H:346] Generate preconditioner Multigrid MaxLevels 9 MinCoarseRows 10 ZeroGuess 1 Cycle v
[OGL LOG][Proc: 0]p: init_precond: 1413.02 [ms]
[OGL LOG][StoppingCriterion.H:239] Creating stopping criterion with minIter 87 frequency 4
[OGL LOG][Proc: 0]p: generate_solver: 0.012 [ms]
[OGL LOG][Proc: 0]p: solve: 5721.47 [ms]
[OGL LOG][Proc: 0]p: copy_x_back: 0.116 [ms]
[OGL LOG][lduLduBase.H:330] 
Statistics:
	Time per iteration: 40577 [mu s]
	Time per residual norm calculation: 13421.000000 [mu s]
	Time per iteration and DOF: 40.577000 [ns]
	Retrieve results bandwidth 0.989000 [GByte/s]
[OGL LOG][Proc: 0]p: solve_multi_gpu: 7172.5 [ms]
MultigridcudaGKOCG:  Solving for p, Initial residual = 0.134377, Final residual = 8.74973e-05, No Iterations 141
[INFO] SolveP: 7180.04 [ms]
time step continuity errors : sum local = 1.30583e-08, global = 4.41219e-20, cumulative = 4.63836e-19
[INFO] ContinuityError: 3.402 [ms]
[INFO] CorrectBoundary: 0.131 [ms]
[INFO] PISOStep: 7193.95 [ms]
[INFO] MatrixAssemblyPI: 5.522 [ms]
[INFO] AdjustPhi: 1.229 [ms]
[INFO] ConstrainPressure: 0.002 [ms]
[INFO] MatrixAssemblyPII: 1.159 [ms]
[OGL LOG][Proc: 0]: global_index_init: 0.103 [ms]
[OGL LOG][Proc: 0]p_local_coeffs: call_update: 0 [ms]
[OGL LOG][Proc: 0]p_non_local_coeffs: call_update: 0 [ms]
[OGL LOG][Proc: 0]p: update_local_matrix_data: 3.698 [ms]
[OGL LOG][Proc: 0]p: update_non_local_matrix_data: 0.174 [ms]
[OGL LOG][Proc: 0]p: regenerate_distributed_matrix: 4.168 [ms]
[OGL LOG][Proc: 0]p_matrix: call_update: 6.65 [ms]
[OGL LOG][Proc: 0]p_rhs: call_update: 5.192 [ms]
[OGL LOG][Preconditioner.H:346] Generate preconditioner Multigrid MaxLevels 9 MinCoarseRows 10 ZeroGuess 1 Cycle v
[OGL LOG][Proc: 0]p: init_precond: 1413.26 [ms]
[OGL LOG][StoppingCriterion.H:239] Creating stopping criterion with minIter 84 frequency 4
[OGL LOG][Proc: 0]p: generate_solver: 0.011 [ms]
[OGL LOG][Proc: 0]p: solve: 5728.13 [ms]
[OGL LOG][Proc: 0]p: copy_x_back: 0.197 [ms]
[OGL LOG][lduLduBase.H:330] 
Statistics:
	Time per iteration: 40625 [mu s]
	Time per residual norm calculation: 10101.000000 [mu s]
	Time per iteration and DOF: 40.625000 [ns]
	Retrieve results bandwidth 0.582000 [GByte/s]
[OGL LOG][Proc: 0]p: solve_multi_gpu: 7173.23 [ms]
MultigridcudaGKOCG:  Solving for p, Initial residual = 0.112376, Final residual = 8.13314e-05, No Iterations 141
[INFO] SolveP: 7185.73 [ms]
time step continuity errors : sum local = 1.20195e-08, global = 4.7662e-20, cumulative = 5.11498e-19
[INFO] ContinuityError: 12.966 [ms]
[INFO] CorrectBoundary: 0.133 [ms]
[INFO] PISOStep: 7211.23 [ms]
[INFO] TimeStep: 14433.1 [ms]
ExecutionTime = 215.21 s  ClockTime = 234 s

Time = 0.004

Courant Number mean: 0.0541572 max: 0.468832
[INFO] MatrixAssemblyU: 6.318 [ms]
DILUPBiCGStab:  Solving for Ux, Initial residual = 0.0123956, Final residual = 9.42929e-05, No Iterations 5
DILUPBiCGStab:  Solving for Uy, Initial residual = 0.0267233, Final residual = 0.000158896, No Iterations 5
DILUPBiCGStab:  Solving for Uz, Initial residual = 0.052674, Final residual = 0.000521246, No Iterations 5
[INFO] MomentumPredictor: 21.913 [ms]
[INFO] MatrixAssemblyPI: 4.807 [ms]
[INFO] AdjustPhi: 0.213 [ms]
[INFO] ConstrainPressure: 0.002 [ms]
[INFO] MatrixAssemblyPII: 1.343 [ms]
[OGL LOG][Proc: 0]: global_index_init: 0.083 [ms]
[OGL LOG][Proc: 0]p_local_coeffs: call_update: 0 [ms]
[OGL LOG][Proc: 0]p_non_local_coeffs: call_update: 0 [ms]
[OGL LOG][Proc: 0]p: update_local_matrix_data: 3.835 [ms]
[OGL LOG][Proc: 0]p: update_non_local_matrix_data: 0.173 [ms]
[OGL LOG][Proc: 0]p: regenerate_distributed_matrix: 5.027 [ms]
[OGL LOG][Proc: 0]p_matrix: call_update: 7.216 [ms]
[OGL LOG][Proc: 0]p_rhs: call_update: 4.905 [ms]
[OGL LOG][Preconditioner.H:346] Generate preconditioner Multigrid MaxLevels 9 MinCoarseRows 10 ZeroGuess 1 Cycle v
[OGL LOG][Proc: 0]p: init_precond: 1412.4 [ms]
[OGL LOG][StoppingCriterion.H:239] Creating stopping criterion with minIter 84 frequency 3
[OGL LOG][Proc: 0]p: generate_solver: 0.011 [ms]
[OGL LOG][Proc: 0]p: solve: 6460.68 [ms]
[OGL LOG][Proc: 0]p: copy_x_back: 0.114 [ms]
[OGL LOG][lduLduBase.H:330] 
Statistics:
	Time per iteration: 41150 [mu s]
	Time per residual norm calculation: 12694.000000 [mu s]
	Time per iteration and DOF: 41.150000 [ns]
	Retrieve results bandwidth 1.006000 [GByte/s]
[OGL LOG][Proc: 0]p: solve_multi_gpu: 7910.06 [ms]
MultigridcudaGKOCG:  Solving for p, Initial residual = 0.0857552, Final residual = 9.93299e-05, No Iterations 157
[INFO] SolveP: 7919 [ms]
time step continuity errors : sum local = 1.646e-08, global = 4.33614e-20, cumulative = 5.54859e-19
[INFO] ContinuityError: 1.283 [ms]
[INFO] CorrectBoundary: 0.115 [ms]
[INFO] PISOStep: 7930.39 [ms]
[INFO] MatrixAssemblyPI: 5.736 [ms]
[INFO] AdjustPhi: 0.862 [ms]
[INFO] ConstrainPressure: 0.002 [ms]
[INFO] MatrixAssemblyPII: 1.376 [ms]
[OGL LOG][Proc: 0]: global_index_init: 0.1 [ms]
[OGL LOG][Proc: 0]p_local_coeffs: call_update: 0 [ms]
[OGL LOG][Proc: 0]p_non_local_coeffs: call_update: 0 [ms]
[OGL LOG][Proc: 0]p: update_local_matrix_data: 3.147 [ms]
[OGL LOG][Proc: 0]p: update_non_local_matrix_data: 0.165 [ms]
[OGL LOG][Proc: 0]p: regenerate_distributed_matrix: 5.992 [ms]
[OGL LOG][Proc: 0]p_matrix: call_update: 7.609 [ms]
[OGL LOG][Proc: 0]p_rhs: call_update: 4.734 [ms]
[OGL LOG][Preconditioner.H:346] Generate preconditioner Multigrid MaxLevels 9 MinCoarseRows 10 ZeroGuess 1 Cycle v
[OGL LOG][Proc: 0]p: init_precond: 1413.91 [ms]
[OGL LOG][StoppingCriterion.H:239] Creating stopping criterion with minIter 94 frequency 4
[OGL LOG][Proc: 0]p: generate_solver: 0.011 [ms]
[OGL LOG][Proc: 0]p: solve: 5532.33 [ms]
[OGL LOG][Proc: 0]p: copy_x_back: 0.11 [ms]
[OGL LOG][lduLduBase.H:330] 
Statistics:
	Time per iteration: 40382 [mu s]
	Time per residual norm calculation: 12513.000000 [mu s]
	Time per iteration and DOF: 40.382000 [ns]
	Retrieve results bandwidth 1.042000 [GByte/s]
[OGL LOG][Proc: 0]p: solve_multi_gpu: 6981.26 [ms]
MultigridcudaGKOCG:  Solving for p, Initial residual = 0.0708703, Final residual = 9.53093e-05, No Iterations 137
[INFO] SolveP: 6988.71 [ms]
time step continuity errors : sum local = 1.45288e-08, global = 4.13985e-20, cumulative = 5.96258e-19
[INFO] ContinuityError: 6.089 [ms]
[INFO] CorrectBoundary: 0.126 [ms]
[INFO] PISOStep: 7006.22 [ms]
[INFO] TimeStep: 14971.1 [ms]
ExecutionTime = 230.08 s  ClockTime = 249 s

Time = 0.0045

Courant Number mean: 0.0567445 max: 0.470553
[INFO] MatrixAssemblyU: 5.043 [ms]
DILUPBiCGStab:  Solving for Ux, Initial residual = 0.0106239, Final residual = 6.54867e-05, No Iterations 5
DILUPBiCGStab:  Solving for Uy, Initial residual = 0.022869, Final residual = 0.000138478, No Iterations 5
DILUPBiCGStab:  Solving for Uz, Initial residual = 0.0441847, Final residual = 0.000437717, No Iterations 5
[INFO] MomentumPredictor: 21.121 [ms]
[INFO] MatrixAssemblyPI: 4.886 [ms]
[INFO] AdjustPhi: 0.183 [ms]
[INFO] ConstrainPressure: 0.002 [ms]
[INFO] MatrixAssemblyPII: 1.308 [ms]
[OGL LOG][Proc: 0]: global_index_init: 0.073 [ms]
[OGL LOG][Proc: 0]p_local_coeffs: call_update: 0 [ms]
[OGL LOG][Proc: 0]p_non_local_coeffs: call_update: 0 [ms]
[OGL LOG][Proc: 0]p: update_local_matrix_data: 3.605 [ms]
[OGL LOG][Proc: 0]p: update_non_local_matrix_data: 0.163 [ms]
[OGL LOG][Proc: 0]p: regenerate_distributed_matrix: 5.802 [ms]
[OGL LOG][Proc: 0]p_matrix: call_update: 7.426 [ms]
[OGL LOG][Proc: 0]p_rhs: call_update: 4.416 [ms]
[OGL LOG][Preconditioner.H:346] Generate preconditioner Multigrid MaxLevels 9 MinCoarseRows 10 ZeroGuess 1 Cycle v
[OGL LOG][Proc: 0]p: init_precond: 1406.44 [ms]
[OGL LOG][StoppingCriterion.H:239] Creating stopping criterion with minIter 82 frequency 4
[OGL LOG][Proc: 0]p: generate_solver: 0.011 [ms]
[OGL LOG][Proc: 0]p: solve: 5403.45 [ms]
[OGL LOG][Proc: 0]p: copy_x_back: 0.113 [ms]
[OGL LOG][lduLduBase.H:330] 
Statistics:
	Time per iteration: 40627 [mu s]
	Time per residual norm calculation: 12665.000000 [mu s]
	Time per iteration and DOF: 40.627000 [ns]
	Retrieve results bandwidth 1.015000 [GByte/s]
[OGL LOG][Proc: 0]p: solve_multi_gpu: 6846.18 [ms]
MultigridcudaGKOCG:  Solving for p, Initial residual = 0.062307, Final residual = 9.06062e-05, No Iterations 133
[INFO] SolveP: 6855.18 [ms]
time step continuity errors : sum local = 1.39104e-08, global = 4.51147e-20, cumulative = 6.41372e-19
[INFO] ContinuityError: 2.048 [ms]
[INFO] CorrectBoundary: 0.097 [ms]
[INFO] PISOStep: 6867.02 [ms]
[INFO] MatrixAssemblyPI: 5.287 [ms]
[INFO] AdjustPhi: 0.701 [ms]
[INFO] ConstrainPressure: 0.002 [ms]
[INFO] MatrixAssemblyPII: 1.228 [ms]
[OGL LOG][Proc: 0]: global_index_init: 0.096 [ms]
[OGL LOG][Proc: 0]p_local_coeffs: call_update: 0 [ms]
[OGL LOG][Proc: 0]p_non_local_coeffs: call_update: 0 [ms]
[OGL LOG][Proc: 0]p: update_local_matrix_data: 3.467 [ms]
[OGL LOG][Proc: 0]p: update_non_local_matrix_data: 0.164 [ms]
[OGL LOG][Proc: 0]p: regenerate_distributed_matrix: 4.294 [ms]
[OGL LOG][Proc: 0]p_matrix: call_update: 6.747 [ms]
[OGL LOG][Proc: 0]p_rhs: call_update: 5.604 [ms]
[OGL LOG][Preconditioner.H:346] Generate preconditioner Multigrid MaxLevels 9 MinCoarseRows 10 ZeroGuess 1 Cycle v
[OGL LOG][Proc: 0]p: init_precond: 1406.72 [ms]
[OGL LOG][StoppingCriterion.H:239] Creating stopping criterion with minIter 79 frequency 4
[OGL LOG][Proc: 0]p: generate_solver: 0.012 [ms]
[OGL LOG][Proc: 0]p: solve: 5253.18 [ms]
[OGL LOG][Proc: 0]p: copy_x_back: 0.132 [ms]
[OGL LOG][lduLduBase.H:330] 
Statistics:
	Time per iteration: 40722 [mu s]
	Time per residual norm calculation: 11312.000000 [mu s]
	Time per iteration and DOF: 40.722000 [ns]
	Retrieve results bandwidth 0.869000 [GByte/s]
[OGL LOG][Proc: 0]p: solve_multi_gpu: 6698.53 [ms]
MultigridcudaGKOCG:  Solving for p, Initial residual = 0.0520655, Final residual = 9.00518e-05, No Iterations 129
[INFO] SolveP: 6705.44 [ms]
time step continuity errors : sum local = 1.2949e-08, global = 4.27143e-20, cumulative = 6.84087e-19
[INFO] ContinuityError: 1.791 [ms]
[INFO] CorrectBoundary: 0.214 [ms]
[INFO] PISOStep: 6718.53 [ms]
[INFO] TimeStep: 13613.1 [ms]
ExecutionTime = 243.62 s  ClockTime = 263 s

Time = 0.005

Courant Number mean: 0.0590507 max: 0.471955
[INFO] MatrixAssemblyU: 5.198 [ms]
DILUPBiCGStab:  Solving for Ux, Initial residual = 0.00930431, Final residual = 5.4587e-05, No Iterations 5
DILUPBiCGStab:  Solving for Uy, Initial residual = 0.0198687, Final residual = 0.000102671, No Iterations 5
DILUPBiCGStab:  Solving for Uz, Initial residual = 0.0400616, Final residual = 0.000345029, No Iterations 5
[INFO] MomentumPredictor: 20.834 [ms]
[INFO] MatrixAssemblyPI: 4.769 [ms]
[INFO] AdjustPhi: 0.176 [ms]
[INFO] ConstrainPressure: 0.002 [ms]
[INFO] MatrixAssemblyPII: 1.243 [ms]
[OGL LOG][Proc: 0]: global_index_init: 0.071 [ms]
[OGL LOG][Proc: 0]p_local_coeffs: call_update: 0 [ms]
[OGL LOG][Proc: 0]p_non_local_coeffs: call_update: 0 [ms]
[OGL LOG][Proc: 0]p: update_local_matrix_data: 3.917 [ms]
[OGL LOG][Proc: 0]p: update_non_local_matrix_data: 0.168 [ms]
[OGL LOG][Proc: 0]p: regenerate_distributed_matrix: 5.086 [ms]
[OGL LOG][Proc: 0]p_matrix: call_update: 6.973 [ms]
[OGL LOG][Proc: 0]p_rhs: call_update: 4.823 [ms]
[OGL LOG][Preconditioner.H:346] Generate preconditioner Multigrid MaxLevels 9 MinCoarseRows 10 ZeroGuess 1 Cycle v
[OGL LOG][Proc: 0]p: init_precond: 1402.37 [ms]
[OGL LOG][StoppingCriterion.H:239] Creating stopping criterion with minIter 77 frequency 4
[OGL LOG][Proc: 0]p: generate_solver: 0.014 [ms]
[OGL LOG][Proc: 0]p: solve: 11688.3 [ms]
[OGL LOG][Proc: 0]p: copy_x_back: 0.166 [ms]
[OGL LOG][lduLduBase.H:330] 
Statistics:
	Time per iteration: 41011 [mu s]
	Time per residual norm calculation: 11319.000000 [mu s]
	Time per iteration and DOF: 41.011000 [ns]
	Retrieve results bandwidth 0.691000 [GByte/s]
[OGL LOG][Proc: 0]p: solve_multi_gpu: 13126.3 [ms]
MultigridcudaGKOCG:  Solving for p, Initial residual = 0.0409969, Final residual = 7.51943e-05, No Iterations 285
[INFO] SolveP: 13134.7 [ms]
time step continuity errors : sum local = 1.06087e-08, global = 5.00626e-20, cumulative = 7.34149e-19
[INFO] ContinuityError: 2.406 [ms]
[INFO] CorrectBoundary: 0.117 [ms]
[INFO] PISOStep: 13147.4 [ms]
[INFO] MatrixAssemblyPI: 4.719 [ms]
[INFO] AdjustPhi: 0.709 [ms]
[INFO] ConstrainPressure: 0.002 [ms]
[INFO] MatrixAssemblyPII: 1.439 [ms]
[OGL LOG][Proc: 0]: global_index_init: 0.077 [ms]
[OGL LOG][Proc: 0]p_local_coeffs: call_update: 0 [ms]
[OGL LOG][Proc: 0]p_non_local_coeffs: call_update: 0 [ms]
[OGL LOG][Proc: 0]p: update_local_matrix_data: 2.924 [ms]
[OGL LOG][Proc: 0]p: update_non_local_matrix_data: 0.193 [ms]
[OGL LOG][Proc: 0]p: regenerate_distributed_matrix: 4.214 [ms]
[OGL LOG][Proc: 0]p_matrix: call_update: 6.827 [ms]
[OGL LOG][Proc: 0]p_rhs: call_update: 5.367 [ms]
[OGL LOG][Preconditioner.H:346] Generate preconditioner Multigrid MaxLevels 9 MinCoarseRows 10 ZeroGuess 1 Cycle v
[OGL LOG][Proc: 0]p: init_precond: 1402.74 [ms]
[OGL LOG][StoppingCriterion.H:239] Creating stopping criterion with minIter 171 frequency 6
[OGL LOG][Proc: 0]p: generate_solver: 0.011 [ms]
[OGL LOG][Proc: 0]p: solve: 11232 [ms]
[OGL LOG][Proc: 0]p: copy_x_back: 0.114 [ms]
[OGL LOG][lduLduBase.H:330] 
Statistics:
	Time per iteration: 39688 [mu s]
	Time per residual norm calculation: 10395.000000 [mu s]
	Time per iteration and DOF: 39.688000 [ns]
	Retrieve results bandwidth 1.006000 [GByte/s]
[OGL LOG][Proc: 0]p: solve_multi_gpu: 12665.9 [ms]
MultigridcudaGKOCG:  Solving for p, Initial residual = 0.0347302, Final residual = 8.70949e-05, No Iterations 283
[INFO] SolveP: 12678.3 [ms]
time step continuity errors : sum local = 1.22944e-08, global = 5.07246e-20, cumulative = 7.84874e-19
[INFO] ContinuityError: 4.077 [ms]
[INFO] CorrectBoundary: 0.15 [ms]
[INFO] PISOStep: 12692.3 [ms]
[INFO] TimeStep: 25866.7 [ms]
ExecutionTime = 269.31 s  ClockTime = 289 s

Time = 0.0055

Courant Number mean: 0.0611194 max: 0.473114
[INFO] MatrixAssemblyU: 5.188 [ms]
DILUPBiCGStab:  Solving for Ux, Initial residual = 0.0082122, Final residual = 4.27908e-05, No Iterations 5
DILUPBiCGStab:  Solving for Uy, Initial residual = 0.0175758, Final residual = 9.24017e-05, No Iterations 5
DILUPBiCGStab:  Solving for Uz, Initial residual = 0.0346173, Final residual = 0.000281352, No Iterations 5
[INFO] MomentumPredictor: 21.055 [ms]
[INFO] MatrixAssemblyPI: 4.947 [ms]
[INFO] AdjustPhi: 0.17 [ms]
[INFO] ConstrainPressure: 0.002 [ms]
[INFO] MatrixAssemblyPII: 1.217 [ms]
[OGL LOG][Proc: 0]: global_index_init: 0.079 [ms]
[OGL LOG][Proc: 0]p_local_coeffs: call_update: 0 [ms]
[OGL LOG][Proc: 0]p_non_local_coeffs: call_update: 0 [ms]
[OGL LOG][Proc: 0]p: update_local_matrix_data: 3.518 [ms]
[OGL LOG][Proc: 0]p: update_non_local_matrix_data: 0.172 [ms]
[OGL LOG][Proc: 0]p: regenerate_distributed_matrix: 5.902 [ms]
[OGL LOG][Proc: 0]p_matrix: call_update: 7.51 [ms]
[OGL LOG][Proc: 0]p_rhs: call_update: 4.56 [ms]
[OGL LOG][Preconditioner.H:346] Generate preconditioner Multigrid MaxLevels 9 MinCoarseRows 10 ZeroGuess 1 Cycle v
[OGL LOG][Proc: 0]p: init_precond: 1403.91 [ms]
[OGL LOG][StoppingCriterion.H:239] Creating stopping criterion with minIter 169 frequency 6
[OGL LOG][Proc: 0]p: generate_solver: 0.011 [ms]
[OGL LOG][Proc: 0]p: solve: 6880.6 [ms]
[OGL LOG][Proc: 0]p: copy_x_back: 0.198 [ms]
[OGL LOG][lduLduBase.H:330] 
Statistics:
	Time per iteration: 39317 [mu s]
	Time per residual norm calculation: 10679.000000 [mu s]
	Time per iteration and DOF: 39.317000 [ns]
	Retrieve results bandwidth 0.579000 [GByte/s]
[OGL LOG][Proc: 0]p: solve_multi_gpu: 8320.25 [ms]
MultigridcudaGKOCG:  Solving for p, Initial residual = 0.0322627, Final residual = 1.31266e-05, No Iterations 175
[INFO] SolveP: 8328.56 [ms]
time step continuity errors : sum local = 2.08854e-09, global = 4.20032e-20, cumulative = 8.26877e-19
[INFO] ContinuityError: 3.194 [ms]
[INFO] CorrectBoundary: 0.106 [ms]
[INFO] PISOStep: 8342.4 [ms]
[INFO] MatrixAssemblyPI: 4.84 [ms]
[INFO] AdjustPhi: 0.296 [ms]
[INFO] ConstrainPressure: 0.002 [ms]
[INFO] MatrixAssemblyPII: 1.474 [ms]
[OGL LOG][Proc: 0]: global_index_init: 0.082 [ms]
[OGL LOG][Proc: 0]p_local_coeffs: call_update: 0 [ms]
[OGL LOG][Proc: 0]p_non_local_coeffs: call_update: 0 [ms]
[OGL LOG][Proc: 0]p: update_local_matrix_data: 3.603 [ms]
[OGL LOG][Proc: 0]p: update_non_local_matrix_data: 0.182 [ms]
[OGL LOG][Proc: 0]p: regenerate_distributed_matrix: 4.062 [ms]
[OGL LOG][Proc: 0]p_matrix: call_update: 6.698 [ms]
[OGL LOG][Proc: 0]p_rhs: call_update: 4.781 [ms]
[OGL LOG][Preconditioner.H:346] Generate preconditioner Multigrid MaxLevels 9 MinCoarseRows 10 ZeroGuess 1 Cycle v
[OGL LOG][Proc: 0]p: init_precond: 1403.22 [ms]
[OGL LOG][StoppingCriterion.H:239] Creating stopping criterion with minIter 105 frequency 4
[OGL LOG][Proc: 0]p: generate_solver: 0.01 [ms]
[OGL LOG][Proc: 0]p: solve: 4683.11 [ms]
[OGL LOG][Proc: 0]p: copy_x_back: 0.117 [ms]
[OGL LOG][lduLduBase.H:330] 
Statistics:
	Time per iteration: 40026 [mu s]
	Time per residual norm calculation: 13754.000000 [mu s]
	Time per iteration and DOF: 40.026000 [ns]
	Retrieve results bandwidth 0.980000 [GByte/s]
[OGL LOG][Proc: 0]p: solve_multi_gpu: 6124.37 [ms]
MultigridcudaGKOCG:  Solving for p, Initial residual = 0.0275521, Final residual = 8.67955e-05, No Iterations 117
[INFO] SolveP: 6130.73 [ms]
time step continuity errors : sum local = 1.23396e-08, global = 5.3664e-20, cumulative = 8.80541e-19
[INFO] ContinuityError: 1.984 [ms]
[INFO] CorrectBoundary: 0.336 [ms]
[INFO] PISOStep: 6142.58 [ms]
[INFO] TimeStep: 14513.1 [ms]
ExecutionTime = 283.73 s  ClockTime = 303 s

Time = 0.006

Courant Number mean: 0.063 max: 0.474097
[INFO] MatrixAssemblyU: 5.213 [ms]
DILUPBiCGStab:  Solving for Ux, Initial residual = 0.00734694, Final residual = 3.80039e-05, No Iterations 5
DILUPBiCGStab:  Solving for Uy, Initial residual = 0.0156849, Final residual = 7.66602e-05, No Iterations 5
DILUPBiCGStab:  Solving for Uz, Initial residual = 0.031326, Final residual = 0.000228258, No Iterations 5
[INFO] MomentumPredictor: 21.247 [ms]
[INFO] MatrixAssemblyPI: 4.783 [ms]
[INFO] AdjustPhi: 0.324 [ms]
[INFO] ConstrainPressure: 0.002 [ms]
[INFO] MatrixAssemblyPII: 1.245 [ms]
[OGL LOG][Proc: 0]: global_index_init: 0.093 [ms]
[OGL LOG][Proc: 0]p_local_coeffs: call_update: 0 [ms]
[OGL LOG][Proc: 0]p_non_local_coeffs: call_update: 0 [ms]
[OGL LOG][Proc: 0]p: update_local_matrix_data: 3.642 [ms]
[OGL LOG][Proc: 0]p: update_non_local_matrix_data: 0.192 [ms]
[OGL LOG][Proc: 0]p: regenerate_distributed_matrix: 4.144 [ms]
[OGL LOG][Proc: 0]p_matrix: call_update: 6.465 [ms]
[OGL LOG][Proc: 0]p_rhs: call_update: 5.505 [ms]
[OGL LOG][Preconditioner.H:346] Generate preconditioner Multigrid MaxLevels 9 MinCoarseRows 10 ZeroGuess 1 Cycle v
[OGL LOG][Proc: 0]p: init_precond: 1400.88 [ms]
[OGL LOG][StoppingCriterion.H:239] Creating stopping criterion with minIter 70 frequency 4
[OGL LOG][Proc: 0]p: generate_solver: 0.011 [ms]
[OGL LOG][Proc: 0]p: solve: 4784.51 [ms]
[OGL LOG][Proc: 0]p: copy_x_back: 0.129 [ms]
[OGL LOG][lduLduBase.H:330] 
Statistics:
	Time per iteration: 40893 [mu s]
	Time per residual norm calculation: 10552.000000 [mu s]
	Time per iteration and DOF: 40.893000 [ns]
	Retrieve results bandwidth 0.889000 [GByte/s]
[OGL LOG][Proc: 0]p: solve_multi_gpu: 6219.22 [ms]
MultigridcudaGKOCG:  Solving for p, Initial residual = 0.0227942, Final residual = 8.11811e-05, No Iterations 117
[INFO] SolveP: 6224.65 [ms]
time step continuity errors : sum local = 1.23579e-08, global = 3.83456e-20, cumulative = 9.18887e-19
[INFO] ContinuityError: 8.857 [ms]
[INFO] CorrectBoundary: 0.285 [ms]
[INFO] PISOStep: 6243.06 [ms]
[INFO] MatrixAssemblyPI: 4.545 [ms]
[INFO] AdjustPhi: 0.873 [ms]
[INFO] ConstrainPressure: 0.002 [ms]
[INFO] MatrixAssemblyPII: 1.381 [ms]
[OGL LOG][Proc: 0]: global_index_init: 0.087 [ms]
[OGL LOG][Proc: 0]p_local_coeffs: call_update: 0 [ms]
[OGL LOG][Proc: 0]p_non_local_coeffs: call_update: 0 [ms]
[OGL LOG][Proc: 0]p: update_local_matrix_data: 3.048 [ms]
[OGL LOG][Proc: 0]p: update_non_local_matrix_data: 0.174 [ms]
[OGL LOG][Proc: 0]p: regenerate_distributed_matrix: 4.326 [ms]
[OGL LOG][Proc: 0]p_matrix: call_update: 6.764 [ms]
[OGL LOG][Proc: 0]p_rhs: call_update: 5.598 [ms]
[OGL LOG][Preconditioner.H:346] Generate preconditioner Multigrid MaxLevels 9 MinCoarseRows 10 ZeroGuess 1 Cycle v
[OGL LOG][Proc: 0]p: init_precond: 1402.15 [ms]
[OGL LOG][StoppingCriterion.H:239] Creating stopping criterion with minIter 70 frequency 3
[OGL LOG][Proc: 0]p: generate_solver: 0.01 [ms]
[OGL LOG][Proc: 0]p: solve: 4617.73 [ms]
[OGL LOG][Proc: 0]p: copy_x_back: 0.121 [ms]
[OGL LOG][lduLduBase.H:330] 
Statistics:
	Time per iteration: 41229 [mu s]
	Time per residual norm calculation: 12502.000000 [mu s]
	Time per iteration and DOF: 41.229000 [ns]
	Retrieve results bandwidth 0.948000 [GByte/s]
[OGL LOG][Proc: 0]p: solve_multi_gpu: 6058.38 [ms]
MultigridcudaGKOCG:  Solving for p, Initial residual = 0.020053, Final residual = 9.39027e-05, No Iterations 112
[INFO] SolveP: 6065.55 [ms]
time step continuity errors : sum local = 1.33947e-08, global = 4.85433e-20, cumulative = 9.6743e-19
[INFO] ContinuityError: 1.385 [ms]
[INFO] CorrectBoundary: 0.109 [ms]
[INFO] PISOStep: 6076.99 [ms]
[INFO] TimeStep: 12347.7 [ms]
ExecutionTime = 295.99 s  ClockTime = 315 s

Time = 0.0065

Courant Number mean: 0.0647125 max: 0.47494
[INFO] MatrixAssemblyU: 5.326 [ms]
DILUPBiCGStab:  Solving for Ux, Initial residual = 0.00661012, Final residual = 3.23162e-05, No Iterations 5
DILUPBiCGStab:  Solving for Uy, Initial residual = 0.0141543, Final residual = 6.99731e-05, No Iterations 5
DILUPBiCGStab:  Solving for Uz, Initial residual = 0.0283269, Final residual = 0.000212091, No Iterations 5
[INFO] MomentumPredictor: 21.998 [ms]
[INFO] MatrixAssemblyPI: 4.931 [ms]
[INFO] AdjustPhi: 0.318 [ms]
[INFO] ConstrainPressure: 0.001 [ms]
[INFO] MatrixAssemblyPII: 1.263 [ms]
[OGL LOG][Proc: 0]: global_index_init: 0.075 [ms]
[OGL LOG][Proc: 0]p_local_coeffs: call_update: 0 [ms]
[OGL LOG][Proc: 0]p_non_local_coeffs: call_update: 0 [ms]
[OGL LOG][Proc: 0]p: update_local_matrix_data: 3.863 [ms]
[OGL LOG][Proc: 0]p: update_non_local_matrix_data: 0.159 [ms]
[OGL LOG][Proc: 0]p: regenerate_distributed_matrix: 4.323 [ms]
[OGL LOG][Proc: 0]p_matrix: call_update: 6.786 [ms]
[OGL LOG][Proc: 0]p_rhs: call_update: 4.602 [ms]
[OGL LOG][Preconditioner.H:346] Generate preconditioner Multigrid MaxLevels 9 MinCoarseRows 10 ZeroGuess 1 Cycle v
[OGL LOG][Proc: 0]p: init_precond: 1415.8 [ms]
[OGL LOG][StoppingCriterion.H:239] Creating stopping criterion with minIter 67 frequency 3
[OGL LOG][Proc: 0]p: generate_solver: 0.011 [ms]
[OGL LOG][Proc: 0]p: solve: 4615.8 [ms]
[OGL LOG][Proc: 0]p: copy_x_back: 0.115 [ms]
[OGL LOG][lduLduBase.H:330] 
Statistics:
	Time per iteration: 41212 [mu s]
	Time per residual norm calculation: 13416.000000 [mu s]
	Time per iteration and DOF: 41.212000 [ns]
	Retrieve results bandwidth 0.997000 [GByte/s]
[OGL LOG][Proc: 0]p: solve_multi_gpu: 6066.7 [ms]
MultigridcudaGKOCG:  Solving for p, Initial residual = 0.0190472, Final residual = 8.84408e-05, No Iterations 112
[INFO] SolveP: 6075.68 [ms]
time step continuity errors : sum local = 1.2952e-08, global = 2.90538e-20, cumulative = 9.96484e-19
[INFO] ContinuityError: 2.127 [ms]
[INFO] CorrectBoundary: 0.303 [ms]
[INFO] PISOStep: 6088.09 [ms]
[INFO] MatrixAssemblyPI: 4.687 [ms]
[INFO] AdjustPhi: 0.697 [ms]
[INFO] ConstrainPressure: 0.002 [ms]
[INFO] MatrixAssemblyPII: 1.255 [ms]
[OGL LOG][Proc: 0]: global_index_init: 0.071 [ms]
[OGL LOG][Proc: 0]p_local_coeffs: call_update: 0 [ms]
[OGL LOG][Proc: 0]p_non_local_coeffs: call_update: 0 [ms]
[OGL LOG][Proc: 0]p: update_local_matrix_data: 3.524 [ms]
[OGL LOG][Proc: 0]p: update_non_local_matrix_data: 0.166 [ms]
[OGL LOG][Proc: 0]p: regenerate_distributed_matrix: 4.302 [ms]
[OGL LOG][Proc: 0]p_matrix: call_update: 6.766 [ms]
[OGL LOG][Proc: 0]p_rhs: call_update: 5.535 [ms]
[OGL LOG][Preconditioner.H:346] Generate preconditioner Multigrid MaxLevels 9 MinCoarseRows 10 ZeroGuess 1 Cycle v
[OGL LOG][Proc: 0]p: init_precond: 1412.27 [ms]
[OGL LOG][StoppingCriterion.H:239] Creating stopping criterion with minIter 67 frequency 3
[OGL LOG][Proc: 0]p: generate_solver: 0.011 [ms]
[OGL LOG][Proc: 0]p: solve: 4490.09 [ms]
[OGL LOG][Proc: 0]p: copy_x_back: 0.189 [ms]
[OGL LOG][lduLduBase.H:330] 
Statistics:
	Time per iteration: 41193 [mu s]
	Time per residual norm calculation: 10707.000000 [mu s]
	Time per iteration and DOF: 41.193000 [ns]
	Retrieve results bandwidth 0.607000 [GByte/s]
[OGL LOG][Proc: 0]p: solve_multi_gpu: 5933.26 [ms]
MultigridcudaGKOCG:  Solving for p, Initial residual = 0.0169203, Final residual = 9.56515e-05, No Iterations 109
[INFO] SolveP: 5946.45 [ms]
time step continuity errors : sum local = 1.35831e-08, global = 4.53597e-20, cumulative = 1.04184e-18
[INFO] ContinuityError: 3.359 [ms]
[INFO] CorrectBoundary: 0.088 [ms]
[INFO] PISOStep: 5960.43 [ms]
[INFO] TimeStep: 12076.9 [ms]
ExecutionTime = 307.99 s  ClockTime = 327 s

Time = 0.007

Courant Number mean: 0.066287 max: 0.475674
[INFO] MatrixAssemblyU: 5.918 [ms]
DILUPBiCGStab:  Solving for Ux, Initial residual = 0.00600721, Final residual = 2.95974e-05, No Iterations 5
DILUPBiCGStab:  Solving for Uy, Initial residual = 0.0128413, Final residual = 6.14548e-05, No Iterations 5
DILUPBiCGStab:  Solving for Uz, Initial residual = 0.0262069, Final residual = 0.000185067, No Iterations 5
[INFO] MomentumPredictor: 20.39 [ms]
[INFO] MatrixAssemblyPI: 5.03 [ms]
[INFO] AdjustPhi: 0.17 [ms]
[INFO] ConstrainPressure: 0.002 [ms]
[INFO] MatrixAssemblyPII: 1.248 [ms]
[OGL LOG][Proc: 0]: global_index_init: 0.069 [ms]
[OGL LOG][Proc: 0]p_local_coeffs: call_update: 0 [ms]
[OGL LOG][Proc: 0]p_non_local_coeffs: call_update: 0 [ms]
[OGL LOG][Proc: 0]p: update_local_matrix_data: 2.875 [ms]
[OGL LOG][Proc: 0]p: update_non_local_matrix_data: 0.186 [ms]
[OGL LOG][Proc: 0]p: regenerate_distributed_matrix: 6.303 [ms]
[OGL LOG][Proc: 0]p_matrix: call_update: 7.794 [ms]
[OGL LOG][Proc: 0]p_rhs: call_update: 4.096 [ms]
[OGL LOG][Preconditioner.H:346] Generate preconditioner Multigrid MaxLevels 9 MinCoarseRows 10 ZeroGuess 1 Cycle v
[OGL LOG][Proc: 0]p: init_precond: 1396.84 [ms]
[OGL LOG][StoppingCriterion.H:239] Creating stopping criterion with minIter 65 frequency 3
[OGL LOG][Proc: 0]p: generate_solver: 0.011 [ms]
[OGL LOG][Proc: 0]p: solve: 4773.1 [ms]
[OGL LOG][Proc: 0]p: copy_x_back: 0.115 [ms]
[OGL LOG][lduLduBase.H:330] 
Statistics:
	Time per iteration: 41505 [mu s]
	Time per residual norm calculation: 13460.000000 [mu s]
	Time per iteration and DOF: 41.505000 [ns]
	Retrieve results bandwidth 0.997000 [GByte/s]
[OGL LOG][Proc: 0]p: solve_multi_gpu: 6207.58 [ms]
MultigridcudaGKOCG:  Solving for p, Initial residual = 0.015234, Final residual = 9.27348e-05, No Iterations 115
[INFO] SolveP: 6214.59 [ms]
time step continuity errors : sum local = 1.44506e-08, global = 4.40318e-20, cumulative = 1.08588e-18
[INFO] ContinuityError: 1.639 [ms]
[INFO] CorrectBoundary: 0.346 [ms]
[INFO] PISOStep: 6226.09 [ms]
[INFO] MatrixAssemblyPI: 4.653 [ms]
[INFO] AdjustPhi: 0.725 [ms]
[INFO] ConstrainPressure: 0.002 [ms]
[INFO] MatrixAssemblyPII: 1.195 [ms]
[OGL LOG][Proc: 0]: global_index_init: 0.074 [ms]
[OGL LOG][Proc: 0]p_local_coeffs: call_update: 0 [ms]
[OGL LOG][Proc: 0]p_non_local_coeffs: call_update: 0 [ms]
[OGL LOG][Proc: 0]p: update_local_matrix_data: 3.457 [ms]
[OGL LOG][Proc: 0]p: update_non_local_matrix_data: 0.165 [ms]
[OGL LOG][Proc: 0]p: regenerate_distributed_matrix: 4.162 [ms]
[OGL LOG][Proc: 0]p_matrix: call_update: 6.622 [ms]
[OGL LOG][Proc: 0]p_rhs: call_update: 5.232 [ms]
[OGL LOG][Preconditioner.H:346] Generate preconditioner Multigrid MaxLevels 9 MinCoarseRows 10 ZeroGuess 1 Cycle v
[OGL LOG][Proc: 0]p: init_precond: 1398.24 [ms]
[OGL LOG][StoppingCriterion.H:239] Creating stopping criterion with minIter 69 frequency 3
[OGL LOG][Proc: 0]p: generate_solver: 0.01 [ms]
[OGL LOG][Proc: 0]p: solve: 4506.41 [ms]
[OGL LOG][Proc: 0]p: copy_x_back: 0.113 [ms]
[OGL LOG][lduLduBase.H:330] 
Statistics:
	Time per iteration: 41343 [mu s]
	Time per residual norm calculation: 13090.000000 [mu s]
	Time per iteration and DOF: 41.343000 [ns]
	Retrieve results bandwidth 1.015000 [GByte/s]
[OGL LOG][Proc: 0]p: solve_multi_gpu: 5941.3 [ms]
MultigridcudaGKOCG:  Solving for p, Initial residual = 0.013937, Final residual = 9.75819e-05, No Iterations 109
[INFO] SolveP: 5948.52 [ms]
time step continuity errors : sum local = 1.4077e-08, global = 5.03798e-20, cumulative = 1.13626e-18
[INFO] ContinuityError: 1.089 [ms]
[INFO] CorrectBoundary: 0.062 [ms]
[INFO] PISOStep: 5960.03 [ms]
[INFO] TimeStep: 12213.7 [ms]
ExecutionTime = 320.12 s  ClockTime = 340 s

Time = 0.0075

Courant Number mean: 0.067741 max: 0.47632
[INFO] MatrixAssemblyU: 5.197 [ms]
DILUPBiCGStab:  Solving for Ux, Initial residual = 0.0054763, Final residual = 2.64876e-05, No Iterations 5
DILUPBiCGStab:  Solving for Uy, Initial residual = 0.0117497, Final residual = 5.63039e-05, No Iterations 5
DILUPBiCGStab:  Solving for Uz, Initial residual = 0.0239455, Final residual = 0.000178685, No Iterations 5
[INFO] MomentumPredictor: 21.106 [ms]
[INFO] MatrixAssemblyPI: 4.801 [ms]
[INFO] AdjustPhi: 0.26 [ms]
[INFO] ConstrainPressure: 0.002 [ms]
[INFO] MatrixAssemblyPII: 1.38 [ms]
[OGL LOG][Proc: 0]: global_index_init: 0.089 [ms]
[OGL LOG][Proc: 0]p_local_coeffs: call_update: 0 [ms]
[OGL LOG][Proc: 0]p_non_local_coeffs: call_update: 0 [ms]
[OGL LOG][Proc: 0]p: update_local_matrix_data: 3.418 [ms]
[OGL LOG][Proc: 0]p: update_non_local_matrix_data: 0.153 [ms]
[OGL LOG][Proc: 0]p: regenerate_distributed_matrix: 5.852 [ms]
[OGL LOG][Proc: 0]p_matrix: call_update: 7.479 [ms]
[OGL LOG][Proc: 0]p_rhs: call_update: 3.688 [ms]
[OGL LOG][Preconditioner.H:346] Generate preconditioner Multigrid MaxLevels 9 MinCoarseRows 10 ZeroGuess 1 Cycle v
[OGL LOG][Proc: 0]p: init_precond: 1392.23 [ms]
[OGL LOG][StoppingCriterion.H:239] Creating stopping criterion with minIter 65 frequency 3
[OGL LOG][Proc: 0]p: generate_solver: 0.011 [ms]
[OGL LOG][Proc: 0]p: solve: 4648.99 [ms]
[OGL LOG][Proc: 0]p: copy_x_back: 0.117 [ms]
[OGL LOG][lduLduBase.H:330] 
Statistics:
	Time per iteration: 41508 [mu s]
	Time per residual norm calculation: 11642.000000 [mu s]
	Time per iteration and DOF: 41.508000 [ns]
	Retrieve results bandwidth 0.980000 [GByte/s]
[OGL LOG][Proc: 0]p: solve_multi_gpu: 6077.37 [ms]
MultigridcudaGKOCG:  Solving for p, Initial residual = 0.01326, Final residual = 9.29574e-05, No Iterations 112
[INFO] SolveP: 6085.16 [ms]
time step continuity errors : sum local = 1.42786e-08, global = 3.71864e-20, cumulative = 1.17344e-18
[INFO] ContinuityError: 1.308 [ms]
[INFO] CorrectBoundary: 0.092 [ms]
[INFO] PISOStep: 6095.96 [ms]
[INFO] MatrixAssemblyPI: 4.191 [ms]
[INFO] AdjustPhi: 1.427 [ms]
[INFO] ConstrainPressure: 0.002 [ms]
[INFO] MatrixAssemblyPII: 1.275 [ms]
[OGL LOG][Proc: 0]: global_index_init: 0.107 [ms]
[OGL LOG][Proc: 0]p_local_coeffs: call_update: 0 [ms]
[OGL LOG][Proc: 0]p_non_local_coeffs: call_update: 0 [ms]
[OGL LOG][Proc: 0]p: update_local_matrix_data: 2.862 [ms]
[OGL LOG][Proc: 0]p: update_non_local_matrix_data: 0.158 [ms]
[OGL LOG][Proc: 0]p: regenerate_distributed_matrix: 4.102 [ms]
[OGL LOG][Proc: 0]p_matrix: call_update: 6.575 [ms]
[OGL LOG][Proc: 0]p_rhs: call_update: 4.972 [ms]
[OGL LOG][Preconditioner.H:346] Generate preconditioner Multigrid MaxLevels 9 MinCoarseRows 10 ZeroGuess 1 Cycle v
[OGL LOG][Proc: 0]p: init_precond: 1391.54 [ms]
[OGL LOG][StoppingCriterion.H:239] Creating stopping criterion with minIter 67 frequency 3
[OGL LOG][Proc: 0]p: generate_solver: 0.011 [ms]
[OGL LOG][Proc: 0]p: solve: 4511.56 [ms]
[OGL LOG][Proc: 0]p: copy_x_back: 0.112 [ms]
[OGL LOG][lduLduBase.H:330] 
Statistics:
	Time per iteration: 41390 [mu s]
	Time per residual norm calculation: 9826.000000 [mu s]
	Time per iteration and DOF: 41.390000 [ns]
	Retrieve results bandwidth 1.024000 [GByte/s]
[OGL LOG][Proc: 0]p: solve_multi_gpu: 5933.26 [ms]
MultigridcudaGKOCG:  Solving for p, Initial residual = 0.0121946, Final residual = 9.25018e-05, No Iterations 109
[INFO] SolveP: 5949.11 [ms]
time step continuity errors : sum local = 1.32984e-08, global = 3.91965e-20, cumulative = 1.21264e-18
[INFO] ContinuityError: 1.017 [ms]
[INFO] CorrectBoundary: 0.297 [ms]
[INFO] PISOStep: 5961.12 [ms]
[INFO] TimeStep: 12084.7 [ms]
ExecutionTime = 332.14 s  ClockTime = 352 s

Time = 0.008

Courant Number mean: 0.0690847 max: 0.476893
[INFO] MatrixAssemblyU: 5.246 [ms]
DILUPBiCGStab:  Solving for Ux, Initial residual = 0.00503392, Final residual = 2.45673e-05, No Iterations 5
DILUPBiCGStab:  Solving for Uy, Initial residual = 0.0107809, Final residual = 5.10814e-05, No Iterations 5
DILUPBiCGStab:  Solving for Uz, Initial residual = 0.0225107, Final residual = 0.000166659, No Iterations 5
[INFO] MomentumPredictor: 21.215 [ms]
[INFO] MatrixAssemblyPI: 4.904 [ms]
[INFO] AdjustPhi: 0.527 [ms]
[INFO] ConstrainPressure: 0.003 [ms]
[INFO] MatrixAssemblyPII: 1.301 [ms]
[OGL LOG][Proc: 0]: global_index_init: 0.072 [ms]
[OGL LOG][Proc: 0]p_local_coeffs: call_update: 0 [ms]
[OGL LOG][Proc: 0]p_non_local_coeffs: call_update: 0 [ms]
[OGL LOG][Proc: 0]p: update_local_matrix_data: 3.443 [ms]
[OGL LOG][Proc: 0]p: update_non_local_matrix_data: 0.179 [ms]
[OGL LOG][Proc: 0]p: regenerate_distributed_matrix: 4.678 [ms]
[OGL LOG][Proc: 0]p_matrix: call_update: 6.963 [ms]
[OGL LOG][Proc: 0]p_rhs: call_update: 5.016 [ms]
[OGL LOG][Preconditioner.H:346] Generate preconditioner Multigrid MaxLevels 9 MinCoarseRows 10 ZeroGuess 1 Cycle v
[OGL LOG][Proc: 0]p: init_precond: 1400.96 [ms]
[OGL LOG][StoppingCriterion.H:239] Creating stopping criterion with minIter 65 frequency 3
[OGL LOG][Proc: 0]p: generate_solver: 0.011 [ms]
[OGL LOG][Proc: 0]p: solve: 4896.73 [ms]
[OGL LOG][Proc: 0]p: copy_x_back: 0.188 [ms]
[OGL LOG][lduLduBase.H:330] 
Statistics:
	Time per iteration: 41497 [mu s]
	Time per residual norm calculation: 12211.000000 [mu s]
	Time per iteration and DOF: 41.497000 [ns]
	Retrieve results bandwidth 0.610000 [GByte/s]
[OGL LOG][Proc: 0]p: solve_multi_gpu: 6336.41 [ms]
MultigridcudaGKOCG:  Solving for p, Initial residual = 0.0117344, Final residual = 9.87889e-05, No Iterations 118
[INFO] SolveP: 6342.68 [ms]
time step continuity errors : sum local = 1.61906e-08, global = 5.03628e-20, cumulative = 1.263e-18
[INFO] ContinuityError: 1.607 [ms]
[INFO] CorrectBoundary: 0.157 [ms]
[INFO] PISOStep: 6355.19 [ms]
[INFO] MatrixAssemblyPI: 5.083 [ms]
[INFO] AdjustPhi: 0.2 [ms]
[INFO] ConstrainPressure: 0.002 [ms]
[INFO] MatrixAssemblyPII: 1.391 [ms]
[OGL LOG][Proc: 0]: global_index_init: 0.07 [ms]
[OGL LOG][Proc: 0]p_local_coeffs: call_update: 0 [ms]
[OGL LOG][Proc: 0]p_non_local_coeffs: call_update: 0 [ms]
[OGL LOG][Proc: 0]p: update_local_matrix_data: 3 [ms]
[OGL LOG][Proc: 0]p: update_non_local_matrix_data: 0.197 [ms]
[OGL LOG][Proc: 0]p: regenerate_distributed_matrix: 5.994 [ms]
[OGL LOG][Proc: 0]p_matrix: call_update: 7.61 [ms]
[OGL LOG][Proc: 0]p_rhs: call_update: 4.725 [ms]
[OGL LOG][Preconditioner.H:346] Generate preconditioner Multigrid MaxLevels 9 MinCoarseRows 10 ZeroGuess 1 Cycle v
[OGL LOG][Proc: 0]p: init_precond: 1405.04 [ms]
[OGL LOG][StoppingCriterion.H:239] Creating stopping criterion with minIter 70 frequency 3
[OGL LOG][Proc: 0]p: generate_solver: 0.01 [ms]
[OGL LOG][Proc: 0]p: solve: 4617.88 [ms]
[OGL LOG][Proc: 0]p: copy_x_back: 0.119 [ms]
[OGL LOG][lduLduBase.H:330] 
Statistics:
	Time per iteration: 41231 [mu s]
	Time per residual norm calculation: 11608.000000 [mu s]
	Time per iteration and DOF: 41.231000 [ns]
	Retrieve results bandwidth 0.964000 [GByte/s]
[OGL LOG][Proc: 0]p: solve_multi_gpu: 6061.58 [ms]
MultigridcudaGKOCG:  Solving for p, Initial residual = 0.0109798, Final residual = 8.68902e-05, No Iterations 112
[INFO] SolveP: 6068.05 [ms]
time step continuity errors : sum local = 1.28771e-08, global = 3.64157e-20, cumulative = 1.29942e-18
[INFO] ContinuityError: 3.53 [ms]
[INFO] CorrectBoundary: 0.257 [ms]
[INFO] PISOStep: 6081.36 [ms]
[INFO] TimeStep: 12463.9 [ms]
ExecutionTime = 344.54 s  ClockTime = 364 s

Time = 0.0085

Courant Number mean: 0.0703354 max: 0.477406
[INFO] MatrixAssemblyU: 5.317 [ms]
DILUPBiCGStab:  Solving for Ux, Initial residual = 0.0046307, Final residual = 2.27073e-05, No Iterations 5
DILUPBiCGStab:  Solving for Uy, Initial residual = 0.00997119, Final residual = 4.71327e-05, No Iterations 5
DILUPBiCGStab:  Solving for Uz, Initial residual = 0.0208027, Final residual = 0.000162452, No Iterations 5
[INFO] MomentumPredictor: 22.419 [ms]
[INFO] MatrixAssemblyPI: 4.857 [ms]
[INFO] AdjustPhi: 0.294 [ms]
[INFO] ConstrainPressure: 0.002 [ms]
[INFO] MatrixAssemblyPII: 1.215 [ms]
[OGL LOG][Proc: 0]: global_index_init: 0.081 [ms]
[OGL LOG][Proc: 0]p_local_coeffs: call_update: 0 [ms]
[OGL LOG][Proc: 0]p_non_local_coeffs: call_update: 0 [ms]
[OGL LOG][Proc: 0]p: update_local_matrix_data: 3.533 [ms]
[OGL LOG][Proc: 0]p: update_non_local_matrix_data: 0.177 [ms]
[OGL LOG][Proc: 0]p: regenerate_distributed_matrix: 4.43 [ms]
[OGL LOG][Proc: 0]p_matrix: call_update: 6.879 [ms]
[OGL LOG][Proc: 0]p_rhs: call_update: 5.284 [ms]
[OGL LOG][Preconditioner.H:346] Generate preconditioner Multigrid MaxLevels 9 MinCoarseRows 10 ZeroGuess 1 Cycle v
[OGL LOG][Proc: 0]p: init_precond: 1398.2 [ms]
[OGL LOG][StoppingCriterion.H:239] Creating stopping criterion with minIter 67 frequency 3
[OGL LOG][Proc: 0]p: generate_solver: 0.011 [ms]
[OGL LOG][Proc: 0]p: solve: 4886.19 [ms]
[OGL LOG][Proc: 0]p: copy_x_back: 0.112 [ms]
[OGL LOG][lduLduBase.H:330] 
Statistics:
	Time per iteration: 41408 [mu s]
	Time per residual norm calculation: 11614.000000 [mu s]
	Time per iteration and DOF: 41.408000 [ns]
	Retrieve results bandwidth 1.024000 [GByte/s]
[OGL LOG][Proc: 0]p: solve_multi_gpu: 6316.01 [ms]
MultigridcudaGKOCG:  Solving for p, Initial residual = 0.0105823, Final residual = 9.50344e-05, No Iterations 118
[INFO] SolveP: 6330.7 [ms]
time step continuity errors : sum local = 1.57738e-08, global = 3.35928e-20, cumulative = 1.33301e-18
[INFO] ContinuityError: 1.23 [ms]
[INFO] CorrectBoundary: 0.151 [ms]
[INFO] PISOStep: 6341.85 [ms]
[INFO] MatrixAssemblyPI: 4.528 [ms]
[INFO] AdjustPhi: 0.751 [ms]
[INFO] ConstrainPressure: 0.003 [ms]
[INFO] MatrixAssemblyPII: 1.251 [ms]
[OGL LOG][Proc: 0]: global_index_init: 0.073 [ms]
[OGL LOG][Proc: 0]p_local_coeffs: call_update: 0 [ms]
[OGL LOG][Proc: 0]p_non_local_coeffs: call_update: 0 [ms]
[OGL LOG][Proc: 0]p: update_local_matrix_data: 3.624 [ms]
[OGL LOG][Proc: 0]p: update_non_local_matrix_data: 0.164 [ms]
[OGL LOG][Proc: 0]p: regenerate_distributed_matrix: 4.189 [ms]
[OGL LOG][Proc: 0]p_matrix: call_update: 6.671 [ms]
[OGL LOG][Proc: 0]p_rhs: call_update: 5.081 [ms]
[OGL LOG][Preconditioner.H:346] Generate preconditioner Multigrid MaxLevels 9 MinCoarseRows 10 ZeroGuess 1 Cycle v
[OGL LOG][Proc: 0]p: init_precond: 1402.79 [ms]
[OGL LOG][StoppingCriterion.H:239] Creating stopping criterion with minIter 70 frequency 3
[OGL LOG][Proc: 0]p: generate_solver: 0.011 [ms]
[OGL LOG][Proc: 0]p: solve: 4489.12 [ms]
[OGL LOG][Proc: 0]p: copy_x_back: 0.124 [ms]
[OGL LOG][lduLduBase.H:330] 
Statistics:
	Time per iteration: 41184 [mu s]
	Time per residual norm calculation: 10377.000000 [mu s]
	Time per iteration and DOF: 41.184000 [ns]
	Retrieve results bandwidth 0.925000 [GByte/s]
[OGL LOG][Proc: 0]p: solve_multi_gpu: 5924.7 [ms]
MultigridcudaGKOCG:  Solving for p, Initial residual = 0.00994413, Final residual = 9.60016e-05, No Iterations 109
[INFO] SolveP: 5934.78 [ms]
time step continuity errors : sum local = 1.4115e-08, global = 4.11723e-20, cumulative = 1.37418e-18
[INFO] ContinuityError: 4.329 [ms]
[INFO] CorrectBoundary: 0.108 [ms]
[INFO] PISOStep: 5948.75 [ms]
[INFO] TimeStep: 12326.3 [ms]
ExecutionTime = 356.79 s  ClockTime = 377 s

Time = 0.009

Courant Number mean: 0.0715039 max: 0.477865
[INFO] MatrixAssemblyU: 5.406 [ms]
DILUPBiCGStab:  Solving for Ux, Initial residual = 0.00429825, Final residual = 2.12403e-05, No Iterations 5
DILUPBiCGStab:  Solving for Uy, Initial residual = 0.00921777, Final residual = 4.38226e-05, No Iterations 5
DILUPBiCGStab:  Solving for Uz, Initial residual = 0.0198881, Final residual = 0.000157919, No Iterations 5
[INFO] MomentumPredictor: 31.304 [ms]
[INFO] MatrixAssemblyPI: 4.815 [ms]
[INFO] AdjustPhi: 0.237 [ms]
[INFO] ConstrainPressure: 0.002 [ms]
[INFO] MatrixAssemblyPII: 1.234 [ms]
[OGL LOG][Proc: 0]: global_index_init: 0.07 [ms]
[OGL LOG][Proc: 0]p_local_coeffs: call_update: 0 [ms]
[OGL LOG][Proc: 0]p_non_local_coeffs: call_update: 0 [ms]
[OGL LOG][Proc: 0]p: update_local_matrix_data: 3.657 [ms]
[OGL LOG][Proc: 0]p: update_non_local_matrix_data: 0.158 [ms]
[OGL LOG][Proc: 0]p: regenerate_distributed_matrix: 4.143 [ms]
[OGL LOG][Proc: 0]p_matrix: call_update: 6.613 [ms]
[OGL LOG][Proc: 0]p_rhs: call_update: 5.189 [ms]
[OGL LOG][Preconditioner.H:346] Generate preconditioner Multigrid MaxLevels 9 MinCoarseRows 10 ZeroGuess 1 Cycle v
[OGL LOG][Proc: 0]p: init_precond: 1401.1 [ms]
[OGL LOG][StoppingCriterion.H:239] Creating stopping criterion with minIter 65 frequency 3
[OGL LOG][Proc: 0]p: generate_solver: 0.011 [ms]
[OGL LOG][Proc: 0]p: solve: 10722.3 [ms]
[OGL LOG][Proc: 0]p: copy_x_back: 0.186 [ms]
[OGL LOG][lduLduBase.H:330] 
Statistics:
	Time per iteration: 41883 [mu s]
	Time per residual norm calculation: 13997.000000 [mu s]
	Time per iteration and DOF: 41.883000 [ns]
	Retrieve results bandwidth 0.616000 [GByte/s]
[OGL LOG][Proc: 0]p: solve_multi_gpu: 12162.1 [ms]
MultigridcudaGKOCG:  Solving for p, Initial residual = 0.00987112, Final residual = 9.16308e-05, No Iterations 256
[INFO] SolveP: 12169.2 [ms]
time step continuity errors : sum local = 1.28142e-08, global = 4.91428e-20, cumulative = 1.42332e-18
[INFO] ContinuityError: 0.568 [ms]
[INFO] CorrectBoundary: 0.148 [ms]
[INFO] PISOStep: 12180.4 [ms]
[INFO] MatrixAssemblyPI: 5.137 [ms]
[INFO] AdjustPhi: 0.45 [ms]
[INFO] ConstrainPressure: 0.002 [ms]
[INFO] MatrixAssemblyPII: 1.352 [ms]
[OGL LOG][Proc: 0]: global_index_init: 0.071 [ms]
[OGL LOG][Proc: 0]p_local_coeffs: call_update: 0 [ms]
[OGL LOG][Proc: 0]p_non_local_coeffs: call_update: 0 [ms]
[OGL LOG][Proc: 0]p: update_local_matrix_data: 3.888 [ms]
[OGL LOG][Proc: 0]p: update_non_local_matrix_data: 0.18 [ms]
[OGL LOG][Proc: 0]p: regenerate_distributed_matrix: 5.961 [ms]
[OGL LOG][Proc: 0]p_matrix: call_update: 7.582 [ms]
[OGL LOG][Proc: 0]p_rhs: call_update: 7.886 [ms]
[OGL LOG][Preconditioner.H:346] Generate preconditioner Multigrid MaxLevels 9 MinCoarseRows 10 ZeroGuess 1 Cycle v
[OGL LOG][Proc: 0]p: init_precond: 1397.89 [ms]
[OGL LOG][StoppingCriterion.H:239] Creating stopping criterion with minIter 153 frequency 7
[OGL LOG][Proc: 0]p: generate_solver: 0.011 [ms]
[OGL LOG][Proc: 0]p: solve: 10326.4 [ms]
[OGL LOG][Proc: 0]p: copy_x_back: 0.114 [ms]
[OGL LOG][lduLduBase.H:330] 
Statistics:
	Time per iteration: 39716 [mu s]
	Time per residual norm calculation: 10538.000000 [mu s]
	Time per iteration and DOF: 39.716000 [ns]
	Retrieve results bandwidth 1.006000 [GByte/s]
[OGL LOG][Proc: 0]p: solve_multi_gpu: 11762.9 [ms]
MultigridcudaGKOCG:  Solving for p, Initial residual = 0.00932738, Final residual = 6.30666e-05, No Iterations 260
[INFO] SolveP: 11772.5 [ms]
time step continuity errors : sum local = 8.82328e-09, global = 4.67531e-20, cumulative = 1.47008e-18
[INFO] ContinuityError: 2.748 [ms]
[INFO] CorrectBoundary: 0.335 [ms]
[INFO] PISOStep: 11785.5 [ms]
[INFO] TimeStep: 24005.4 [ms]
ExecutionTime = 380.63 s  ClockTime = 401 s

Time = 0.0095

Courant Number mean: 0.0725959 max: 0.478284
[INFO] MatrixAssemblyU: 5.331 [ms]
DILUPBiCGStab:  Solving for Ux, Initial residual = 0.0039823, Final residual = 1.97894e-05, No Iterations 5
DILUPBiCGStab:  Solving for Uy, Initial residual = 0.008576, Final residual = 4.0338e-05, No Iterations 5
DILUPBiCGStab:  Solving for Uz, Initial residual = 0.0180763, Final residual = 0.000124074, No Iterations 5
[INFO] MomentumPredictor: 22.156 [ms]
[INFO] MatrixAssemblyPI: 4.858 [ms]
[INFO] AdjustPhi: 0.36 [ms]
[INFO] ConstrainPressure: 0.002 [ms]
[INFO] MatrixAssemblyPII: 1.225 [ms]
[OGL LOG][Proc: 0]: global_index_init: 0.08 [ms]
[OGL LOG][Proc: 0]p_local_coeffs: call_update: 0 [ms]
[OGL LOG][Proc: 0]p_non_local_coeffs: call_update: 0 [ms]
[OGL LOG][Proc: 0]p: update_local_matrix_data: 3.34 [ms]
[OGL LOG][Proc: 0]p: update_non_local_matrix_data: 0.16 [ms]
[OGL LOG][Proc: 0]p: regenerate_distributed_matrix: 4.598 [ms]
[OGL LOG][Proc: 0]p_matrix: call_update: 6.922 [ms]
[OGL LOG][Proc: 0]p_rhs: call_update: 4.172 [ms]
[OGL LOG][Preconditioner.H:346] Generate preconditioner Multigrid MaxLevels 9 MinCoarseRows 10 ZeroGuess 1 Cycle v
[OGL LOG][Proc: 0]p: init_precond: 1401.92 [ms]
[OGL LOG][StoppingCriterion.H:239] Creating stopping criterion with minIter 156 frequency 5
[OGL LOG][Proc: 0]p: generate_solver: 0.01 [ms]
[OGL LOG][Proc: 0]p: solve: 10209.1 [ms]
[OGL LOG][Proc: 0]p: copy_x_back: 0.133 [ms]
[OGL LOG][lduLduBase.H:330] 
Statistics:
	Time per iteration: 39879 [mu s]
	Time per residual norm calculation: 12818.000000 [mu s]
	Time per iteration and DOF: 39.879000 [ns]
	Retrieve results bandwidth 0.862000 [GByte/s]
[OGL LOG][Proc: 0]p: solve_multi_gpu: 11647.8 [ms]
MultigridcudaGKOCG:  Solving for p, Initial residual = 0.00887121, Final residual = 9.21114e-05, No Iterations 256
[INFO] SolveP: 11655.6 [ms]
time step continuity errors : sum local = 1.28808e-08, global = 2.9113e-20, cumulative = 1.49919e-18
[INFO] ContinuityError: 1.392 [ms]
[INFO] CorrectBoundary: 0.27 [ms]
[INFO] PISOStep: 11666.9 [ms]
[INFO] MatrixAssemblyPI: 4.57 [ms]
[INFO] AdjustPhi: 0.835 [ms]
[INFO] ConstrainPressure: 0.002 [ms]
[INFO] MatrixAssemblyPII: 1.256 [ms]
[OGL LOG][Proc: 0]: global_index_init: 0.082 [ms]
[OGL LOG][Proc: 0]p_local_coeffs: call_update: 0 [ms]
[OGL LOG][Proc: 0]p_non_local_coeffs: call_update: 0 [ms]
[OGL LOG][Proc: 0]p: update_local_matrix_data: 3.891 [ms]
[OGL LOG][Proc: 0]p: update_non_local_matrix_data: 0.179 [ms]
[OGL LOG][Proc: 0]p: regenerate_distributed_matrix: 4.837 [ms]
[OGL LOG][Proc: 0]p_matrix: call_update: 7.163 [ms]
[OGL LOG][Proc: 0]p_rhs: call_update: 5.188 [ms]
[OGL LOG][Preconditioner.H:346] Generate preconditioner Multigrid MaxLevels 9 MinCoarseRows 10 ZeroGuess 1 Cycle v
[OGL LOG][Proc: 0]p: init_precond: 1405.73 [ms]
[OGL LOG][StoppingCriterion.H:239] Creating stopping criterion with minIter 153 frequency 5
[OGL LOG][Proc: 0]p: generate_solver: 0.012 [ms]
[OGL LOG][Proc: 0]p: solve: 10220.5 [ms]
[OGL LOG][Proc: 0]p: copy_x_back: 0.2 [ms]
[OGL LOG][lduLduBase.H:330] 
Statistics:
	Time per iteration: 39924 [mu s]
	Time per residual norm calculation: 11642.000000 [mu s]
	Time per iteration and DOF: 39.924000 [ns]
	Retrieve results bandwidth 0.573000 [GByte/s]
[OGL LOG][Proc: 0]p: solve_multi_gpu: 11665.1 [ms]
MultigridcudaGKOCG:  Solving for p, Initial residual = 0.00842419, Final residual = 8.64296e-05, No Iterations 256
[INFO] SolveP: 11672.3 [ms]
time step continuity errors : sum local = 1.20902e-08, global = 3.88234e-20, cumulative = 1.53801e-18
[INFO] ContinuityError: 1.595 [ms]
[INFO] CorrectBoundary: 0.099 [ms]
[INFO] PISOStep: 11684.1 [ms]
[INFO] TimeStep: 23379.5 [ms]
ExecutionTime = 403.84 s  ClockTime = 424 s

Time = 0.01

Courant Number mean: 0.0736177 max: 0.478663
[INFO] MatrixAssemblyU: 5.956 [ms]
DILUPBiCGStab:  Solving for Ux, Initial residual = 0.0037034, Final residual = 1.81971e-05, No Iterations 5
DILUPBiCGStab:  Solving for Uy, Initial residual = 0.00799006, Final residual = 3.70617e-05, No Iterations 5
DILUPBiCGStab:  Solving for Uz, Initial residual = 0.0166699, Final residual = 0.000103262, No Iterations 5
[INFO] MomentumPredictor: 21.066 [ms]
[INFO] MatrixAssemblyPI: 4.983 [ms]
[INFO] AdjustPhi: 0.256 [ms]
[INFO] ConstrainPressure: 0.002 [ms]
[INFO] MatrixAssemblyPII: 1.316 [ms]
[OGL LOG][Proc: 0]: global_index_init: 0.071 [ms]
[OGL LOG][Proc: 0]p_local_coeffs: call_update: 0 [ms]
[OGL LOG][Proc: 0]p_non_local_coeffs: call_update: 0 [ms]
[OGL LOG][Proc: 0]p: update_local_matrix_data: 3.921 [ms]
[OGL LOG][Proc: 0]p: update_non_local_matrix_data: 0.193 [ms]
[OGL LOG][Proc: 0]p: regenerate_distributed_matrix: 4.359 [ms]
[OGL LOG][Proc: 0]p_matrix: call_update: 6.838 [ms]
[OGL LOG][Proc: 0]p_rhs: call_update: 5.299 [ms]
[OGL LOG][Preconditioner.H:346] Generate preconditioner Multigrid MaxLevels 9 MinCoarseRows 10 ZeroGuess 1 Cycle v
[OGL LOG][Proc: 0]p: init_precond: 1404.72 [ms]
[OGL LOG][StoppingCriterion.H:239] Creating stopping criterion with minIter 153 frequency 5
[OGL LOG][Proc: 0]p: generate_solver: 0.012 [ms]
[OGL LOG][Proc: 0]p: solve: 6155.19 [ms]
[OGL LOG][Proc: 0]p: copy_x_back: 0.114 [ms]
[OGL LOG][lduLduBase.H:330] 
Statistics:
	Time per iteration: 39456 [mu s]
	Time per residual norm calculation: 11598.000000 [mu s]
	Time per iteration and DOF: 39.456000 [ns]
	Retrieve results bandwidth 1.006000 [GByte/s]
[OGL LOG][Proc: 0]p: solve_multi_gpu: 7597 [ms]
MultigridcudaGKOCG:  Solving for p, Initial residual = 0.00835708, Final residual = 6.06104e-05, No Iterations 156
[INFO] SolveP: 7605.37 [ms]
time step continuity errors : sum local = 9.29199e-09, global = 4.03539e-20, cumulative = 1.57837e-18
[INFO] ContinuityError: 1.404 [ms]
[INFO] CorrectBoundary: 0.364 [ms]
[INFO] PISOStep: 7616.9 [ms]
[INFO] MatrixAssemblyPI: 5.738 [ms]
[INFO] AdjustPhi: 2.123 [ms]
[INFO] ConstrainPressure: 0.002 [ms]
[INFO] MatrixAssemblyPII: 1.304 [ms]
[OGL LOG][Proc: 0]: global_index_init: 0.17 [ms]
[OGL LOG][Proc: 0]p_local_coeffs: call_update: 0 [ms]
[OGL LOG][Proc: 0]p_non_local_coeffs: call_update: 0 [ms]
[OGL LOG][Proc: 0]p: update_local_matrix_data: 3.617 [ms]
[OGL LOG][Proc: 0]p: update_non_local_matrix_data: 0.167 [ms]
[OGL LOG][Proc: 0]p: regenerate_distributed_matrix: 5.434 [ms]
[OGL LOG][Proc: 0]p_matrix: call_update: 7.881 [ms]
[OGL LOG][Proc: 0]p_rhs: call_update: 5.562 [ms]
[OGL LOG][Preconditioner.H:346] Generate preconditioner Multigrid MaxLevels 9 MinCoarseRows 10 ZeroGuess 1 Cycle v
[OGL LOG][Proc: 0]p: init_precond: 1402.7 [ms]
[OGL LOG][StoppingCriterion.H:239] Creating stopping criterion with minIter 93 frequency 4
[OGL LOG][Proc: 0]p: generate_solver: 0.011 [ms]
[OGL LOG][Proc: 0]p: solve: 4220.38 [ms]
[OGL LOG][Proc: 0]p: copy_x_back: 0.12 [ms]
[OGL LOG][lduLduBase.H:330] 
Statistics:
	Time per iteration: 40194 [mu s]
	Time per residual norm calculation: 10728.000000 [mu s]
	Time per iteration and DOF: 40.194000 [ns]
	Retrieve results bandwidth 0.956000 [GByte/s]
[OGL LOG][Proc: 0]p: solve_multi_gpu: 5658.04 [ms]
MultigridcudaGKOCG:  Solving for p, Initial residual = 0.00793212, Final residual = 7.95813e-05, No Iterations 105
[INFO] SolveP: 5672.73 [ms]
time step continuity errors : sum local = 1.14209e-08, global = 4.4521e-20, cumulative = 1.62289e-18
[INFO] ContinuityError: 0.699 [ms]
[INFO] CorrectBoundary: 0.099 [ms]
[INFO] PISOStep: 5686.93 [ms]
[INFO] TimeStep: 13331.8 [ms]
ExecutionTime = 417.08 s  ClockTime = 437 s

End

Finalising parallel run
