/*---------------------------------------------------------------------------*\
| =========                 |                                                 |
| \\      /  F ield         | OpenFOAM: The Open Source CFD Toolbox           |
|  \\    /   O peration     | Version:  2312                                  |
|   \\  /    A nd           | Website:  www.openfoam.com                      |
|    \\/     M anipulation  |                                                 |
\*---------------------------------------------------------------------------*/
Build  : a46b310f-20240104 OPENFOAM=2312 version=v2312
Arch   : "LSB;label=32;scalar=64"
Exec   : icoFoam -parallel -case /hppfs/scratch/0B/di35yan/lidDriven3D/workspace/235f630dc9e917e3614b52c057c171f7/case
Date   : Feb 17 2024
Time   : 17:00:59
Host   : i20r01c06s02
PID    : 99834
I/O    : uncollated
Case   : /hppfs/scratch/0B/di35yan/lidDriven3D/workspace/235f630dc9e917e3614b52c057c171f7/case
nProcs : 8
Hosts  :
(
    (i20r01c06s02 8)
)
Pstream initialized with:
    floatTransfer      : false
    nProcsSimpleSum    : 0
    nonBlockingExchange: 0 (tuning: 0)
    exchange algorithm : 0
    commsType          : nonBlocking
    polling iterations : 0
trapFpe: Floating point exception trapping enabled (FOAM_SIGFPE).
fileModificationChecking : Monitoring run-time modified files using timeStampMaster (fileModificationSkew 5, maxFileModificationPolls 20)
allowSystemOperations : Allowing user-supplied system call operations

// * * * * * * * * * * * * * * * * * * * * * * * * * * * * * * * * * * * * * //
Create time

--> FOAM Warning : 
    From void* Foam::dlLibraryTable::openLibrary(const Foam::fileName&, bool)
    in file db/dynamicLibrary/dlLibraryTable/dlLibraryTable.C at line 188
    Could not load "libpetscFoam.so"
libpetscFoam.so: cannot open shared object file: No such file or directory
Create mesh for time = 0


PISO: Operating solver in PISO mode

Reading transportProperties

Reading field p

Reading field U

Reading/calculating face flux field phi


Starting time loop

Time = 0.00025

Courant Number mean: 8.24341e-18 max: 2.08167e-14
[INFO] MatrixAssemblyU: 111.739 [ms]
DILUPBiCGStab:  Solving for Ux, Initial residual = 1, Final residual = 0.00959752, No Iterations 5
DILUPBiCGStab:  Solving for Uy:  solution singularity
DILUPBiCGStab:  Solving for Uz:  solution singularity
[INFO] MomentumPredictor: 507.8 [ms]
[INFO] MatrixAssemblyPI: 103.063 [ms]
[INFO] AdjustPhi: 13.798 [ms]
[INFO] ConstrainPressure: 0.005 [ms]
[INFO] MatrixAssemblyPII: 30.12 [ms]
[OGL LOG][lduLduBase.H:119] Initialising OGL
	OGL commit:  34fc915+
	Branch: fix/cyclic_interfaces 
	Build type: Debug
	Ginkgo version: 1.8.0 ( develop)
	Ginkgo commit: fc86d48b78cebd2b2c5833a2dcf0fe40f615cf19
	MPI is GPU aware: 1
	Forces host buffer based communication: 0
	CPU ranks per GPU: 1
	Matrix format: Ell
	End OGL_INFO
[OGL LOG][Proc: 0]: global_index_init: 0.45 [ms]
[OGL LOG][Proc: 0]p_local_cols: call_init: 0.652 [ms]
[OGL LOG][Proc: 0]p_local_rows: call_init: 0.019 [ms]
[OGL LOG][Proc: 0]p_local_ldu_map: call_init: 0.006 [ms]
[OGL LOG][Proc: 0]p_local_coeffs: call_init: 1.513 [ms]
[OGL LOG][Proc: 0]p_non_local_cols: call_init: 0.008 [ms]
[OGL LOG][Proc: 0]p_non_local_rows: call_init: 0.004 [ms]
[OGL LOG][Proc: 0]p_non_local_ldu_map: call_init: 0.004 [ms]
[OGL LOG][Proc: 0]p_non_local_coeffs: call_init: 0.009 [ms]
[OGL LOG][Proc: 0]p: init_local_sparsity_pattern: 13835.6 [ms]
[OGL LOG][Proc: 0]p: init_non_local_sparsity_pattern: 30.405 [ms]
[OGL LOG][Proc: 0]p: update_local_matrix_data: 3207.94 [ms]
[OGL LOG][Proc: 0]p: update_non_local_matrix_data: 0.525 [ms]
[OGL LOG][Proc: 0]device_partition: call_init: 5.255 [ms]
[OGL LOG][Proc: 0]p_matrix: call_init: 184.879 [ms]
[OGL LOG][Proc: 0]p_rhs: call_init: 2.978 [ms]
[OGL LOG][Proc: 0]p_solution: call_init: 1.656 [ms]
[OGL LOG][Proc: 0]p: init_precond: 1.316 [ms]
[OGL LOG][StoppingCriterion.H:239] Creating stopping criterion with minIter 0 frequency 1
[OGL LOG][Proc: 0]p: generate_solver: 3.894 [ms]
[OGL LOG][Proc: 0]p: solve: 2607.06 [ms]
[OGL LOG][Proc: 0]p: copy_x_back: 1.72 [ms]
[OGL LOG][lduLduBase.H:330] 
Statistics:
	Time per iteration: 1618 [mu s]
	Time per residual norm calculation: 45646.000000 [mu s]
	Time per iteration and DOF: 0.202250 [ns]
	Retrieve results bandwidth 4.651000 [GByte/s]
[OGL LOG][Proc: 0]p: solve_multi_gpu: 2824.19 [ms]
nonedpcppGKOCG:  Solving for p, Initial residual = 1, Final residual = 9.86498e-05, No Iterations 1611
[INFO] SolveP: 19936 [ms]
time step continuity errors : sum local = 7.58043e-09, global = -3.51594e-22, cumulative = -3.51594e-22
[INFO] ContinuityError: 19.657 [ms]
[INFO] CorrectBoundary: 3.195 [ms]
[INFO] PISOStep: 20147 [ms]
[INFO] MatrixAssemblyPI: 102.639 [ms]
[INFO] AdjustPhi: 17.776 [ms]
[INFO] ConstrainPressure: 0.002 [ms]
[INFO] MatrixAssemblyPII: 31.486 [ms]
[OGL LOG][Proc: 0]: global_index_init: 0.161 [ms]
[OGL LOG][Proc: 0]p_local_coeffs: call_update: 0 [ms]
[OGL LOG][Proc: 0]p_non_local_coeffs: call_update: 0 [ms]
[OGL LOG][Proc: 0]p: update_local_matrix_data: 11.467 [ms]
[OGL LOG][Proc: 0]p: update_non_local_matrix_data: 0.418 [ms]
[OGL LOG][Proc: 0]p: regenerate_distributed_matrix: 65.869 [ms]
[OGL LOG][Proc: 0]p_matrix: call_update: 66.957 [ms]
[OGL LOG][Proc: 0]p_rhs: call_update: 0.927 [ms]
[OGL LOG][Proc: 0]p: init_precond: 0.058 [ms]
[OGL LOG][StoppingCriterion.H:239] Creating stopping criterion with minIter 0 frequency 1
[OGL LOG][Proc: 0]p: generate_solver: 0.019 [ms]
[OGL LOG][Proc: 0]p: solve: 2004.23 [ms]
[OGL LOG][Proc: 0]p: copy_x_back: 1.7 [ms]
[OGL LOG][lduLduBase.H:330] 
Statistics:
	Time per iteration: 1260 [mu s]
	Time per residual norm calculation: 152.000000 [mu s]
	Time per iteration and DOF: 0.157500 [ns]
	Retrieve results bandwidth 4.705000 [GByte/s]
[OGL LOG][Proc: 0]p: solve_multi_gpu: 2078.11 [ms]
nonedpcppGKOCG:  Solving for p, Initial residual = 0.786527, Final residual = 9.90633e-05, No Iterations 1590
[INFO] SolveP: 2094.31 [ms]
time step continuity errors : sum local = 9.51291e-09, global = -8.65851e-22, cumulative = -1.21745e-21
[INFO] ContinuityError: 16.263 [ms]
[INFO] CorrectBoundary: 1.555 [ms]
[INFO] PISOStep: 2304.74 [ms]
[INFO] TimeStep: 23088.7 [ms]
ExecutionTime = 22.31 s  ClockTime = 37 s

Time = 0.0005

Courant Number mean: 0.0159725 max: 0.41252
[INFO] MatrixAssemblyU: 85.356 [ms]
DILUPBiCGStab:  Solving for Ux, Initial residual = 0.129596, Final residual = 0.00510253, No Iterations 5
DILUPBiCGStab:  Solving for Uy, Initial residual = 0.426762, Final residual = 0.0132344, No Iterations 5
DILUPBiCGStab:  Solving for Uz, Initial residual = 0.99346, Final residual = 0.0333241, No Iterations 5
[INFO] MomentumPredictor: 866.122 [ms]
[INFO] MatrixAssemblyPI: 100.818 [ms]
[INFO] AdjustPhi: 6.754 [ms]
[INFO] ConstrainPressure: 0.003 [ms]
[INFO] MatrixAssemblyPII: 29.132 [ms]
[OGL LOG][Proc: 0]: global_index_init: 0.075 [ms]
[OGL LOG][Proc: 0]p_local_coeffs: call_update: 0 [ms]
[OGL LOG][Proc: 0]p_non_local_coeffs: call_update: 0 [ms]
[OGL LOG][Proc: 0]p: update_local_matrix_data: 10.882 [ms]
[OGL LOG][Proc: 0]p: update_non_local_matrix_data: 0.392 [ms]
[OGL LOG][Proc: 0]p: regenerate_distributed_matrix: 63.923 [ms]
[OGL LOG][Proc: 0]p_matrix: call_update: 64.315 [ms]
[OGL LOG][Proc: 0]p_rhs: call_update: 1.201 [ms]
[OGL LOG][Proc: 0]p: init_precond: 0.045 [ms]
[OGL LOG][StoppingCriterion.H:239] Creating stopping criterion with minIter 954 frequency 8
[OGL LOG][Proc: 0]p: generate_solver: 0.02 [ms]
[OGL LOG][Proc: 0]p: solve: 1786.4 [ms]
[OGL LOG][Proc: 0]p: copy_x_back: 1.572 [ms]
[OGL LOG][lduLduBase.H:330] 
Statistics:
	Time per iteration: 1138 [mu s]
	Time per residual norm calculation: 150.000000 [mu s]
	Time per iteration and DOF: 0.142250 [ns]
	Retrieve results bandwidth 5.089000 [GByte/s]
[OGL LOG][Proc: 0]p: solve_multi_gpu: 1859.63 [ms]
nonedpcppGKOCG:  Solving for p, Initial residual = 0.824097, Final residual = 9.89232e-05, No Iterations 1569
[INFO] SolveP: 1874.04 [ms]
time step continuity errors : sum local = 1.44924e-08, global = -1.20443e-21, cumulative = -2.42188e-21
[INFO] ContinuityError: 12.323 [ms]
[INFO] CorrectBoundary: 0.315 [ms]
[INFO] PISOStep: 2059.05 [ms]
[INFO] MatrixAssemblyPI: 99.165 [ms]
[INFO] AdjustPhi: 6.347 [ms]
[INFO] ConstrainPressure: 0.002 [ms]
[INFO] MatrixAssemblyPII: 31.041 [ms]
[OGL LOG][Proc: 0]: global_index_init: 0.133 [ms]
[OGL LOG][Proc: 0]p_local_coeffs: call_update: 0 [ms]
[OGL LOG][Proc: 0]p_non_local_coeffs: call_update: 0 [ms]
[OGL LOG][Proc: 0]p: update_local_matrix_data: 11.186 [ms]
[OGL LOG][Proc: 0]p: update_non_local_matrix_data: 0.383 [ms]
[OGL LOG][Proc: 0]p: regenerate_distributed_matrix: 58.464 [ms]
[OGL LOG][Proc: 0]p_matrix: call_update: 58.863 [ms]
[OGL LOG][Proc: 0]p_rhs: call_update: 0.969 [ms]
[OGL LOG][Proc: 0]p: init_precond: 0.045 [ms]
[OGL LOG][StoppingCriterion.H:239] Creating stopping criterion with minIter 941 frequency 9
[OGL LOG][Proc: 0]p: generate_solver: 0.021 [ms]
[OGL LOG][Proc: 0]p: solve: 1769.15 [ms]
[OGL LOG][Proc: 0]p: copy_x_back: 1.812 [ms]
[OGL LOG][lduLduBase.H:330] 
Statistics:
	Time per iteration: 1129 [mu s]
	Time per residual norm calculation: 151.000000 [mu s]
	Time per iteration and DOF: 0.141125 [ns]
	Retrieve results bandwidth 4.415000 [GByte/s]
[OGL LOG][Proc: 0]p: solve_multi_gpu: 1835.67 [ms]
nonedpcppGKOCG:  Solving for p, Initial residual = 0.767386, Final residual = 9.39279e-05, No Iterations 1567
[INFO] SolveP: 1850.39 [ms]
time step continuity errors : sum local = 1.40082e-08, global = 1.59609e-21, cumulative = -8.25788e-22
[INFO] ContinuityError: 14.017 [ms]
[INFO] CorrectBoundary: 0.28 [ms]
[INFO] PISOStep: 2039.67 [ms]
[INFO] TimeStep: 5064.6 [ms]
ExecutionTime = 27.37 s  ClockTime = 42 s

Time = 0.00075

Courant Number mean: 0.0243584 max: 0.471981
[INFO] MatrixAssemblyU: 85.346 [ms]
DILUPBiCGStab:  Solving for Ux, Initial residual = 0.0547593, Final residual = 0.00175941, No Iterations 5
DILUPBiCGStab:  Solving for Uy, Initial residual = 0.182081, Final residual = 0.0070754, No Iterations 5
DILUPBiCGStab:  Solving for Uz, Initial residual = 0.815586, Final residual = 0.0252779, No Iterations 5
[INFO] MomentumPredictor: 896.09 [ms]
[INFO] MatrixAssemblyPI: 102.186 [ms]
[INFO] AdjustPhi: 12.786 [ms]
[INFO] ConstrainPressure: 0.002 [ms]
[INFO] MatrixAssemblyPII: 29.121 [ms]
[OGL LOG][Proc: 0]: global_index_init: 0.138 [ms]
[OGL LOG][Proc: 0]p_local_coeffs: call_update: 0 [ms]
[OGL LOG][Proc: 0]p_non_local_coeffs: call_update: 0 [ms]
[OGL LOG][Proc: 0]p: update_local_matrix_data: 11.336 [ms]
[OGL LOG][Proc: 0]p: update_non_local_matrix_data: 0.477 [ms]
[OGL LOG][Proc: 0]p: regenerate_distributed_matrix: 63.513 [ms]
[OGL LOG][Proc: 0]p_matrix: call_update: 63.911 [ms]
[OGL LOG][Proc: 0]p_rhs: call_update: 0.685 [ms]
[OGL LOG][Proc: 0]p: init_precond: 0.042 [ms]
[OGL LOG][StoppingCriterion.H:239] Creating stopping criterion with minIter 940 frequency 9
[OGL LOG][Proc: 0]p: generate_solver: 0.02 [ms]
[OGL LOG][Proc: 0]p: solve: 1804.54 [ms]
[OGL LOG][Proc: 0]p: copy_x_back: 2.372 [ms]
[OGL LOG][lduLduBase.H:330] 
Statistics:
	Time per iteration: 1145 [mu s]
	Time per residual norm calculation: 149.000000 [mu s]
	Time per iteration and DOF: 0.143125 [ns]
	Retrieve results bandwidth 3.372000 [GByte/s]
[OGL LOG][Proc: 0]p: solve_multi_gpu: 1875.15 [ms]
nonedpcppGKOCG:  Solving for p, Initial residual = 0.848666, Final residual = 9.07159e-05, No Iterations 1576
[INFO] SolveP: 1890.18 [ms]
time step continuity errors : sum local = 1.21528e-08, global = -1.17978e-21, cumulative = -2.00556e-21
[INFO] ContinuityError: 16.219 [ms]
[INFO] CorrectBoundary: 0.5 [ms]
[INFO] PISOStep: 2090.02 [ms]
[INFO] MatrixAssemblyPI: 100.082 [ms]
[INFO] AdjustPhi: 16.273 [ms]
[INFO] ConstrainPressure: 0.002 [ms]
[INFO] MatrixAssemblyPII: 30.375 [ms]
[OGL LOG][Proc: 0]: global_index_init: 0.037 [ms]
[OGL LOG][Proc: 0]p_local_coeffs: call_update: 0 [ms]
[OGL LOG][Proc: 0]p_non_local_coeffs: call_update: 0 [ms]
[OGL LOG][Proc: 0]p: update_local_matrix_data: 12.154 [ms]
[OGL LOG][Proc: 0]p: update_non_local_matrix_data: 0.426 [ms]
[OGL LOG][Proc: 0]p: regenerate_distributed_matrix: 65.375 [ms]
[OGL LOG][Proc: 0]p_matrix: call_update: 65.81 [ms]
[OGL LOG][Proc: 0]p_rhs: call_update: 1.044 [ms]
[OGL LOG][Proc: 0]p: init_precond: 0.058 [ms]
[OGL LOG][StoppingCriterion.H:239] Creating stopping criterion with minIter 945 frequency 9
[OGL LOG][Proc: 0]p: generate_solver: 0.019 [ms]
[OGL LOG][Proc: 0]p: solve: 1784.68 [ms]
[OGL LOG][Proc: 0]p: copy_x_back: 1.613 [ms]
[OGL LOG][lduLduBase.H:330] 
Statistics:
	Time per iteration: 1132 [mu s]
	Time per residual norm calculation: 138.000000 [mu s]
	Time per iteration and DOF: 0.141500 [ns]
	Retrieve results bandwidth 4.959000 [GByte/s]
[OGL LOG][Proc: 0]p: solve_multi_gpu: 1854.99 [ms]
nonedpcppGKOCG:  Solving for p, Initial residual = 0.815332, Final residual = 8.40703e-05, No Iterations 1576
[INFO] SolveP: 1871.37 [ms]
time step continuity errors : sum local = 1.10197e-08, global = -1.3891e-21, cumulative = -3.39466e-21
[INFO] ContinuityError: 15.61 [ms]
[INFO] CorrectBoundary: 4.207 [ms]
[INFO] PISOStep: 2074.24 [ms]
[INFO] TimeStep: 5159.95 [ms]
ExecutionTime = 32.53 s  ClockTime = 47 s

Time = 0.001

Courant Number mean: 0.029233 max: 0.467776
[INFO] MatrixAssemblyU: 83.098 [ms]
DILUPBiCGStab:  Solving for Ux, Initial residual = 0.0346512, Final residual = 0.00116378, No Iterations 5
DILUPBiCGStab:  Solving for Uy, Initial residual = 0.129013, Final residual = 0.00438846, No Iterations 5
DILUPBiCGStab:  Solving for Uz, Initial residual = 0.60121, Final residual = 0.0148422, No Iterations 5
[INFO] MomentumPredictor: 890.188 [ms]
[INFO] MatrixAssemblyPI: 102.262 [ms]
[INFO] AdjustPhi: 6.793 [ms]
[INFO] ConstrainPressure: 0.001 [ms]
[INFO] MatrixAssemblyPII: 29.259 [ms]
[OGL LOG][Proc: 0]: global_index_init: 0.039 [ms]
[OGL LOG][Proc: 0]p_local_coeffs: call_update: 0 [ms]
[OGL LOG][Proc: 0]p_non_local_coeffs: call_update: 0 [ms]
[OGL LOG][Proc: 0]p: update_local_matrix_data: 11.435 [ms]
[OGL LOG][Proc: 0]p: update_non_local_matrix_data: 0.425 [ms]
[OGL LOG][Proc: 0]p: regenerate_distributed_matrix: 55.628 [ms]
[OGL LOG][Proc: 0]p_matrix: call_update: 56.092 [ms]
[OGL LOG][Proc: 0]p_rhs: call_update: 1.256 [ms]
[OGL LOG][Proc: 0]p: init_precond: 0.041 [ms]
[OGL LOG][StoppingCriterion.H:239] Creating stopping criterion with minIter 945 frequency 8
[OGL LOG][Proc: 0]p: generate_solver: 0.02 [ms]
[OGL LOG][Proc: 0]p: solve: 1095.43 [ms]
[OGL LOG][Proc: 0]p: copy_x_back: 1.617 [ms]
[OGL LOG][lduLduBase.H:330] 
Statistics:
	Time per iteration: 1149 [mu s]
	Time per residual norm calculation: 161.000000 [mu s]
	Time per iteration and DOF: 0.143625 [ns]
	Retrieve results bandwidth 4.947000 [GByte/s]
[OGL LOG][Proc: 0]p: solve_multi_gpu: 1158.1 [ms]
nonedpcppGKOCG:  Solving for p, Initial residual = 0.769304, Final residual = 5.00868e-05, No Iterations 953
[INFO] SolveP: 1173.15 [ms]
time step continuity errors : sum local = 6.55406e-09, global = -8.72663e-22, cumulative = -4.26732e-21
[INFO] ContinuityError: 13.864 [ms]
[INFO] CorrectBoundary: 0.51 [ms]
[INFO] PISOStep: 1361.93 [ms]
[INFO] MatrixAssemblyPI: 97.706 [ms]
[INFO] AdjustPhi: 10.931 [ms]
[INFO] ConstrainPressure: 0.002 [ms]
[INFO] MatrixAssemblyPII: 30.988 [ms]
[OGL LOG][Proc: 0]: global_index_init: 0.141 [ms]
[OGL LOG][Proc: 0]p_local_coeffs: call_update: 0 [ms]
[OGL LOG][Proc: 0]p_non_local_coeffs: call_update: 0 [ms]
[OGL LOG][Proc: 0]p: update_local_matrix_data: 11.346 [ms]
[OGL LOG][Proc: 0]p: update_non_local_matrix_data: 0.412 [ms]
[OGL LOG][Proc: 0]p: regenerate_distributed_matrix: 65.133 [ms]
[OGL LOG][Proc: 0]p_matrix: call_update: 65.529 [ms]
[OGL LOG][Proc: 0]p_rhs: call_update: 1.41 [ms]
[OGL LOG][Proc: 0]p: init_precond: 0.044 [ms]
[OGL LOG][StoppingCriterion.H:239] Creating stopping criterion with minIter 571 frequency 7
[OGL LOG][Proc: 0]p: generate_solver: 0.021 [ms]
[OGL LOG][Proc: 0]p: solve: 887.276 [ms]
[OGL LOG][Proc: 0]p: copy_x_back: 1.651 [ms]
[OGL LOG][lduLduBase.H:330] 
Statistics:
	Time per iteration: 1161 [mu s]
	Time per residual norm calculation: 146.000000 [mu s]
	Time per iteration and DOF: 0.145125 [ns]
	Retrieve results bandwidth 4.845000 [GByte/s]
[OGL LOG][Proc: 0]p: solve_multi_gpu: 961.021 [ms]
nonedpcppGKOCG:  Solving for p, Initial residual = 0.706629, Final residual = 8.70272e-05, No Iterations 764
[INFO] SolveP: 976.127 [ms]
time step continuity errors : sum local = 1.08573e-08, global = -1.35306e-21, cumulative = -5.62039e-21
[INFO] ContinuityError: 15.096 [ms]
[INFO] CorrectBoundary: 4.146 [ms]
[INFO] PISOStep: 1168.69 [ms]
[INFO] TimeStep: 3518.75 [ms]
ExecutionTime = 36.05 s  ClockTime = 51 s

Time = 0.00125

Courant Number mean: 0.0333806 max: 0.472901
[INFO] MatrixAssemblyU: 82.953 [ms]
DILUPBiCGStab:  Solving for Ux, Initial residual = 0.0270932, Final residual = 0.000842217, No Iterations 5
DILUPBiCGStab:  Solving for Uy, Initial residual = 0.0811966, Final residual = 0.00325901, No Iterations 5
DILUPBiCGStab:  Solving for Uz, Initial residual = 0.448049, Final residual = 0.0108873, No Iterations 5
[INFO] MomentumPredictor: 780.564 [ms]
[INFO] MatrixAssemblyPI: 99.841 [ms]
[INFO] AdjustPhi: 8.947 [ms]
[INFO] ConstrainPressure: 0.002 [ms]
[INFO] MatrixAssemblyPII: 29.443 [ms]
[OGL LOG][Proc: 0]: global_index_init: 0.049 [ms]
[OGL LOG][Proc: 0]p_local_coeffs: call_update: 0 [ms]
[OGL LOG][Proc: 0]p_non_local_coeffs: call_update: 0 [ms]
[OGL LOG][Proc: 0]p: update_local_matrix_data: 11.446 [ms]
[OGL LOG][Proc: 0]p: update_non_local_matrix_data: 0.516 [ms]
[OGL LOG][Proc: 0]p: regenerate_distributed_matrix: 63.126 [ms]
[OGL LOG][Proc: 0]p_matrix: call_update: 63.512 [ms]
[OGL LOG][Proc: 0]p_rhs: call_update: 1.415 [ms]
[OGL LOG][Proc: 0]p: init_precond: 0.041 [ms]
[OGL LOG][StoppingCriterion.H:239] Creating stopping criterion with minIter 458 frequency 6
[OGL LOG][Proc: 0]p: generate_solver: 0.021 [ms]
[OGL LOG][Proc: 0]p: solve: 857.385 [ms]
[OGL LOG][Proc: 0]p: copy_x_back: 1.631 [ms]
[OGL LOG][lduLduBase.H:330] 
Statistics:
	Time per iteration: 1150 [mu s]
	Time per residual norm calculation: 141.000000 [mu s]
	Time per iteration and DOF: 0.143750 [ns]
	Retrieve results bandwidth 4.904000 [GByte/s]
[OGL LOG][Proc: 0]p: solve_multi_gpu: 929.019 [ms]
nonedpcppGKOCG:  Solving for p, Initial residual = 0.774761, Final residual = 9.15362e-05, No Iterations 745
[INFO] SolveP: 944.483 [ms]
time step continuity errors : sum local = 9.39843e-09, global = -1.93e-21, cumulative = -7.55039e-21
[INFO] ContinuityError: 14.815 [ms]
[INFO] CorrectBoundary: 0.654 [ms]
[INFO] PISOStep: 1133.73 [ms]
[INFO] MatrixAssemblyPI: 100.896 [ms]
[INFO] AdjustPhi: 9.287 [ms]
[INFO] ConstrainPressure: 0.002 [ms]
[INFO] MatrixAssemblyPII: 31.062 [ms]
[OGL LOG][Proc: 0]: global_index_init: 0.066 [ms]
[OGL LOG][Proc: 0]p_local_coeffs: call_update: 0 [ms]
[OGL LOG][Proc: 0]p_non_local_coeffs: call_update: 0 [ms]
[OGL LOG][Proc: 0]p: update_local_matrix_data: 10.542 [ms]
[OGL LOG][Proc: 0]p: update_non_local_matrix_data: 0.43 [ms]
[OGL LOG][Proc: 0]p: regenerate_distributed_matrix: 59.683 [ms]
[OGL LOG][Proc: 0]p_matrix: call_update: 60.072 [ms]
[OGL LOG][Proc: 0]p_rhs: call_update: 0.815 [ms]
[OGL LOG][Proc: 0]p: init_precond: 0.043 [ms]
[OGL LOG][StoppingCriterion.H:239] Creating stopping criterion with minIter 447 frequency 6
[OGL LOG][Proc: 0]p: generate_solver: 0.02 [ms]
[OGL LOG][Proc: 0]p: solve: 859.021 [ms]
[OGL LOG][Proc: 0]p: copy_x_back: 1.717 [ms]
[OGL LOG][lduLduBase.H:330] 
Statistics:
	Time per iteration: 1153 [mu s]
	Time per residual norm calculation: 151.000000 [mu s]
	Time per iteration and DOF: 0.144125 [ns]
	Retrieve results bandwidth 4.659000 [GByte/s]
[OGL LOG][Proc: 0]p: solve_multi_gpu: 925.505 [ms]
nonedpcppGKOCG:  Solving for p, Initial residual = 0.723574, Final residual = 8.66771e-05, No Iterations 745
[INFO] SolveP: 939.663 [ms]
time step continuity errors : sum local = 8.65378e-09, global = -4.38992e-21, cumulative = -1.19403e-20
[INFO] ContinuityError: 13.303 [ms]
[INFO] CorrectBoundary: 0.302 [ms]
[INFO] PISOStep: 1129.42 [ms]
[INFO] TimeStep: 3141.66 [ms]
ExecutionTime = 39.18 s  ClockTime = 54 s

Time = 0.0015

Courant Number mean: 0.036686 max: 0.475572
[INFO] MatrixAssemblyU: 86.343 [ms]
DILUPBiCGStab:  Solving for Ux, Initial residual = 0.0203804, Final residual = 0.000603378, No Iterations 5
DILUPBiCGStab:  Solving for Uy, Initial residual = 0.0656709, Final residual = 0.00224175, No Iterations 5
DILUPBiCGStab:  Solving for Uz, Initial residual = 0.325595, Final residual = 0.00777043, No Iterations 5
[INFO] MomentumPredictor: 783.18 [ms]
[INFO] MatrixAssemblyPI: 98.82 [ms]
[INFO] AdjustPhi: 10.006 [ms]
[INFO] ConstrainPressure: 0.001 [ms]
[INFO] MatrixAssemblyPII: 30.829 [ms]
[OGL LOG][Proc: 0]: global_index_init: 0.07 [ms]
[OGL LOG][Proc: 0]p_local_coeffs: call_update: 0 [ms]
[OGL LOG][Proc: 0]p_non_local_coeffs: call_update: 0 [ms]
[OGL LOG][Proc: 0]p: update_local_matrix_data: 15.831 [ms]
[OGL LOG][Proc: 0]p: update_non_local_matrix_data: 0.421 [ms]
[OGL LOG][Proc: 0]p: regenerate_distributed_matrix: 55.338 [ms]
[OGL LOG][Proc: 0]p_matrix: call_update: 55.755 [ms]
[OGL LOG][Proc: 0]p_rhs: call_update: 0.687 [ms]
[OGL LOG][Proc: 0]p: init_precond: 0.047 [ms]
[OGL LOG][StoppingCriterion.H:239] Creating stopping criterion with minIter 447 frequency 6
[OGL LOG][Proc: 0]p: generate_solver: 0.021 [ms]
[OGL LOG][Proc: 0]p: solve: 844.709 [ms]
[OGL LOG][Proc: 0]p: copy_x_back: 1.59 [ms]
[OGL LOG][lduLduBase.H:330] 
Statistics:
	Time per iteration: 1133 [mu s]
	Time per residual norm calculation: 142.000000 [mu s]
	Time per iteration and DOF: 0.141625 [ns]
	Retrieve results bandwidth 5.031000 [GByte/s]
[OGL LOG][Proc: 0]p: solve_multi_gpu: 903.436 [ms]
nonedpcppGKOCG:  Solving for p, Initial residual = 0.681264, Final residual = 9.7045e-05, No Iterations 745
[INFO] SolveP: 922.907 [ms]
time step continuity errors : sum local = 1.003e-08, global = -3.36518e-21, cumulative = -1.53055e-20
[INFO] ContinuityError: 13.29 [ms]
[INFO] CorrectBoundary: 0.337 [ms]
[INFO] PISOStep: 1109.87 [ms]
[INFO] MatrixAssemblyPI: 99.192 [ms]
[INFO] AdjustPhi: 9.562 [ms]
[INFO] ConstrainPressure: 0.002 [ms]
[INFO] MatrixAssemblyPII: 30.725 [ms]
[OGL LOG][Proc: 0]: global_index_init: 0.082 [ms]
[OGL LOG][Proc: 0]p_local_coeffs: call_update: 0 [ms]
[OGL LOG][Proc: 0]p_non_local_coeffs: call_update: 0 [ms]
[OGL LOG][Proc: 0]p: update_local_matrix_data: 10.637 [ms]
[OGL LOG][Proc: 0]p: update_non_local_matrix_data: 0.415 [ms]
[OGL LOG][Proc: 0]p: regenerate_distributed_matrix: 56.586 [ms]
[OGL LOG][Proc: 0]p_matrix: call_update: 56.968 [ms]
[OGL LOG][Proc: 0]p_rhs: call_update: 1.697 [ms]
[OGL LOG][Proc: 0]p: init_precond: 0.044 [ms]
[OGL LOG][StoppingCriterion.H:239] Creating stopping criterion with minIter 447 frequency 6
[OGL LOG][Proc: 0]p: generate_solver: 0.02 [ms]
[OGL LOG][Proc: 0]p: solve: 864.353 [ms]
[OGL LOG][Proc: 0]p: copy_x_back: 1.698 [ms]
[OGL LOG][lduLduBase.H:330] 
Statistics:
	Time per iteration: 1160 [mu s]
	Time per residual norm calculation: 155.000000 [mu s]
	Time per iteration and DOF: 0.145000 [ns]
	Retrieve results bandwidth 4.711000 [GByte/s]
[OGL LOG][Proc: 0]p: solve_multi_gpu: 931.233 [ms]
nonedpcppGKOCG:  Solving for p, Initial residual = 0.620489, Final residual = 8.14653e-05, No Iterations 745
[INFO] SolveP: 945.507 [ms]
time step continuity errors : sum local = 7.89901e-09, global = -7.51519e-22, cumulative = -1.6057e-20
[INFO] ContinuityError: 12.736 [ms]
[INFO] CorrectBoundary: 0.574 [ms]
[INFO] PISOStep: 1132.63 [ms]
[INFO] TimeStep: 3125.51 [ms]
ExecutionTime = 42.31 s  ClockTime = 57 s

Time = 0.00175

Courant Number mean: 0.039604 max: 0.477516
[INFO] MatrixAssemblyU: 82.688 [ms]
DILUPBiCGStab:  Solving for Ux, Initial residual = 0.0173939, Final residual = 0.000478456, No Iterations 5
DILUPBiCGStab:  Solving for Uy, Initial residual = 0.0488548, Final residual = 0.00163365, No Iterations 5
DILUPBiCGStab:  Solving for Uz, Initial residual = 0.252325, Final residual = 0.00728516, No Iterations 5
[INFO] MomentumPredictor: 783.251 [ms]
[INFO] MatrixAssemblyPI: 99.641 [ms]
[INFO] AdjustPhi: 9.525 [ms]
[INFO] ConstrainPressure: 0.002 [ms]
[INFO] MatrixAssemblyPII: 29.187 [ms]
[OGL LOG][Proc: 0]: global_index_init: 0.042 [ms]
[OGL LOG][Proc: 0]p_local_coeffs: call_update: 0 [ms]
[OGL LOG][Proc: 0]p_non_local_coeffs: call_update: 0 [ms]
[OGL LOG][Proc: 0]p: update_local_matrix_data: 11.179 [ms]
[OGL LOG][Proc: 0]p: update_non_local_matrix_data: 0.416 [ms]
[OGL LOG][Proc: 0]p: regenerate_distributed_matrix: 55.322 [ms]
[OGL LOG][Proc: 0]p_matrix: call_update: 55.711 [ms]
[OGL LOG][Proc: 0]p_rhs: call_update: 1.676 [ms]
[OGL LOG][Proc: 0]p: init_precond: 0.045 [ms]
[OGL LOG][StoppingCriterion.H:239] Creating stopping criterion with minIter 447 frequency 6
[OGL LOG][Proc: 0]p: generate_solver: 0.022 [ms]
[OGL LOG][Proc: 0]p: solve: 1733.46 [ms]
[OGL LOG][Proc: 0]p: copy_x_back: 1.604 [ms]
[OGL LOG][lduLduBase.H:330] 
Statistics:
	Time per iteration: 1141 [mu s]
	Time per residual norm calculation: 149.000000 [mu s]
	Time per iteration and DOF: 0.142625 [ns]
	Retrieve results bandwidth 4.987000 [GByte/s]
[OGL LOG][Proc: 0]p: solve_multi_gpu: 1797.91 [ms]
nonedpcppGKOCG:  Solving for p, Initial residual = 0.677188, Final residual = 8.90729e-05, No Iterations 1519
[INFO] SolveP: 1812.99 [ms]
time step continuity errors : sum local = 6.88825e-09, global = -4.46117e-21, cumulative = -2.05182e-20
[INFO] ContinuityError: 15.039 [ms]
[INFO] CorrectBoundary: 0.524 [ms]
[INFO] PISOStep: 2005.79 [ms]
[INFO] MatrixAssemblyPI: 100.638 [ms]
[INFO] AdjustPhi: 13.53 [ms]
[INFO] ConstrainPressure: 0.002 [ms]
[INFO] MatrixAssemblyPII: 30.41 [ms]
[OGL LOG][Proc: 0]: global_index_init: 0.177 [ms]
[OGL LOG][Proc: 0]p_local_coeffs: call_update: 0 [ms]
[OGL LOG][Proc: 0]p_non_local_coeffs: call_update: 0 [ms]
[OGL LOG][Proc: 0]p: update_local_matrix_data: 14.417 [ms]
[OGL LOG][Proc: 0]p: update_non_local_matrix_data: 0.402 [ms]
[OGL LOG][Proc: 0]p: regenerate_distributed_matrix: 59.171 [ms]
[OGL LOG][Proc: 0]p_matrix: call_update: 59.568 [ms]
[OGL LOG][Proc: 0]p_rhs: call_update: 0.665 [ms]
[OGL LOG][Proc: 0]p: init_precond: 0.047 [ms]
[OGL LOG][StoppingCriterion.H:239] Creating stopping criterion with minIter 911 frequency 9
[OGL LOG][Proc: 0]p: generate_solver: 0.022 [ms]
[OGL LOG][Proc: 0]p: solve: 1727.39 [ms]
[OGL LOG][Proc: 0]p: copy_x_back: 1.682 [ms]
[OGL LOG][lduLduBase.H:330] 
Statistics:
	Time per iteration: 1141 [mu s]
	Time per residual norm calculation: 140.000000 [mu s]
	Time per iteration and DOF: 0.142625 [ns]
	Retrieve results bandwidth 4.756000 [GByte/s]
[OGL LOG][Proc: 0]p: solve_multi_gpu: 1790.01 [ms]
nonedpcppGKOCG:  Solving for p, Initial residual = 0.617332, Final residual = 9.81892e-05, No Iterations 1513
[INFO] SolveP: 1808.06 [ms]
time step continuity errors : sum local = 7.55389e-09, global = -4.94279e-22, cumulative = -2.10125e-20
[INFO] ContinuityError: 15.692 [ms]
[INFO] CorrectBoundary: 0.633 [ms]
[INFO] PISOStep: 2010.27 [ms]
[INFO] TimeStep: 4896.12 [ms]
ExecutionTime = 47.2 s  ClockTime = 62 s

Time = 0.002

Courant Number mean: 0.0421308 max: 0.47922
[INFO] MatrixAssemblyU: 82.905 [ms]
DILUPBiCGStab:  Solving for Ux, Initial residual = 0.0142547, Final residual = 0.000366426, No Iterations 5
DILUPBiCGStab:  Solving for Uy, Initial residual = 0.0416196, Final residual = 0.00126875, No Iterations 5
DILUPBiCGStab:  Solving for Uz, Initial residual = 0.196481, Final residual = 0.00548025, No Iterations 5
[INFO] MomentumPredictor: 786.52 [ms]
[INFO] MatrixAssemblyPI: 101.076 [ms]
[INFO] AdjustPhi: 6.765 [ms]
[INFO] ConstrainPressure: 0.002 [ms]
[INFO] MatrixAssemblyPII: 28.744 [ms]
[OGL LOG][Proc: 0]: global_index_init: 0.021 [ms]
[OGL LOG][Proc: 0]p_local_coeffs: call_update: 0 [ms]
[OGL LOG][Proc: 0]p_non_local_coeffs: call_update: 0 [ms]
[OGL LOG][Proc: 0]p: update_local_matrix_data: 10.794 [ms]
[OGL LOG][Proc: 0]p: update_non_local_matrix_data: 0.397 [ms]
[OGL LOG][Proc: 0]p: regenerate_distributed_matrix: 63.722 [ms]
[OGL LOG][Proc: 0]p_matrix: call_update: 64.118 [ms]
[OGL LOG][Proc: 0]p_rhs: call_update: 1.486 [ms]
[OGL LOG][Proc: 0]p: init_precond: 0.047 [ms]
[OGL LOG][StoppingCriterion.H:239] Creating stopping criterion with minIter 907 frequency 8
[OGL LOG][Proc: 0]p: generate_solver: 0.018 [ms]
[OGL LOG][Proc: 0]p: solve: 1711.49 [ms]
[OGL LOG][Proc: 0]p: copy_x_back: 1.694 [ms]
[OGL LOG][lduLduBase.H:330] 
Statistics:
	Time per iteration: 1125 [mu s]
	Time per residual norm calculation: 142.000000 [mu s]
	Time per iteration and DOF: 0.140625 [ns]
	Retrieve results bandwidth 4.722000 [GByte/s]
[OGL LOG][Proc: 0]p: solve_multi_gpu: 1784.68 [ms]
nonedpcppGKOCG:  Solving for p, Initial residual = 0.585983, Final residual = 9.55344e-05, No Iterations 1521
[INFO] SolveP: 1799.41 [ms]
time step continuity errors : sum local = 7.03251e-09, global = -1.1404e-21, cumulative = -2.21529e-20
[INFO] ContinuityError: 14.936 [ms]
[INFO] CorrectBoundary: 0.305 [ms]
[INFO] PISOStep: 1993.51 [ms]
[INFO] MatrixAssemblyPI: 107.826 [ms]
[INFO] AdjustPhi: 9.909 [ms]
[INFO] ConstrainPressure: 0.002 [ms]
[INFO] MatrixAssemblyPII: 34.158 [ms]
[OGL LOG][Proc: 0]: global_index_init: 0.062 [ms]
[OGL LOG][Proc: 0]p_local_coeffs: call_update: 0 [ms]
[OGL LOG][Proc: 0]p_non_local_coeffs: call_update: 0 [ms]
[OGL LOG][Proc: 0]p: update_local_matrix_data: 13.178 [ms]
[OGL LOG][Proc: 0]p: update_non_local_matrix_data: 0.45 [ms]
[OGL LOG][Proc: 0]p: regenerate_distributed_matrix: 65.169 [ms]
[OGL LOG][Proc: 0]p_matrix: call_update: 65.562 [ms]
[OGL LOG][Proc: 0]p_rhs: call_update: 1.335 [ms]
[OGL LOG][Proc: 0]p: init_precond: 0.044 [ms]
[OGL LOG][StoppingCriterion.H:239] Creating stopping criterion with minIter 912 frequency 9
[OGL LOG][Proc: 0]p: generate_solver: 0.021 [ms]
[OGL LOG][Proc: 0]p: solve: 1735.4 [ms]
[OGL LOG][Proc: 0]p: copy_x_back: 1.586 [ms]
[OGL LOG][lduLduBase.H:330] 
Statistics:
	Time per iteration: 1140 [mu s]
	Time per residual norm calculation: 155.000000 [mu s]
	Time per iteration and DOF: 0.142500 [ns]
	Retrieve results bandwidth 5.044000 [GByte/s]
[OGL LOG][Proc: 0]p: solve_multi_gpu: 1805.82 [ms]
nonedpcppGKOCG:  Solving for p, Initial residual = 0.528135, Final residual = 8.54741e-05, No Iterations 1522
[INFO] SolveP: 1822.77 [ms]
time step continuity errors : sum local = 6.27708e-09, global = -2.25973e-21, cumulative = -2.44126e-20
[INFO] ContinuityError: 14.754 [ms]
[INFO] CorrectBoundary: 4.667 [ms]
[INFO] PISOStep: 2027.14 [ms]
[INFO] TimeStep: 4905.23 [ms]
ExecutionTime = 52.11 s  ClockTime = 67 s

Time = 0.00225

Courant Number mean: 0.0444171 max: 0.480369
[INFO] MatrixAssemblyU: 83.168 [ms]
DILUPBiCGStab:  Solving for Ux, Initial residual = 0.0125409, Final residual = 0.000301392, No Iterations 5
DILUPBiCGStab:  Solving for Uy, Initial residual = 0.0334838, Final residual = 0.000894083, No Iterations 5
DILUPBiCGStab:  Solving for Uz, Initial residual = 0.158238, Final residual = 0.00518214, No Iterations 5
[INFO] MomentumPredictor: 785.569 [ms]
[INFO] MatrixAssemblyPI: 101.976 [ms]
[INFO] AdjustPhi: 7.738 [ms]
[INFO] ConstrainPressure: 0.002 [ms]
[INFO] MatrixAssemblyPII: 29.364 [ms]
[OGL LOG][Proc: 0]: global_index_init: 0.109 [ms]
[OGL LOG][Proc: 0]p_local_coeffs: call_update: 0 [ms]
[OGL LOG][Proc: 0]p_non_local_coeffs: call_update: 0 [ms]
[OGL LOG][Proc: 0]p: update_local_matrix_data: 11.167 [ms]
[OGL LOG][Proc: 0]p: update_non_local_matrix_data: 0.393 [ms]
[OGL LOG][Proc: 0]p: regenerate_distributed_matrix: 53.795 [ms]
[OGL LOG][Proc: 0]p_matrix: call_update: 54.173 [ms]
[OGL LOG][Proc: 0]p_rhs: call_update: 1.364 [ms]
[OGL LOG][Proc: 0]p: init_precond: 0.043 [ms]
[OGL LOG][StoppingCriterion.H:239] Creating stopping criterion with minIter 913 frequency 9
[OGL LOG][Proc: 0]p: generate_solver: 0.021 [ms]
[OGL LOG][Proc: 0]p: solve: 1720.06 [ms]
[OGL LOG][Proc: 0]p: copy_x_back: 1.77 [ms]
[OGL LOG][lduLduBase.H:330] 
Statistics:
	Time per iteration: 1143 [mu s]
	Time per residual norm calculation: 143.000000 [mu s]
	Time per iteration and DOF: 0.142875 [ns]
	Retrieve results bandwidth 4.519000 [GByte/s]
[OGL LOG][Proc: 0]p: solve_multi_gpu: 1784.86 [ms]
nonedpcppGKOCG:  Solving for p, Initial residual = 0.57297, Final residual = 9.40729e-05, No Iterations 1504
[INFO] SolveP: 1799.62 [ms]
time step continuity errors : sum local = 6.00201e-09, global = -2.22403e-21, cumulative = -2.66366e-20
[INFO] ContinuityError: 14.215 [ms]
[INFO] CorrectBoundary: 0.289 [ms]
[INFO] PISOStep: 1994.99 [ms]
[INFO] MatrixAssemblyPI: 109.803 [ms]
[INFO] AdjustPhi: 5.788 [ms]
[INFO] ConstrainPressure: 0.003 [ms]
[INFO] MatrixAssemblyPII: 34.172 [ms]
[OGL LOG][Proc: 0]: global_index_init: 0.116 [ms]
[OGL LOG][Proc: 0]p_local_coeffs: call_update: 0 [ms]
[OGL LOG][Proc: 0]p_non_local_coeffs: call_update: 0 [ms]
[OGL LOG][Proc: 0]p: update_local_matrix_data: 10.939 [ms]
[OGL LOG][Proc: 0]p: update_non_local_matrix_data: 0.429 [ms]
[OGL LOG][Proc: 0]p: regenerate_distributed_matrix: 64.56 [ms]
[OGL LOG][Proc: 0]p_matrix: call_update: 65.07 [ms]
[OGL LOG][Proc: 0]p_rhs: call_update: 0.684 [ms]
[OGL LOG][Proc: 0]p: init_precond: 0.04 [ms]
[OGL LOG][StoppingCriterion.H:239] Creating stopping criterion with minIter 902 frequency 9
[OGL LOG][Proc: 0]p: generate_solver: 0.021 [ms]
[OGL LOG][Proc: 0]p: solve: 1709.64 [ms]
[OGL LOG][Proc: 0]p: copy_x_back: 2.471 [ms]
[OGL LOG][lduLduBase.H:330] 
Statistics:
	Time per iteration: 1143 [mu s]
	Time per residual norm calculation: 144.000000 [mu s]
	Time per iteration and DOF: 0.142875 [ns]
	Retrieve results bandwidth 3.237000 [GByte/s]
[OGL LOG][Proc: 0]p: solve_multi_gpu: 1781.09 [ms]
nonedpcppGKOCG:  Solving for p, Initial residual = 0.511877, Final residual = 9.9269e-05, No Iterations 1495
[INFO] SolveP: 1795.77 [ms]
time step continuity errors : sum local = 6.33152e-09, global = -1.90956e-22, cumulative = -2.68276e-20
[INFO] ContinuityError: 14.75 [ms]
[INFO] CorrectBoundary: 0.839 [ms]
[INFO] PISOStep: 1996.01 [ms]
[INFO] TimeStep: 4874.9 [ms]
ExecutionTime = 56.98 s  ClockTime = 72 s

Time = 0.0025

Courant Number mean: 0.0464716 max: 0.481475
[INFO] MatrixAssemblyU: 83.353 [ms]
DILUPBiCGStab:  Solving for Ux, Initial residual = 0.0107879, Final residual = 0.00024243, No Iterations 5
DILUPBiCGStab:  Solving for Uy, Initial residual = 0.0293476, Final residual = 0.00073368, No Iterations 5
DILUPBiCGStab:  Solving for Uz, Initial residual = 0.127518, Final residual = 0.00418098, No Iterations 5
[INFO] MomentumPredictor: 783.809 [ms]
[INFO] MatrixAssemblyPI: 100.693 [ms]
[INFO] AdjustPhi: 7.484 [ms]
[INFO] ConstrainPressure: 0.002 [ms]
[INFO] MatrixAssemblyPII: 29.238 [ms]
[OGL LOG][Proc: 0]: global_index_init: 0.127 [ms]
[OGL LOG][Proc: 0]p_local_coeffs: call_update: 0 [ms]
[OGL LOG][Proc: 0]p_non_local_coeffs: call_update: 0 [ms]
[OGL LOG][Proc: 0]p: update_local_matrix_data: 11.131 [ms]
[OGL LOG][Proc: 0]p: update_non_local_matrix_data: 0.468 [ms]
[OGL LOG][Proc: 0]p: regenerate_distributed_matrix: 62.01 [ms]
[OGL LOG][Proc: 0]p_matrix: call_update: 62.459 [ms]
[OGL LOG][Proc: 0]p_rhs: call_update: 1.128 [ms]
[OGL LOG][Proc: 0]p: init_precond: 0.043 [ms]
[OGL LOG][StoppingCriterion.H:239] Creating stopping criterion with minIter 897 frequency 9
[OGL LOG][Proc: 0]p: generate_solver: 0.017 [ms]
[OGL LOG][Proc: 0]p: solve: 1697.85 [ms]
[OGL LOG][Proc: 0]p: copy_x_back: 1.709 [ms]
[OGL LOG][lduLduBase.H:330] 
Statistics:
	Time per iteration: 1128 [mu s]
	Time per residual norm calculation: 147.000000 [mu s]
	Time per iteration and DOF: 0.141000 [ns]
	Retrieve results bandwidth 4.681000 [GByte/s]
[OGL LOG][Proc: 0]p: solve_multi_gpu: 1768.69 [ms]
nonedpcppGKOCG:  Solving for p, Initial residual = 0.496151, Final residual = 9.50122e-05, No Iterations 1504
[INFO] SolveP: 1783.52 [ms]
time step continuity errors : sum local = 5.88413e-09, global = -6.9056e-22, cumulative = -2.75181e-20
[INFO] ContinuityError: 12.098 [ms]
[INFO] CorrectBoundary: 1.239 [ms]
[INFO] PISOStep: 1970.57 [ms]
[INFO] MatrixAssemblyPI: 99.082 [ms]
[INFO] AdjustPhi: 8.164 [ms]
[INFO] ConstrainPressure: 0.002 [ms]
[INFO] MatrixAssemblyPII: 31.255 [ms]
[OGL LOG][Proc: 0]: global_index_init: 0.053 [ms]
[OGL LOG][Proc: 0]p_local_coeffs: call_update: 0 [ms]
[OGL LOG][Proc: 0]p_non_local_coeffs: call_update: 0 [ms]
[OGL LOG][Proc: 0]p: update_local_matrix_data: 10.865 [ms]
[OGL LOG][Proc: 0]p: update_non_local_matrix_data: 0.423 [ms]
[OGL LOG][Proc: 0]p: regenerate_distributed_matrix: 65.589 [ms]
[OGL LOG][Proc: 0]p_matrix: call_update: 65.995 [ms]
[OGL LOG][Proc: 0]p_rhs: call_update: 0.941 [ms]
[OGL LOG][Proc: 0]p: init_precond: 0.044 [ms]
[OGL LOG][StoppingCriterion.H:239] Creating stopping criterion with minIter 902 frequency 9
[OGL LOG][Proc: 0]p: generate_solver: 0.019 [ms]
[OGL LOG][Proc: 0]p: solve: 1695.5 [ms]
[OGL LOG][Proc: 0]p: copy_x_back: 1.705 [ms]
[OGL LOG][lduLduBase.H:330] 
Statistics:
	Time per iteration: 1134 [mu s]
	Time per residual norm calculation: 143.000000 [mu s]
	Time per iteration and DOF: 0.141750 [ns]
	Retrieve results bandwidth 4.692000 [GByte/s]
[OGL LOG][Proc: 0]p: solve_multi_gpu: 1767.35 [ms]
nonedpcppGKOCG:  Solving for p, Initial residual = 0.44321, Final residual = 9.80245e-05, No Iterations 1495
[INFO] SolveP: 1781.76 [ms]
time step continuity errors : sum local = 6.04442e-09, global = -3.16855e-21, cumulative = -3.06867e-20
[INFO] ContinuityError: 12.512 [ms]
[INFO] CorrectBoundary: 0.772 [ms]
[INFO] PISOStep: 1966.81 [ms]
[INFO] TimeStep: 4818.71 [ms]
ExecutionTime = 61.8 s  ClockTime = 77 s

Time = 0.00275

Courant Number mean: 0.0483595 max: 0.482248
[INFO] MatrixAssemblyU: 82.32 [ms]
DILUPBiCGStab:  Solving for Ux, Initial residual = 0.00966553, Final residual = 0.000204479, No Iterations 5
DILUPBiCGStab:  Solving for Uy, Initial residual = 0.0248272, Final residual = 0.000528858, No Iterations 5
DILUPBiCGStab:  Solving for Uz, Initial residual = 0.106715, Final residual = 0.0039785, No Iterations 5
[INFO] MomentumPredictor: 785.199 [ms]
[INFO] MatrixAssemblyPI: 101.971 [ms]
[INFO] AdjustPhi: 7.006 [ms]
[INFO] ConstrainPressure: 0.002 [ms]
[INFO] MatrixAssemblyPII: 31.057 [ms]
[OGL LOG][Proc: 0]: global_index_init: 0.111 [ms]
[OGL LOG][Proc: 0]p_local_coeffs: call_update: 0 [ms]
[OGL LOG][Proc: 0]p_non_local_coeffs: call_update: 0 [ms]
[OGL LOG][Proc: 0]p: update_local_matrix_data: 15.706 [ms]
[OGL LOG][Proc: 0]p: update_non_local_matrix_data: 0.383 [ms]
[OGL LOG][Proc: 0]p: regenerate_distributed_matrix: 54.085 [ms]
[OGL LOG][Proc: 0]p_matrix: call_update: 54.483 [ms]
[OGL LOG][Proc: 0]p_rhs: call_update: 0.961 [ms]
[OGL LOG][Proc: 0]p: init_precond: 0.043 [ms]
[OGL LOG][StoppingCriterion.H:239] Creating stopping criterion with minIter 897 frequency 9
[OGL LOG][Proc: 0]p: generate_solver: 0.021 [ms]
[OGL LOG][Proc: 0]p: solve: 1706.79 [ms]
[OGL LOG][Proc: 0]p: copy_x_back: 1.675 [ms]
[OGL LOG][lduLduBase.H:330] 
Statistics:
	Time per iteration: 1148 [mu s]
	Time per residual norm calculation: 142.000000 [mu s]
	Time per iteration and DOF: 0.143500 [ns]
	Retrieve results bandwidth 4.776000 [GByte/s]
[OGL LOG][Proc: 0]p: solve_multi_gpu: 1764.93 [ms]
nonedpcppGKOCG:  Solving for p, Initial residual = 0.471689, Final residual = 9.76386e-05, No Iterations 1486
[INFO] SolveP: 1784.37 [ms]
time step continuity errors : sum local = 5.46503e-09, global = -1.74122e-21, cumulative = -3.24279e-20
[INFO] ContinuityError: 15.88 [ms]
[INFO] CorrectBoundary: 0.611 [ms]
[INFO] PISOStep: 1977.73 [ms]
[INFO] MatrixAssemblyPI: 99.545 [ms]
[INFO] AdjustPhi: 14.4 [ms]
[INFO] ConstrainPressure: 0.001 [ms]
[INFO] MatrixAssemblyPII: 32.826 [ms]
[OGL LOG][Proc: 0]: global_index_init: 0.125 [ms]
[OGL LOG][Proc: 0]p_local_coeffs: call_update: 0 [ms]
[OGL LOG][Proc: 0]p_non_local_coeffs: call_update: 0 [ms]
[OGL LOG][Proc: 0]p: update_local_matrix_data: 10.297 [ms]
[OGL LOG][Proc: 0]p: update_non_local_matrix_data: 0.423 [ms]
[OGL LOG][Proc: 0]p: regenerate_distributed_matrix: 65.221 [ms]
[OGL LOG][Proc: 0]p_matrix: call_update: 65.601 [ms]
[OGL LOG][Proc: 0]p_rhs: call_update: 1.826 [ms]
[OGL LOG][Proc: 0]p: init_precond: 0.045 [ms]
[OGL LOG][StoppingCriterion.H:239] Creating stopping criterion with minIter 891 frequency 8
[OGL LOG][Proc: 0]p: generate_solver: 0.021 [ms]
[OGL LOG][Proc: 0]p: solve: 1705.79 [ms]
[OGL LOG][Proc: 0]p: copy_x_back: 1.635 [ms]
[OGL LOG][lduLduBase.H:330] 
Statistics:
	Time per iteration: 1145 [mu s]
	Time per residual norm calculation: 148.000000 [mu s]
	Time per iteration and DOF: 0.143125 [ns]
	Retrieve results bandwidth 4.892000 [GByte/s]
[OGL LOG][Proc: 0]p: solve_multi_gpu: 1781.06 [ms]
nonedpcppGKOCG:  Solving for p, Initial residual = 0.41697, Final residual = 8.65976e-05, No Iterations 1489
[INFO] SolveP: 1795.44 [ms]
time step continuity errors : sum local = 4.85235e-09, global = -7.67275e-22, cumulative = -3.31952e-20
[INFO] ContinuityError: 15.238 [ms]
[INFO] CorrectBoundary: 0.455 [ms]
[INFO] PISOStep: 1995.73 [ms]
[INFO] TimeStep: 4854.72 [ms]
ExecutionTime = 66.66 s  ClockTime = 82 s

Time = 0.003

Courant Number mean: 0.0500919 max: 0.483038
[INFO] MatrixAssemblyU: 82.325 [ms]
DILUPBiCGStab:  Solving for Ux, Initial residual = 0.00857563, Final residual = 0.000170894, No Iterations 5
DILUPBiCGStab:  Solving for Uy, Initial residual = 0.0221855, Final residual = 0.000438783, No Iterations 5
DILUPBiCGStab:  Solving for Uz, Initial residual = 0.088988, Final residual = 0.00332611, No Iterations 5
[INFO] MomentumPredictor: 927.164 [ms]
[INFO] MatrixAssemblyPI: 103.721 [ms]
[INFO] AdjustPhi: 12.968 [ms]
[INFO] ConstrainPressure: 0.002 [ms]
[INFO] MatrixAssemblyPII: 30.314 [ms]
[OGL LOG][Proc: 0]: global_index_init: 0.037 [ms]
[OGL LOG][Proc: 0]p_local_coeffs: call_update: 0 [ms]
[OGL LOG][Proc: 0]p_non_local_coeffs: call_update: 0 [ms]
[OGL LOG][Proc: 0]p: update_local_matrix_data: 11.239 [ms]
[OGL LOG][Proc: 0]p: update_non_local_matrix_data: 0.421 [ms]
[OGL LOG][Proc: 0]p: regenerate_distributed_matrix: 62.05 [ms]
[OGL LOG][Proc: 0]p_matrix: call_update: 62.544 [ms]
[OGL LOG][Proc: 0]p_rhs: call_update: 0.909 [ms]
[OGL LOG][Proc: 0]p: init_precond: 0.043 [ms]
[OGL LOG][StoppingCriterion.H:239] Creating stopping criterion with minIter 893 frequency 9
[OGL LOG][Proc: 0]p: generate_solver: 0.02 [ms]
[OGL LOG][Proc: 0]p: solve: 1691.8 [ms]
[OGL LOG][Proc: 0]p: copy_x_back: 1.723 [ms]
[OGL LOG][lduLduBase.H:330] 
Statistics:
	Time per iteration: 1138 [mu s]
	Time per residual norm calculation: 143.000000 [mu s]
	Time per iteration and DOF: 0.142250 [ns]
	Retrieve results bandwidth 4.643000 [GByte/s]
[OGL LOG][Proc: 0]p: solve_multi_gpu: 1762.45 [ms]
nonedpcppGKOCG:  Solving for p, Initial residual = 0.414495, Final residual = 9.95466e-05, No Iterations 1486
[INFO] SolveP: 1777.94 [ms]
time step continuity errors : sum local = 5.41455e-09, global = -1.30857e-21, cumulative = -3.45037e-20
[INFO] ContinuityError: 15.374 [ms]
[INFO] CorrectBoundary: 1.63 [ms]
[INFO] PISOStep: 1981.99 [ms]
[INFO] MatrixAssemblyPI: 101.616 [ms]
[INFO] AdjustPhi: 14.939 [ms]
[INFO] ConstrainPressure: 0.002 [ms]
[INFO] MatrixAssemblyPII: 32.69 [ms]
[OGL LOG][Proc: 0]: global_index_init: 0.085 [ms]
[OGL LOG][Proc: 0]p_local_coeffs: call_update: 0 [ms]
[OGL LOG][Proc: 0]p_non_local_coeffs: call_update: 0 [ms]
[OGL LOG][Proc: 0]p: update_local_matrix_data: 12.783 [ms]
[OGL LOG][Proc: 0]p: update_non_local_matrix_data: 0.436 [ms]
[OGL LOG][Proc: 0]p: regenerate_distributed_matrix: 65.715 [ms]
[OGL LOG][Proc: 0]p_matrix: call_update: 66.102 [ms]
[OGL LOG][Proc: 0]p_rhs: call_update: 2.121 [ms]
[OGL LOG][Proc: 0]p: init_precond: 0.044 [ms]
[OGL LOG][StoppingCriterion.H:239] Creating stopping criterion with minIter 891 frequency 9
[OGL LOG][Proc: 0]p: generate_solver: 0.02 [ms]
[OGL LOG][Proc: 0]p: solve: 1693.23 [ms]
[OGL LOG][Proc: 0]p: copy_x_back: 1.706 [ms]
[OGL LOG][lduLduBase.H:330] 
Statistics:
	Time per iteration: 1139 [mu s]
	Time per residual norm calculation: 145.000000 [mu s]
	Time per iteration and DOF: 0.142375 [ns]
	Retrieve results bandwidth 4.689000 [GByte/s]
[OGL LOG][Proc: 0]p: solve_multi_gpu: 1766.4 [ms]
nonedpcppGKOCG:  Solving for p, Initial residual = 0.367628, Final residual = 9.51554e-05, No Iterations 1486
[INFO] SolveP: 1782.76 [ms]
time step continuity errors : sum local = 5.15243e-09, global = -3.708e-21, cumulative = -3.82117e-20
[INFO] ContinuityError: 13.481 [ms]
[INFO] CorrectBoundary: 0.281 [ms]
[INFO] PISOStep: 1986.57 [ms]
[INFO] TimeStep: 4992.83 [ms]
ExecutionTime = 71.65 s  ClockTime = 87 s

Time = 0.00325

Courant Number mean: 0.051701 max: 0.483603
[INFO] MatrixAssemblyU: 86.339 [ms]
DILUPBiCGStab:  Solving for Ux, Initial residual = 0.00778583, Final residual = 0.000146896, No Iterations 5
DILUPBiCGStab:  Solving for Uy, Initial residual = 0.0194171, Final residual = 0.000338962, No Iterations 5
DILUPBiCGStab:  Solving for Uz, Initial residual = 0.0761039, Final residual = 0.00311868, No Iterations 5
[INFO] MomentumPredictor: 805.125 [ms]
[INFO] MatrixAssemblyPI: 101.757 [ms]
[INFO] AdjustPhi: 5.711 [ms]
[INFO] ConstrainPressure: 0.002 [ms]
[INFO] MatrixAssemblyPII: 29.232 [ms]
[OGL LOG][Proc: 0]: global_index_init: 0.061 [ms]
[OGL LOG][Proc: 0]p_local_coeffs: call_update: 0 [ms]
[OGL LOG][Proc: 0]p_non_local_coeffs: call_update: 0 [ms]
[OGL LOG][Proc: 0]p: update_local_matrix_data: 11.194 [ms]
[OGL LOG][Proc: 0]p: update_non_local_matrix_data: 0.42 [ms]
[OGL LOG][Proc: 0]p: regenerate_distributed_matrix: 53.405 [ms]
[OGL LOG][Proc: 0]p_matrix: call_update: 53.983 [ms]
[OGL LOG][Proc: 0]p_rhs: call_update: 0.903 [ms]
[OGL LOG][Proc: 0]p: init_precond: 0.044 [ms]
[OGL LOG][StoppingCriterion.H:239] Creating stopping criterion with minIter 891 frequency 9
[OGL LOG][Proc: 0]p: generate_solver: 0.02 [ms]
[OGL LOG][Proc: 0]p: solve: 1712.4 [ms]
[OGL LOG][Proc: 0]p: copy_x_back: 1.688 [ms]
[OGL LOG][lduLduBase.H:330] 
Statistics:
	Time per iteration: 1152 [mu s]
	Time per residual norm calculation: 151.000000 [mu s]
	Time per iteration and DOF: 0.144000 [ns]
	Retrieve results bandwidth 4.739000 [GByte/s]
[OGL LOG][Proc: 0]p: solve_multi_gpu: 1774.49 [ms]
nonedpcppGKOCG:  Solving for p, Initial residual = 0.383815, Final residual = 9.27869e-05, No Iterations 1486
[INFO] SolveP: 1789.26 [ms]
time step continuity errors : sum local = 4.7193e-09, global = -1.44894e-21, cumulative = -3.96607e-20
[INFO] ContinuityError: 12.685 [ms]
[INFO] CorrectBoundary: 0.308 [ms]
[INFO] PISOStep: 1976.15 [ms]
[INFO] MatrixAssemblyPI: 98.482 [ms]
[INFO] AdjustPhi: 7.727 [ms]
[INFO] ConstrainPressure: 0.001 [ms]
[INFO] MatrixAssemblyPII: 31.743 [ms]
[OGL LOG][Proc: 0]: global_index_init: 0.043 [ms]
[OGL LOG][Proc: 0]p_local_coeffs: call_update: 0 [ms]
[OGL LOG][Proc: 0]p_non_local_coeffs: call_update: 0 [ms]
[OGL LOG][Proc: 0]p: update_local_matrix_data: 10.851 [ms]
[OGL LOG][Proc: 0]p: update_non_local_matrix_data: 0.391 [ms]
[OGL LOG][Proc: 0]p: regenerate_distributed_matrix: 58.483 [ms]
[OGL LOG][Proc: 0]p_matrix: call_update: 58.939 [ms]
[OGL LOG][Proc: 0]p_rhs: call_update: 1.277 [ms]
[OGL LOG][Proc: 0]p: init_precond: 0.048 [ms]
[OGL LOG][StoppingCriterion.H:239] Creating stopping criterion with minIter 891 frequency 9
[OGL LOG][Proc: 0]p: generate_solver: 0.019 [ms]
[OGL LOG][Proc: 0]p: solve: 1692.08 [ms]
[OGL LOG][Proc: 0]p: copy_x_back: 1.669 [ms]
[OGL LOG][lduLduBase.H:330] 
Statistics:
	Time per iteration: 1138 [mu s]
	Time per residual norm calculation: 159.000000 [mu s]
	Time per iteration and DOF: 0.142250 [ns]
	Retrieve results bandwidth 4.793000 [GByte/s]
[OGL LOG][Proc: 0]p: solve_multi_gpu: 1759.65 [ms]
nonedpcppGKOCG:  Solving for p, Initial residual = 0.337422, Final residual = 9.23485e-05, No Iterations 1486
[INFO] SolveP: 1774.1 [ms]
time step continuity errors : sum local = 4.70324e-09, global = -6.22497e-21, cumulative = -4.58856e-20
[INFO] ContinuityError: 14.05 [ms]
[INFO] CorrectBoundary: 0.286 [ms]
[INFO] PISOStep: 1966.38 [ms]
[INFO] TimeStep: 4847.87 [ms]
ExecutionTime = 76.5 s  ClockTime = 91 s

Time = 0.0035

Courant Number mean: 0.0531952 max: 0.484199
[INFO] MatrixAssemblyU: 86.913 [ms]
DILUPBiCGStab:  Solving for Ux, Initial residual = 0.00705319, Final residual = 0.00012628, No Iterations 5
DILUPBiCGStab:  Solving for Uy, Initial residual = 0.017612, Final residual = 0.000281014, No Iterations 5
DILUPBiCGStab:  Solving for Uz, Initial residual = 0.0654458, Final residual = 0.00267958, No Iterations 5
[INFO] MomentumPredictor: 931.558 [ms]
[INFO] MatrixAssemblyPI: 104.23 [ms]
[INFO] AdjustPhi: 6.456 [ms]
[INFO] ConstrainPressure: 0.002 [ms]
[INFO] MatrixAssemblyPII: 29.309 [ms]
[OGL LOG][Proc: 0]: global_index_init: 0.065 [ms]
[OGL LOG][Proc: 0]p_local_coeffs: call_update: 0 [ms]
[OGL LOG][Proc: 0]p_non_local_coeffs: call_update: 0 [ms]
[OGL LOG][Proc: 0]p: update_local_matrix_data: 11.191 [ms]
[OGL LOG][Proc: 0]p: update_non_local_matrix_data: 0.449 [ms]
[OGL LOG][Proc: 0]p: regenerate_distributed_matrix: 54.563 [ms]
[OGL LOG][Proc: 0]p_matrix: call_update: 54.971 [ms]
[OGL LOG][Proc: 0]p_rhs: call_update: 1.84 [ms]
[OGL LOG][Proc: 0]p: init_precond: 0.042 [ms]
[OGL LOG][StoppingCriterion.H:239] Creating stopping criterion with minIter 891 frequency 9
[OGL LOG][Proc: 0]p: generate_solver: 0.021 [ms]
[OGL LOG][Proc: 0]p: solve: 1701.76 [ms]
[OGL LOG][Proc: 0]p: copy_x_back: 1.643 [ms]
[OGL LOG][lduLduBase.H:330] 
Statistics:
	Time per iteration: 1145 [mu s]
	Time per residual norm calculation: 145.000000 [mu s]
	Time per iteration and DOF: 0.143125 [ns]
	Retrieve results bandwidth 4.869000 [GByte/s]
[OGL LOG][Proc: 0]p: solve_multi_gpu: 1766.11 [ms]
nonedpcppGKOCG:  Solving for p, Initial residual = 0.342075, Final residual = 8.61544e-05, No Iterations 1486
[INFO] SolveP: 1781.16 [ms]
time step continuity errors : sum local = 4.24007e-09, global = -4.43359e-21, cumulative = -5.03192e-20
[INFO] ContinuityError: 15.746 [ms]
[INFO] CorrectBoundary: 3.594 [ms]
[INFO] PISOStep: 1976.8 [ms]
[INFO] MatrixAssemblyPI: 99.295 [ms]
[INFO] AdjustPhi: 13.953 [ms]
[INFO] ConstrainPressure: 0.002 [ms]
[INFO] MatrixAssemblyPII: 31.704 [ms]
[OGL LOG][Proc: 0]: global_index_init: 0.092 [ms]
[OGL LOG][Proc: 0]p_local_coeffs: call_update: 0 [ms]
[OGL LOG][Proc: 0]p_non_local_coeffs: call_update: 0 [ms]
[OGL LOG][Proc: 0]p: update_local_matrix_data: 13.034 [ms]
[OGL LOG][Proc: 0]p: update_non_local_matrix_data: 0.434 [ms]
[OGL LOG][Proc: 0]p: regenerate_distributed_matrix: 66.451 [ms]
[OGL LOG][Proc: 0]p_matrix: call_update: 66.852 [ms]
[OGL LOG][Proc: 0]p_rhs: call_update: 1.426 [ms]
[OGL LOG][Proc: 0]p: init_precond: 0.041 [ms]
[OGL LOG][StoppingCriterion.H:239] Creating stopping criterion with minIter 891 frequency 9
[OGL LOG][Proc: 0]p: generate_solver: 0.018 [ms]
[OGL LOG][Proc: 0]p: solve: 1712.01 [ms]
[OGL LOG][Proc: 0]p: copy_x_back: 1.639 [ms]
[OGL LOG][lduLduBase.H:330] 
Statistics:
	Time per iteration: 1152 [mu s]
	Time per residual norm calculation: 143.000000 [mu s]
	Time per iteration and DOF: 0.144000 [ns]
	Retrieve results bandwidth 4.881000 [GByte/s]
[OGL LOG][Proc: 0]p: solve_multi_gpu: 1784.75 [ms]
nonedpcppGKOCG:  Solving for p, Initial residual = 0.302278, Final residual = 8.73629e-05, No Iterations 1486
[INFO] SolveP: 1801.51 [ms]
time step continuity errors : sum local = 4.28227e-09, global = -3.06519e-22, cumulative = -5.06258e-20
[INFO] ContinuityError: 14.389 [ms]
[INFO] CorrectBoundary: 0.449 [ms]
[INFO] PISOStep: 1996.6 [ms]
[INFO] TimeStep: 5006.34 [ms]
ExecutionTime = 81.51 s  ClockTime = 96 s

Time = 0.00375

Courant Number mean: 0.0545956 max: 0.484637
[INFO] MatrixAssemblyU: 85.339 [ms]
DILUPBiCGStab:  Solving for Ux, Initial residual = 0.00646989, Final residual = 0.000110081, No Iterations 5
DILUPBiCGStab:  Solving for Uy, Initial residual = 0.0157813, Final residual = 0.000234424, No Iterations 5
DILUPBiCGStab:  Solving for Uz, Initial residual = 0.0567274, Final residual = 0.00245701, No Iterations 5
[INFO] MomentumPredictor: 825.522 [ms]
[INFO] MatrixAssemblyPI: 102.285 [ms]
[INFO] AdjustPhi: 6.392 [ms]
[INFO] ConstrainPressure: 0.001 [ms]
[INFO] MatrixAssemblyPII: 29.181 [ms]
[OGL LOG][Proc: 0]: global_index_init: 0.02 [ms]
[OGL LOG][Proc: 0]p_local_coeffs: call_update: 0 [ms]
[OGL LOG][Proc: 0]p_non_local_coeffs: call_update: 0 [ms]
[OGL LOG][Proc: 0]p: update_local_matrix_data: 11.148 [ms]
[OGL LOG][Proc: 0]p: update_non_local_matrix_data: 0.441 [ms]
[OGL LOG][Proc: 0]p: regenerate_distributed_matrix: 55.254 [ms]
[OGL LOG][Proc: 0]p_matrix: call_update: 55.886 [ms]
[OGL LOG][Proc: 0]p_rhs: call_update: 0.806 [ms]
[OGL LOG][Proc: 0]p: init_precond: 0.043 [ms]
[OGL LOG][StoppingCriterion.H:239] Creating stopping criterion with minIter 891 frequency 8
[OGL LOG][Proc: 0]p: generate_solver: 0.022 [ms]
[OGL LOG][Proc: 0]p: solve: 1684.47 [ms]
[OGL LOG][Proc: 0]p: copy_x_back: 1.715 [ms]
[OGL LOG][lduLduBase.H:330] 
Statistics:
	Time per iteration: 1137 [mu s]
	Time per residual norm calculation: 157.000000 [mu s]
	Time per iteration and DOF: 0.142125 [ns]
	Retrieve results bandwidth 4.664000 [GByte/s]
[OGL LOG][Proc: 0]p: solve_multi_gpu: 1748.44 [ms]
nonedpcppGKOCG:  Solving for p, Initial residual = 0.30982, Final residual = 9.75213e-05, No Iterations 1481
[INFO] SolveP: 1763.17 [ms]
time step continuity errors : sum local = 4.6083e-09, global = -2.04039e-21, cumulative = -5.26662e-20
[INFO] ContinuityError: 12.523 [ms]
[INFO] CorrectBoundary: 0.303 [ms]
[INFO] PISOStep: 1950.9 [ms]
[INFO] MatrixAssemblyPI: 98.989 [ms]
[INFO] AdjustPhi: 8.172 [ms]
[INFO] ConstrainPressure: 0.002 [ms]
[INFO] MatrixAssemblyPII: 31.703 [ms]
[OGL LOG][Proc: 0]: global_index_init: 0.058 [ms]
[OGL LOG][Proc: 0]p_local_coeffs: call_update: 0 [ms]
[OGL LOG][Proc: 0]p_non_local_coeffs: call_update: 0 [ms]
[OGL LOG][Proc: 0]p: update_local_matrix_data: 10.815 [ms]
[OGL LOG][Proc: 0]p: update_non_local_matrix_data: 0.426 [ms]
[OGL LOG][Proc: 0]p: regenerate_distributed_matrix: 57.972 [ms]
[OGL LOG][Proc: 0]p_matrix: call_update: 58.348 [ms]
[OGL LOG][Proc: 0]p_rhs: call_update: 1.675 [ms]
[OGL LOG][Proc: 0]p: init_precond: 0.041 [ms]
[OGL LOG][StoppingCriterion.H:239] Creating stopping criterion with minIter 888 frequency 9
[OGL LOG][Proc: 0]p: generate_solver: 0.02 [ms]
[OGL LOG][Proc: 0]p: solve: 1702.67 [ms]
[OGL LOG][Proc: 0]p: copy_x_back: 1.593 [ms]
[OGL LOG][lduLduBase.H:330] 
Statistics:
	Time per iteration: 1145 [mu s]
	Time per residual norm calculation: 143.000000 [mu s]
	Time per iteration and DOF: 0.143125 [ns]
	Retrieve results bandwidth 5.021000 [GByte/s]
[OGL LOG][Proc: 0]p: solve_multi_gpu: 1768.94 [ms]
nonedpcppGKOCG:  Solving for p, Initial residual = 0.271645, Final residual = 7.58911e-05, No Iterations 1486
[INFO] SolveP: 1783.95 [ms]
time step continuity errors : sum local = 3.59033e-09, global = -1.63107e-21, cumulative = -5.42972e-20
[INFO] ContinuityError: 14.744 [ms]
[INFO] CorrectBoundary: 0.496 [ms]
[INFO] PISOStep: 1975.52 [ms]
[INFO] TimeStep: 4855.74 [ms]
ExecutionTime = 86.35 s  ClockTime = 101 s

Time = 0.004

Courant Number mean: 0.0559077 max: 0.485102
[INFO] MatrixAssemblyU: 85.16 [ms]
DILUPBiCGStab:  Solving for Ux, Initial residual = 0.00594772, Final residual = 9.66496e-05, No Iterations 5
DILUPBiCGStab:  Solving for Uy, Initial residual = 0.0144874, Final residual = 0.000196462, No Iterations 5
DILUPBiCGStab:  Solving for Uz, Initial residual = 0.0499446, Final residual = 0.00213895, No Iterations 5
[INFO] MomentumPredictor: 926.228 [ms]
[INFO] MatrixAssemblyPI: 104.189 [ms]
[INFO] AdjustPhi: 11.754 [ms]
[INFO] ConstrainPressure: 0.002 [ms]
[INFO] MatrixAssemblyPII: 30.801 [ms]
[OGL LOG][Proc: 0]: global_index_init: 0.046 [ms]
[OGL LOG][Proc: 0]p_local_coeffs: call_update: 0 [ms]
[OGL LOG][Proc: 0]p_non_local_coeffs: call_update: 0 [ms]
[OGL LOG][Proc: 0]p: update_local_matrix_data: 10.973 [ms]
[OGL LOG][Proc: 0]p: update_non_local_matrix_data: 0.434 [ms]
[OGL LOG][Proc: 0]p: regenerate_distributed_matrix: 61.812 [ms]
[OGL LOG][Proc: 0]p_matrix: call_update: 62.437 [ms]
[OGL LOG][Proc: 0]p_rhs: call_update: 0.916 [ms]
[OGL LOG][Proc: 0]p: init_precond: 0.042 [ms]
[OGL LOG][StoppingCriterion.H:239] Creating stopping criterion with minIter 891 frequency 8
[OGL LOG][Proc: 0]p: generate_solver: 0.021 [ms]
[OGL LOG][Proc: 0]p: solve: 1597.59 [ms]
[OGL LOG][Proc: 0]p: copy_x_back: 1.761 [ms]
[OGL LOG][lduLduBase.H:330] 
Statistics:
	Time per iteration: 1133 [mu s]
	Time per residual norm calculation: 167.000000 [mu s]
	Time per iteration and DOF: 0.141625 [ns]
	Retrieve results bandwidth 4.542000 [GByte/s]
[OGL LOG][Proc: 0]p: solve_multi_gpu: 1668.45 [ms]
nonedpcppGKOCG:  Solving for p, Initial residual = 0.279396, Final residual = 8.54778e-05, No Iterations 1409
[INFO] SolveP: 1683.06 [ms]
time step continuity errors : sum local = 3.89301e-09, global = -4.722e-21, cumulative = -5.90192e-20
[INFO] ContinuityError: 12.42 [ms]
[INFO] CorrectBoundary: 0.307 [ms]
[INFO] PISOStep: 1877.7 [ms]
[INFO] MatrixAssemblyPI: 98.668 [ms]
[INFO] AdjustPhi: 8.617 [ms]
[INFO] ConstrainPressure: 0.002 [ms]
[INFO] MatrixAssemblyPII: 31.71 [ms]
[OGL LOG][Proc: 0]: global_index_init: 0.103 [ms]
[OGL LOG][Proc: 0]p_local_coeffs: call_update: 0 [ms]
[OGL LOG][Proc: 0]p_non_local_coeffs: call_update: 0 [ms]
[OGL LOG][Proc: 0]p: update_local_matrix_data: 12.89 [ms]
[OGL LOG][Proc: 0]p: update_non_local_matrix_data: 0.435 [ms]
[OGL LOG][Proc: 0]p: regenerate_distributed_matrix: 57.176 [ms]
[OGL LOG][Proc: 0]p_matrix: call_update: 57.574 [ms]
[OGL LOG][Proc: 0]p_rhs: call_update: 2.048 [ms]
[OGL LOG][Proc: 0]p: init_precond: 0.038 [ms]
[OGL LOG][StoppingCriterion.H:239] Creating stopping criterion with minIter 845 frequency 9
[OGL LOG][Proc: 0]p: generate_solver: 0.015 [ms]
[OGL LOG][Proc: 0]p: solve: 1687.1 [ms]
[OGL LOG][Proc: 0]p: copy_x_back: 1.655 [ms]
[OGL LOG][lduLduBase.H:330] 
Statistics:
	Time per iteration: 1149 [mu s]
	Time per residual norm calculation: 174.000000 [mu s]
	Time per iteration and DOF: 0.143625 [ns]
	Retrieve results bandwidth 4.833000 [GByte/s]
[OGL LOG][Proc: 0]p: solve_multi_gpu: 1751.89 [ms]
nonedpcppGKOCG:  Solving for p, Initial residual = 0.246096, Final residual = 9.93494e-05, No Iterations 1468
[INFO] SolveP: 1768.71 [ms]
time step continuity errors : sum local = 4.50994e-09, global = -4.53188e-21, cumulative = -6.35511e-20
[INFO] ContinuityError: 14.845 [ms]
[INFO] CorrectBoundary: 0.609 [ms]
[INFO] PISOStep: 1960.45 [ms]
[INFO] TimeStep: 4863.85 [ms]
ExecutionTime = 91.22 s  ClockTime = 106 s

Time = 0.00425

Courant Number mean: 0.0571444 max: 0.485457
[INFO] MatrixAssemblyU: 85.252 [ms]
DILUPBiCGStab:  Solving for Ux, Initial residual = 0.00550198, Final residual = 8.50698e-05, No Iterations 5
DILUPBiCGStab:  Solving for Uy, Initial residual = 0.0131988, Final residual = 0.000174438, No Iterations 5
DILUPBiCGStab:  Solving for Uz, Initial residual = 0.0440422, Final residual = 0.00193688, No Iterations 5
[INFO] MomentumPredictor: 844.321 [ms]
[INFO] MatrixAssemblyPI: 102.511 [ms]
[INFO] AdjustPhi: 6.108 [ms]
[INFO] ConstrainPressure: 0.002 [ms]
[INFO] MatrixAssemblyPII: 29.163 [ms]
[OGL LOG][Proc: 0]: global_index_init: 0.078 [ms]
[OGL LOG][Proc: 0]p_local_coeffs: call_update: 0 [ms]
[OGL LOG][Proc: 0]p_non_local_coeffs: call_update: 0 [ms]
[OGL LOG][Proc: 0]p: update_local_matrix_data: 11.198 [ms]
[OGL LOG][Proc: 0]p: update_non_local_matrix_data: 0.41 [ms]
[OGL LOG][Proc: 0]p: regenerate_distributed_matrix: 53.462 [ms]
[OGL LOG][Proc: 0]p_matrix: call_update: 53.974 [ms]
[OGL LOG][Proc: 0]p_rhs: call_update: 0.808 [ms]
[OGL LOG][Proc: 0]p: init_precond: 0.043 [ms]
[OGL LOG][StoppingCriterion.H:239] Creating stopping criterion with minIter 880 frequency 9
[OGL LOG][Proc: 0]p: generate_solver: 0.021 [ms]
[OGL LOG][Proc: 0]p: solve: 1002.38 [ms]
[OGL LOG][Proc: 0]p: copy_x_back: 1.67 [ms]
[OGL LOG][lduLduBase.H:330] 
Statistics:
	Time per iteration: 1135 [mu s]
	Time per residual norm calculation: 155.000000 [mu s]
	Time per iteration and DOF: 0.141875 [ns]
	Retrieve results bandwidth 4.790000 [GByte/s]
[OGL LOG][Proc: 0]p: solve_multi_gpu: 1064.43 [ms]
nonedpcppGKOCG:  Solving for p, Initial residual = 0.249294, Final residual = 5.11142e-05, No Iterations 883
[INFO] SolveP: 1079.88 [ms]
time step continuity errors : sum local = 2.42188e-09, global = -1.71619e-21, cumulative = -6.52673e-20
[INFO] ContinuityError: 13.905 [ms]
[INFO] CorrectBoundary: 0.44 [ms]
[INFO] PISOStep: 1269.23 [ms]
[INFO] MatrixAssemblyPI: 99.034 [ms]
[INFO] AdjustPhi: 8.278 [ms]
[INFO] ConstrainPressure: 0.002 [ms]
[INFO] MatrixAssemblyPII: 31.696 [ms]
[OGL LOG][Proc: 0]: global_index_init: 0.043 [ms]
[OGL LOG][Proc: 0]p_local_coeffs: call_update: 0 [ms]
[OGL LOG][Proc: 0]p_non_local_coeffs: call_update: 0 [ms]
[OGL LOG][Proc: 0]p: update_local_matrix_data: 11.021 [ms]
[OGL LOG][Proc: 0]p: update_non_local_matrix_data: 0.427 [ms]
[OGL LOG][Proc: 0]p: regenerate_distributed_matrix: 58.297 [ms]
[OGL LOG][Proc: 0]p_matrix: call_update: 58.684 [ms]
[OGL LOG][Proc: 0]p_rhs: call_update: 1.271 [ms]
[OGL LOG][Proc: 0]p: init_precond: 0.044 [ms]
[OGL LOG][StoppingCriterion.H:239] Creating stopping criterion with minIter 529 frequency 7
[OGL LOG][Proc: 0]p: generate_solver: 0.019 [ms]
[OGL LOG][Proc: 0]p: solve: 779.471 [ms]
[OGL LOG][Proc: 0]p: copy_x_back: 1.699 [ms]
[OGL LOG][lduLduBase.H:330] 
Statistics:
	Time per iteration: 1170 [mu s]
	Time per residual norm calculation: 142.000000 [mu s]
	Time per iteration and DOF: 0.146250 [ns]
	Retrieve results bandwidth 4.708000 [GByte/s]
[OGL LOG][Proc: 0]p: solve_multi_gpu: 845.751 [ms]
nonedpcppGKOCG:  Solving for p, Initial residual = 0.217974, Final residual = 9.66338e-05, No Iterations 666
[INFO] SolveP: 860.416 [ms]
time step continuity errors : sum local = 4.35886e-09, global = -1.76987e-21, cumulative = -6.70372e-20
[INFO] ContinuityError: 12.894 [ms]
[INFO] CorrectBoundary: 0.321 [ms]
[INFO] PISOStep: 1047.03 [ms]
[INFO] TimeStep: 3260.29 [ms]
ExecutionTime = 94.47 s  ClockTime = 109 s

Time = 0.0045

Courant Number mean: 0.0583118 max: 0.48583
[INFO] MatrixAssemblyU: 85.387 [ms]
DILUPBiCGStab:  Solving for Ux, Initial residual = 0.00511436, Final residual = 7.58602e-05, No Iterations 5
DILUPBiCGStab:  Solving for Uy, Initial residual = 0.0122356, Final residual = 0.000149613, No Iterations 5
DILUPBiCGStab:  Solving for Uz, Initial residual = 0.0392606, Final residual = 0.00167451, No Iterations 5
[INFO] MomentumPredictor: 783.941 [ms]
[INFO] MatrixAssemblyPI: 103.581 [ms]
[INFO] AdjustPhi: 5.734 [ms]
[INFO] ConstrainPressure: 0.002 [ms]
[INFO] MatrixAssemblyPII: 29.327 [ms]
[OGL LOG][Proc: 0]: global_index_init: 0.095 [ms]
[OGL LOG][Proc: 0]p_local_coeffs: call_update: 0 [ms]
[OGL LOG][Proc: 0]p_non_local_coeffs: call_update: 0 [ms]
[OGL LOG][Proc: 0]p: update_local_matrix_data: 11.371 [ms]
[OGL LOG][Proc: 0]p: update_non_local_matrix_data: 0.459 [ms]
[OGL LOG][Proc: 0]p: regenerate_distributed_matrix: 53.649 [ms]
[OGL LOG][Proc: 0]p_matrix: call_update: 54.264 [ms]
[OGL LOG][Proc: 0]p_rhs: call_update: 1.069 [ms]
[OGL LOG][Proc: 0]p: init_precond: 0.041 [ms]
[OGL LOG][StoppingCriterion.H:239] Creating stopping criterion with minIter 399 frequency 5
[OGL LOG][Proc: 0]p: generate_solver: 0.021 [ms]
[OGL LOG][Proc: 0]p: solve: 822.263 [ms]
[OGL LOG][Proc: 0]p: copy_x_back: 1.783 [ms]
[OGL LOG][lduLduBase.H:330] 
Statistics:
	Time per iteration: 1156 [mu s]
	Time per residual norm calculation: 146.000000 [mu s]
	Time per iteration and DOF: 0.144500 [ns]
	Retrieve results bandwidth 4.486000 [GByte/s]
[OGL LOG][Proc: 0]p: solve_multi_gpu: 885.271 [ms]
nonedpcppGKOCG:  Solving for p, Initial residual = 0.226166, Final residual = 9.86793e-05, No Iterations 711
[INFO] SolveP: 900.372 [ms]
time step continuity errors : sum local = 4.6085e-09, global = -5.1098e-21, cumulative = -7.2147e-20
[INFO] ContinuityError: 13.232 [ms]
[INFO] CorrectBoundary: 0.837 [ms]
[INFO] PISOStep: 1089.76 [ms]
[INFO] MatrixAssemblyPI: 99.4 [ms]
[INFO] AdjustPhi: 8.336 [ms]
[INFO] ConstrainPressure: 0.002 [ms]
[INFO] MatrixAssemblyPII: 31.691 [ms]
[OGL LOG][Proc: 0]: global_index_init: 0.081 [ms]
[OGL LOG][Proc: 0]p_local_coeffs: call_update: 0 [ms]
[OGL LOG][Proc: 0]p_non_local_coeffs: call_update: 0 [ms]
[OGL LOG][Proc: 0]p: update_local_matrix_data: 12.966 [ms]
[OGL LOG][Proc: 0]p: update_non_local_matrix_data: 0.399 [ms]
[OGL LOG][Proc: 0]p: regenerate_distributed_matrix: 57.115 [ms]
[OGL LOG][Proc: 0]p_matrix: call_update: 57.49 [ms]
[OGL LOG][Proc: 0]p_rhs: call_update: 1.661 [ms]
[OGL LOG][Proc: 0]p: init_precond: 0.04 [ms]
[OGL LOG][StoppingCriterion.H:239] Creating stopping criterion with minIter 426 frequency 6
[OGL LOG][Proc: 0]p: generate_solver: 0.02 [ms]
[OGL LOG][Proc: 0]p: solve: 807.495 [ms]
[OGL LOG][Proc: 0]p: copy_x_back: 1.576 [ms]
[OGL LOG][lduLduBase.H:330] 
Statistics:
	Time per iteration: 1158 [mu s]
	Time per residual norm calculation: 138.000000 [mu s]
	Time per iteration and DOF: 0.144750 [ns]
	Retrieve results bandwidth 5.076000 [GByte/s]
[OGL LOG][Proc: 0]p: solve_multi_gpu: 872.735 [ms]
nonedpcppGKOCG:  Solving for p, Initial residual = 0.198524, Final residual = 9.54384e-05, No Iterations 697
[INFO] SolveP: 889.386 [ms]
time step continuity errors : sum local = 4.19298e-09, global = -4.03588e-21, cumulative = -7.61829e-20
[INFO] ContinuityError: 12.078 [ms]
[INFO] CorrectBoundary: 0.302 [ms]
[INFO] PISOStep: 1075.48 [ms]
[INFO] TimeStep: 3048.24 [ms]
ExecutionTime = 97.52 s  ClockTime = 112 s

Time = 0.00475

Courant Number mean: 0.0594174 max: 0.486127
[INFO] MatrixAssemblyU: 85.491 [ms]
DILUPBiCGStab:  Solving for Ux, Initial residual = 0.00476051, Final residual = 6.7257e-05, No Iterations 5
DILUPBiCGStab:  Solving for Uy, Initial residual = 0.0113048, Final residual = 0.00013764, No Iterations 5
DILUPBiCGStab:  Solving for Uz, Initial residual = 0.035604, Final residual = 0.00150827, No Iterations 5
[INFO] MomentumPredictor: 783.426 [ms]
[INFO] MatrixAssemblyPI: 102.961 [ms]
[INFO] AdjustPhi: 5.735 [ms]
[INFO] ConstrainPressure: 0.002 [ms]
[INFO] MatrixAssemblyPII: 30.094 [ms]
[OGL LOG][Proc: 0]: global_index_init: 0.022 [ms]
[OGL LOG][Proc: 0]p_local_coeffs: call_update: 0 [ms]
[OGL LOG][Proc: 0]p_non_local_coeffs: call_update: 0 [ms]
[OGL LOG][Proc: 0]p: update_local_matrix_data: 11.643 [ms]
[OGL LOG][Proc: 0]p: update_non_local_matrix_data: 0.466 [ms]
[OGL LOG][Proc: 0]p: regenerate_distributed_matrix: 53.228 [ms]
[OGL LOG][Proc: 0]p_matrix: call_update: 53.622 [ms]
[OGL LOG][Proc: 0]p_rhs: call_update: 1.459 [ms]
[OGL LOG][Proc: 0]p: init_precond: 0.041 [ms]
[OGL LOG][StoppingCriterion.H:239] Creating stopping criterion with minIter 418 frequency 5
[OGL LOG][Proc: 0]p: generate_solver: 0.021 [ms]
[OGL LOG][Proc: 0]p: solve: 1701.51 [ms]
[OGL LOG][Proc: 0]p: copy_x_back: 2.383 [ms]
[OGL LOG][lduLduBase.H:330] 
Statistics:
	Time per iteration: 1152 [mu s]
	Time per residual norm calculation: 142.000000 [mu s]
	Time per iteration and DOF: 0.144000 [ns]
	Retrieve results bandwidth 3.357000 [GByte/s]
[OGL LOG][Proc: 0]p: solve_multi_gpu: 1764.26 [ms]
nonedpcppGKOCG:  Solving for p, Initial residual = 0.200693, Final residual = 8.20903e-05, No Iterations 1476
[INFO] SolveP: 1779.95 [ms]
time step continuity errors : sum local = 3.49163e-09, global = -6.13946e-21, cumulative = -8.23223e-20
[INFO] ContinuityError: 13.545 [ms]
[INFO] CorrectBoundary: 0.307 [ms]
[INFO] PISOStep: 1969.3 [ms]
[INFO] MatrixAssemblyPI: 100.316 [ms]
[INFO] AdjustPhi: 8.201 [ms]
[INFO] ConstrainPressure: 0.002 [ms]
[INFO] MatrixAssemblyPII: 31.66 [ms]
[OGL LOG][Proc: 0]: global_index_init: 0.051 [ms]
[OGL LOG][Proc: 0]p_local_coeffs: call_update: 0 [ms]
[OGL LOG][Proc: 0]p_non_local_coeffs: call_update: 0 [ms]
[OGL LOG][Proc: 0]p: update_local_matrix_data: 10.82 [ms]
[OGL LOG][Proc: 0]p: update_non_local_matrix_data: 0.396 [ms]
[OGL LOG][Proc: 0]p: regenerate_distributed_matrix: 58.163 [ms]
[OGL LOG][Proc: 0]p_matrix: call_update: 58.553 [ms]
[OGL LOG][Proc: 0]p_rhs: call_update: 1.41 [ms]
[OGL LOG][Proc: 0]p: init_precond: 0.044 [ms]
[OGL LOG][StoppingCriterion.H:239] Creating stopping criterion with minIter 885 frequency 8
[OGL LOG][Proc: 0]p: generate_solver: 0.02 [ms]
[OGL LOG][Proc: 0]p: solve: 1681.59 [ms]
[OGL LOG][Proc: 0]p: copy_x_back: 1.642 [ms]
[OGL LOG][lduLduBase.H:330] 
Statistics:
	Time per iteration: 1141 [mu s]
	Time per residual norm calculation: 143.000000 [mu s]
	Time per iteration and DOF: 0.142625 [ns]
	Retrieve results bandwidth 4.872000 [GByte/s]
[OGL LOG][Proc: 0]p: solve_multi_gpu: 1748.02 [ms]
nonedpcppGKOCG:  Solving for p, Initial residual = 0.175094, Final residual = 8.60646e-05, No Iterations 1473
[INFO] SolveP: 1762.39 [ms]
time step continuity errors : sum local = 3.6626e-09, global = -2.25836e-21, cumulative = -8.45807e-20
[INFO] ContinuityError: 14.963 [ms]
[INFO] CorrectBoundary: 0.351 [ms]
[INFO] PISOStep: 1955.87 [ms]
[INFO] TimeStep: 4807.98 [ms]
ExecutionTime = 102.33 s  ClockTime = 117 s

Time = 0.005

Courant Number mean: 0.0604662 max: 0.486433
[INFO] MatrixAssemblyU: 85.145 [ms]
DILUPBiCGStab:  Solving for Ux, Initial residual = 0.00446396, Final residual = 6.06448e-05, No Iterations 5
DILUPBiCGStab:  Solving for Uy, Initial residual = 0.0105601, Final residual = 0.000120911, No Iterations 5
DILUPBiCGStab:  Solving for Uz, Initial residual = 0.0323892, Final residual = 0.00129378, No Iterations 5
[INFO] MomentumPredictor: 918.055 [ms]
[INFO] MatrixAssemblyPI: 103.114 [ms]
[INFO] AdjustPhi: 5.622 [ms]
[INFO] ConstrainPressure: 0.002 [ms]
[INFO] MatrixAssemblyPII: 29.424 [ms]
[OGL LOG][Proc: 0]: global_index_init: 0.069 [ms]
[OGL LOG][Proc: 0]p_local_coeffs: call_update: 0 [ms]
[OGL LOG][Proc: 0]p_non_local_coeffs: call_update: 0 [ms]
[OGL LOG][Proc: 0]p: update_local_matrix_data: 11.189 [ms]
[OGL LOG][Proc: 0]p: update_non_local_matrix_data: 0.436 [ms]
[OGL LOG][Proc: 0]p: regenerate_distributed_matrix: 55.789 [ms]
[OGL LOG][Proc: 0]p_matrix: call_update: 56.312 [ms]
[OGL LOG][Proc: 0]p_rhs: call_update: 0.877 [ms]
[OGL LOG][Proc: 0]p: init_precond: 0.043 [ms]
[OGL LOG][StoppingCriterion.H:239] Creating stopping criterion with minIter 883 frequency 9
[OGL LOG][Proc: 0]p: generate_solver: 0.02 [ms]
[OGL LOG][Proc: 0]p: solve: 1677.35 [ms]
[OGL LOG][Proc: 0]p: copy_x_back: 1.65 [ms]
[OGL LOG][lduLduBase.H:330] 
Statistics:
	Time per iteration: 1135 [mu s]
	Time per residual norm calculation: 151.000000 [mu s]
	Time per iteration and DOF: 0.141875 [ns]
	Retrieve results bandwidth 4.848000 [GByte/s]
[OGL LOG][Proc: 0]p: solve_multi_gpu: 1742.12 [ms]
nonedpcppGKOCG:  Solving for p, Initial residual = 0.182312, Final residual = 7.5201e-05, No Iterations 1477
[INFO] SolveP: 1757.1 [ms]
time step continuity errors : sum local = 3.08971e-09, global = -3.06023e-21, cumulative = -8.76409e-20
[INFO] ContinuityError: 15.283 [ms]
[INFO] CorrectBoundary: 4.102 [ms]
[INFO] PISOStep: 1951.01 [ms]
[INFO] MatrixAssemblyPI: 99.227 [ms]
[INFO] AdjustPhi: 15.466 [ms]
[INFO] ConstrainPressure: 0.002 [ms]
[INFO] MatrixAssemblyPII: 31.712 [ms]
[OGL LOG][Proc: 0]: global_index_init: 0.103 [ms]
[OGL LOG][Proc: 0]p_local_coeffs: call_update: 0 [ms]
[OGL LOG][Proc: 0]p_non_local_coeffs: call_update: 0 [ms]
[OGL LOG][Proc: 0]p: update_local_matrix_data: 12.925 [ms]
[OGL LOG][Proc: 0]p: update_non_local_matrix_data: 0.382 [ms]
[OGL LOG][Proc: 0]p: regenerate_distributed_matrix: 65.662 [ms]
[OGL LOG][Proc: 0]p_matrix: call_update: 66.038 [ms]
[OGL LOG][Proc: 0]p_rhs: call_update: 1.696 [ms]
[OGL LOG][Proc: 0]p: init_precond: 0.047 [ms]
[OGL LOG][StoppingCriterion.H:239] Creating stopping criterion with minIter 886 frequency 9
[OGL LOG][Proc: 0]p: generate_solver: 0.019 [ms]
[OGL LOG][Proc: 0]p: solve: 1660.88 [ms]
[OGL LOG][Proc: 0]p: copy_x_back: 1.728 [ms]
[OGL LOG][lduLduBase.H:330] 
Statistics:
	Time per iteration: 1131 [mu s]
	Time per residual norm calculation: 145.000000 [mu s]
	Time per iteration and DOF: 0.141375 [ns]
	Retrieve results bandwidth 4.629000 [GByte/s]
[OGL LOG][Proc: 0]p: solve_multi_gpu: 1731.54 [ms]
nonedpcppGKOCG:  Solving for p, Initial residual = 0.159708, Final residual = 9.96584e-05, No Iterations 1468
[INFO] SolveP: 1748.26 [ms]
time step continuity errors : sum local = 4.0877e-09, global = -5.8267e-21, cumulative = -9.34676e-20
[INFO] ContinuityError: 13.708 [ms]
[INFO] CorrectBoundary: 0.355 [ms]
[INFO] PISOStep: 1952.34 [ms]
[INFO] TimeStep: 4922.51 [ms]
ExecutionTime = 107.25 s  ClockTime = 122 s

End

Finalising parallel run
