/*---------------------------------------------------------------------------*\
| =========                 |                                                 |
| \\      /  F ield         | OpenFOAM: The Open Source CFD Toolbox           |
|  \\    /   O peration     | Version:  2306                                  |
|   \\  /    A nd           | Website:  www.openfoam.com                      |
|    \\/     M anipulation  |                                                 |
\*---------------------------------------------------------------------------*/
Build  : a6e826bd55-20230630 OPENFOAM=2306 version=v2306
Arch   : "LSB;label=32;scalar=64"
Exec   : simpleFoam -parallel -case /home/greole/data/code/exasim_project/micro_benchmarks/WindsorBody/workspace/98d05bdb26c193244a9e957297dc7baf/case
Date   : Aug 27 2023
Time   : 18:44:34
Host   : nla-gpu2.ianm.kit.edu
PID    : 3074014
I/O    : uncollated
Case   : /home/greole/data/code/exasim_project/micro_benchmarks/WindsorBody/workspace/98d05bdb26c193244a9e957297dc7baf/case
nProcs : 8
Hosts  :
(
    (nla-gpu2.ianm.kit.edu 8)
)
Pstream initialized with:
    floatTransfer      : false
    nProcsSimpleSum    : 0
    nonBlockingExchange: 0 (tuning: 0)
    exchange algorithm : -1
    commsType          : nonBlocking
    polling iterations : 0
trapFpe: Floating point exception trapping enabled (FOAM_SIGFPE).
fileModificationChecking : Monitoring run-time modified files using timeStampMaster (fileModificationSkew 5, maxFileModificationPolls 20)
allowSystemOperations : Allowing user-supplied system call operations

// * * * * * * * * * * * * * * * * * * * * * * * * * * * * * * * * * * * * * //
Create time

--> FOAM Warning : 
    From void* Foam::dlLibraryTable::openLibrary(const Foam::fileName&, bool)
    in file db/dynamicLibrary/dlLibraryTable/dlLibraryTable.C at line 188
    Could not load "libpetscFoam.so"
libpetscFoam.so: cannot open shared object file: No such file or directory
Create mesh for time = 0


SIMPLE: convergence criteria
    field p	 tolerance 1e-08
    field U	 tolerance 1e-08
    field k	 tolerance 1e-08
    field omega	 tolerance 1e-08
    field nuTilda	 tolerance 1e-08

Reading field p

Reading field U

Reading/calculating face flux field phi

Selecting incompressible transport model Newtonian
Selecting turbulence model type RAS
Selecting RAS turbulence model SpalartAllmaras
Selecting patchDistMethod meshWave
ft2 term: inactive
RAS
{
    RASModel        SpalartAllmaras;
    turbulence      on;
    printCoeffs     on;
    sigmaNut        0.66666;
    kappa           0.41;
    Cb1             0.1355;
    Cb2             0.622;
    Cw2             0.3;
    Cw3             2;
    Cv1             7.1;
    Cs              0.3;
    ck              0.07000000000000001;
    ft2             false;
    Ct3             1.2;
    Ct4             0.5;
}

No MRF models present

Creating finite volume options from "system/fvOptions"

Selecting finite volume options type velocityDampingConstraint
    Source: velocityDamping
    - selecting all cells
    - selected 50457088 cell(s) with volume 222.6066441196678

Starting time loop

--> FOAM Warning : 
    From bool Foam::functionObjectList::read()
    in file db/functionObjects/functionObjectList/functionObjectList.C at line 1035
    Reading "system/controlDict" at line 2 to 41
    Entry 'lref' is not a dictionary
--> FOAM Warning : 
    From bool Foam::functionObjectList::read()
    in file db/functionObjects/functionObjectList/functionObjectList.C at line 1035
    Reading "system/controlDict" at line 2 to 41
    Entry 'Aref' is not a dictionary
--> FOAM Warning : 
    From bool Foam::functionObjectList::read()
    in file db/functionObjects/functionObjectList/functionObjectList.C at line 1035
    Reading "system/controlDict" at line 2 to 41
    Entry 'yawAngle' is not a dictionary
--> FOAM Warning : 
    From bool Foam::functionObjectList::read()
    in file db/functionObjects/functionObjectList/functionObjectList.C at line 1035
    Reading "system/controlDict" at line 2 to 41
    Entry 'lDomain' is not a dictionary
--> FOAM Warning : 
    From bool Foam::functionObjectList::read()
    in file db/functionObjects/functionObjectList/functionObjectList.C at line 1035
    Reading "system/controlDict" at line 2 to 41
    Entry 'bDomain' is not a dictionary
--> FOAM Warning : 
    From bool Foam::functionObjectList::read()
    in file db/functionObjects/functionObjectList/functionObjectList.C at line 1035
    Reading "system/controlDict" at line 2 to 41
    Entry 'hDomain' is not a dictionary
--> FOAM Warning : 
    From bool Foam::functionObjectList::read()
    in file db/functionObjects/functionObjectList/functionObjectList.C at line 1035
    Reading "system/controlDict" at line 2 to 41
    Entry 'xCenter' is not a dictionary
--> FOAM Warning : 
    From bool Foam::functionObjectList::read()
    in file db/functionObjects/functionObjectList/functionObjectList.C at line 1035
    Reading "system/controlDict" at line 2 to 41
    Entry 'yCenter' is not a dictionary
--> FOAM Warning : 
    From bool Foam::functionObjectList::read()
    in file db/functionObjects/functionObjectList/functionObjectList.C at line 1035
    Reading "system/controlDict" at line 2 to 41
    Entry 'zCenter' is not a dictionary
--> FOAM Warning : 
    From bool Foam::functionObjectList::read()
    in file db/functionObjects/functionObjectList/functionObjectList.C at line 1035
    Reading "system/controlDict" at line 2 to 41
    Entry 'inletPatch' is not a dictionary
--> FOAM Warning : 
    From bool Foam::functionObjectList::read()
    in file db/functionObjects/functionObjectList/functionObjectList.C at line 1035
    Reading "system/controlDict" at line 2 to 41
    Entry 'outletPatch' is not a dictionary
--> FOAM Warning : 
    From bool Foam::functionObjectList::read()
    in file db/functionObjects/functionObjectList/functionObjectList.C at line 1035
    Reading "system/controlDict" at line 2 to 41
    Entry 'wallPatches' is not a dictionary
--> FOAM Warning : 
    From bool Foam::functionObjectList::read()
    in file db/functionObjects/functionObjectList/functionObjectList.C at line 1035
    Reading "system/controlDict" at line 2 to 41
    Entry 'forcesWallPatches' is not a dictionary
--> FOAM Warning : 
    From bool Foam::functionObjectList::read()
    in file db/functionObjects/functionObjectList/functionObjectList.C at line 1035
    Reading "system/controlDict" at line 2 to 41
    Entry 'symmPatches' is not a dictionary
--> FOAM Warning : 
    From bool Foam::functionObjectList::read()
    in file db/functionObjects/functionObjectList/functionObjectList.C at line 1035
    Reading "system/controlDict" at line 2 to 41
    Entry 'Uinf' is not a dictionary
--> FOAM Warning : 
    From bool Foam::functionObjectList::read()
    in file db/functionObjects/functionObjectList/functionObjectList.C at line 1035
    Reading "system/controlDict" at line 2 to 41
    Entry 'UinfMag' is not a dictionary
--> FOAM Warning : 
    From bool Foam::functionObjectList::read()
    in file db/functionObjects/functionObjectList/functionObjectList.C at line 1035
    Reading "system/controlDict" at line 2 to 41
    Entry 'nu' is not a dictionary
--> FOAM Warning : 
    From bool Foam::functionObjectList::read()
    in file db/functionObjects/functionObjectList/functionObjectList.C at line 1035
    Reading "system/controlDict" at line 2 to 41
    Entry 'pref' is not a dictionary
--> FOAM Warning : 
    From bool Foam::functionObjectList::read()
    in file db/functionObjects/functionObjectList/functionObjectList.C at line 1035
    Reading "system/controlDict" at line 2 to 41
    Entry 'viscRatio' is not a dictionary
--> FOAM Warning : 
    From bool Foam::functionObjectList::read()
    in file db/functionObjects/functionObjectList/functionObjectList.C at line 1035
    Reading "system/controlDict" at line 2 to 41
    Entry 'Tu' is not a dictionary
--> FOAM Warning : 
    From bool Foam::functionObjectList::read()
    in file db/functionObjects/functionObjectList/functionObjectList.C at line 1035
    Reading "system/controlDict" at line 2 to 41
    Entry 'LESturbModel' is not a dictionary
--> FOAM Warning : 
    From bool Foam::functionObjectList::read()
    in file db/functionObjects/functionObjectList/functionObjectList.C at line 1035
    Reading "system/controlDict" at line 2 to 41
    Entry 'RASturbModel' is not a dictionary
--> FOAM Warning : 
    From bool Foam::functionObjectList::read()
    in file db/functionObjects/functionObjectList/functionObjectList.C at line 1035
    Reading "system/controlDict" at line 2 to 41
    Entry 'deltaTurb' is not a dictionary
--> FOAM Warning : 
    From bool Foam::functionObjectList::read()
    in file db/functionObjects/functionObjectList/functionObjectList.C at line 1035
    Reading "system/controlDict" at line 2 to 41
    Entry 'dt' is not a dictionary
--> FOAM Warning : 
    From bool Foam::functionObjectList::read()
    in file db/functionObjects/functionObjectList/functionObjectList.C at line 1035
    Reading "system/controlDict" at line 2 to 41
    Entry 'tAvg' is not a dictionary
--> FOAM Warning : 
    From bool Foam::functionObjectList::read()
    in file db/functionObjects/functionObjectList/functionObjectList.C at line 1035
    Reading "system/controlDict" at line 2 to 41
    Entry 'tEnd' is not a dictionary
--> FOAM Warning : 
    From bool Foam::functionObjectList::read()
    in file db/functionObjects/functionObjectList/functionObjectList.C at line 1035
    Reading "system/controlDict" at line 2 to 41
    Entry 'writeInterval_' is not a dictionary
--> FOAM Warning : 
    From bool Foam::functionObjectList::read()
    in file db/functionObjects/functionObjectList/functionObjectList.C at line 1035
    Reading "system/controlDict" at line 2 to 41
    Entry 'nCores' is not a dictionary
--> FOAM Warning : 
    From bool Foam::functionObjectList::read()
    in file db/functionObjects/functionObjectList/functionObjectList.C at line 1035
    Reading "system/controlDict" at line 2 to 41
    Entry 'interpScheme' is not a dictionary
--> FOAM Warning : 
    From bool Foam::functionObjectList::read()
    in file db/functionObjects/functionObjectList/functionObjectList.C at line 1035
    Reading "system/controlDict" at line 2 to 41
    Entry 'probeField' is not a dictionary
wallShearStress wallShearStress:
    processing wall patches: 
        Windsor_Body
        CFDWT_Floor
        Windsor_Pins
        Windsor_Base
        Windsor_Body_2
        CFDWT_Floor_2
        Windsor_Pins_2
        Windsor_Base_2
        Windsor_Body_3
        CFDWT_Floor_3
        Windsor_Pins_3
        Windsor_Base_3
        Windsor_Body_4
        CFDWT_Floor_4
        Windsor_Pins_4
        Windsor_Base_4
        Windsor_Body_5
        CFDWT_Floor_5
        Windsor_Pins_5
        Windsor_Base_5
        Windsor_Body_6
        CFDWT_Floor_6
        Windsor_Pins_6
        Windsor_Base_6
        Windsor_Body_7
        CFDWT_Floor_7
        Windsor_Pins_7
        Windsor_Base_7
        Windsor_Body_8
        CFDWT_Floor_8
        Windsor_Pins_8
        Windsor_Base_8

pressure calc_cp:
    Operating mode: staticCoeff
    Not including hydrostatic effects

forceCoeffs forceCoeffsAll:
    rho: rhoInf
    Freestream density (rhoInf) set to 1
    Not including porosity effects
    magUInf: 40
    lRef   : 0.6375
    Aref   : 0.1124
    rhoInf : 1
    Selecting all coefficients
    - Drag force: Cd
    - Drag force front: Cd(f)
    - Drag force rear: Cd(r)
    - Lift force: Cl
    - Lift force front: Cl(f)
    - Lift force rear: Cl(r)
    - Pitch moment: CmPitch
    - Roll moment: CmRoll
    - Yaw moment: CmYaw
    - Side force: Cs
    - Side force front: Cs(f)
    - Side force rear: Cs(r)


forceCoeffs dragCoeffBase:
    rho: rhoInf
    Freestream density (rhoInf) set to 1
    Not including porosity effects
    magUInf: 40
    lRef   : 0.6375
    Aref   : 0.1124
    rhoInf : 1
    Selecting coefficients:
    - Drag force: Cd


Time = 1

velocityDampingConstraint velocityDamping damped 0 (0%) of cells, with max limit 300
[INFO] MatrixAssemblyU: 6706.27 [ms]
[OGL LOG][lduLduBase.H:119] Initialising OGL
	OGL commit:  4647ee1+
	Branch: PersistentDeviceIdGuard 
	Build type: Release
	Ginkgo version: 1.5.0 ( develop)
	Ginkgo commit: 4292ffdee
	MPI is GPU aware: 1
	Forces host buffer based communication: 0
	CPU ranks per GPU: 1
	Matrix format: Coo
	End OGL_INFO
[OGL LOG][Proc: 0]: global_index_init: 4.181 [ms]
[OGL LOG][Proc: 0]Ux_local_cols: call_init: 0.042 [ms]
[OGL LOG][Proc: 0]Ux_local_rows: call_init: 0.003 [ms]
[OGL LOG][Proc: 0]Ux_local_ldu_map: call_init: 0.003 [ms]
[OGL LOG][Proc: 0]Ux_local_coeffs: call_init: 0.012 [ms]
[OGL LOG][Proc: 0]Ux_non_local_cols: call_init: 0.003 [ms]
[OGL LOG][Proc: 0]Ux_non_local_rows: call_init: 0.003 [ms]
[OGL LOG][Proc: 0]Ux_non_local_ldu_map: call_init: 0.003 [ms]
[OGL LOG][Proc: 0]Ux_non_local_coeffs: call_init: 0.003 [ms]
[OGL LOG][Proc: 0]Ux: init_local_sparsity_pattern: 1134.409 [ms]
[OGL LOG][Proc: 0]Ux: init_non_local_sparsity_pattern: 132.962 [ms]
[OGL LOG][Proc: 0]Ux: update_local_matrix_data: 123.495 [ms]
[OGL LOG][Proc: 0]Ux: update_non_local_matrix_data: 0.178 [ms]
[OGL LOG][Proc: 0]device_partition: call_init: 7.406000000000001 [ms]
[OGL LOG][Proc: 0]Ux_matrix: call_init: 297.184 [ms]
[OGL LOG][Proc: 0]Ux_rhs: call_init: 33.987 [ms]
[OGL LOG][Proc: 0]Ux_solution: call_init: 4.194 [ms]
[OGL LOG][Preconditioner.H:121] Generate preconditioner BJ MaxBlockSize 1
[OGL LOG][Proc: 0]Ux: init_precond: 5.944 [ms]
[OGL LOG][StoppingCriterion.H:373] Creating stopping criterion with minIter 0 frequency 1
[OGL LOG][Proc: 0]Ux: generate_solver: 0.019 [ms]
[OGL LOG][Proc: 0]Ux: solve: 1630.557 [ms]
[OGL LOG][Proc: 0]Ux: copy_x_back: 16.484 [ms]
[OGL LOG][lduLduBase.H:336] 
Statistics:
	Time per iteration: 67939 [mu s]
	Time per residual norm calculation: 1502.000000 [mu s]
	Time per iteration and DOF: 1.346471 [ns]
	Retrieve results bandwidth 3.070000 [GByte/s]
[OGL LOG][Proc: 0]Ux: solve_multi_gpu: 1998.278 [ms]
BJhipGKOBiCGStab:  Solving for Ux, Initial residual = 1.000000000002536, Final residual = 0.05875168808359187, No Iterations 24
[OGL LOG][lduLduBase.H:119] Initialising OGL
	OGL commit:  4647ee1+
	Branch: PersistentDeviceIdGuard 
	Build type: Release
	Ginkgo version: 1.5.0 ( develop)
	Ginkgo commit: 4292ffdee
	MPI is GPU aware: 1
	Forces host buffer based communication: 0
	CPU ranks per GPU: 1
	Matrix format: Coo
	End OGL_INFO
[OGL LOG][Proc: 0]: global_index_init: 0.519 [ms]
[OGL LOG][Proc: 0]Uy_local_cols: call_init: 0.011 [ms]
[OGL LOG][Proc: 0]Uy_local_rows: call_init: 0.004 [ms]
[OGL LOG][Proc: 0]Uy_local_ldu_map: call_init: 0.003 [ms]
[OGL LOG][Proc: 0]Uy_local_coeffs: call_init: 0.005 [ms]
[OGL LOG][Proc: 0]Uy_non_local_cols: call_init: 0.011 [ms]
[OGL LOG][Proc: 0]Uy_non_local_rows: call_init: 0.034 [ms]
[OGL LOG][Proc: 0]Uy_non_local_ldu_map: call_init: 0.005 [ms]
[OGL LOG][Proc: 0]Uy_non_local_coeffs: call_init: 0.007 [ms]
[OGL LOG][Proc: 0]Uy: init_local_sparsity_pattern: 1080.188 [ms]
[OGL LOG][Proc: 0]Uy: init_non_local_sparsity_pattern: 230.013 [ms]
[OGL LOG][Proc: 0]Uy: update_local_matrix_data: 122.32 [ms]
[OGL LOG][Proc: 0]Uy: update_non_local_matrix_data: 0.229 [ms]
[OGL LOG][Proc: 0]Uy_matrix: call_init: 294.218 [ms]
[OGL LOG][Proc: 0]Uy_rhs: call_init: 25.008 [ms]
[OGL LOG][Proc: 0]Uy_solution: call_init: 5.22 [ms]
[OGL LOG][Preconditioner.H:121] Generate preconditioner BJ MaxBlockSize 1
[OGL LOG][Proc: 0]Uy: init_precond: 1.74 [ms]
[OGL LOG][StoppingCriterion.H:373] Creating stopping criterion with minIter 0 frequency 1
[OGL LOG][Proc: 0]Uy: generate_solver: 0.002 [ms]
[OGL LOG][Proc: 0]Uy: solve: 579.1420000000001 [ms]
[OGL LOG][Proc: 0]Uy: copy_x_back: 16.34 [ms]
[OGL LOG][lduLduBase.H:336] 
Statistics:
	Time per iteration: 11137 [mu s]
	Time per residual norm calculation: 488.000000 [mu s]
	Time per iteration and DOF: 0.220722 [ns]
	Retrieve results bandwidth 3.097000 [GByte/s]
[OGL LOG][Proc: 0]Uy: solve_multi_gpu: 924.28 [ms]
BJhipGKOBiCGStab:  Solving for Uy, Initial residual = 0.99999999999984, Final residual = 0.06026200199677644, No Iterations 52
[OGL LOG][lduLduBase.H:119] Initialising OGL
	OGL commit:  4647ee1+
	Branch: PersistentDeviceIdGuard 
	Build type: Release
	Ginkgo version: 1.5.0 ( develop)
	Ginkgo commit: 4292ffdee
	MPI is GPU aware: 1
	Forces host buffer based communication: 0
	CPU ranks per GPU: 1
	Matrix format: Coo
	End OGL_INFO
[OGL LOG][Proc: 0]: global_index_init: 0.36 [ms]
[OGL LOG][Proc: 0]Uz_local_cols: call_init: 0.01 [ms]
[OGL LOG][Proc: 0]Uz_local_rows: call_init: 0.003 [ms]
[OGL LOG][Proc: 0]Uz_local_ldu_map: call_init: 0.004 [ms]
[OGL LOG][Proc: 0]Uz_local_coeffs: call_init: 0.004 [ms]
[OGL LOG][Proc: 0]Uz_non_local_cols: call_init: 0.004 [ms]
[OGL LOG][Proc: 0]Uz_non_local_rows: call_init: 0.003 [ms]
[OGL LOG][Proc: 0]Uz_non_local_ldu_map: call_init: 0.004 [ms]
[OGL LOG][Proc: 0]Uz_non_local_coeffs: call_init: 0.003 [ms]
[OGL LOG][Proc: 0]Uz: init_local_sparsity_pattern: 1092.697 [ms]
[OGL LOG][Proc: 0]Uz: init_non_local_sparsity_pattern: 208.012 [ms]
[OGL LOG][Proc: 0]Uz: update_local_matrix_data: 123.756 [ms]
[OGL LOG][Proc: 0]Uz: update_non_local_matrix_data: 0.16 [ms]
[OGL LOG][Proc: 0]Uz_matrix: call_init: 298.449 [ms]
[OGL LOG][Proc: 0]Uz_rhs: call_init: 26.023 [ms]
[OGL LOG][Proc: 0]Uz_solution: call_init: 5.71 [ms]
[OGL LOG][Preconditioner.H:121] Generate preconditioner BJ MaxBlockSize 1
[OGL LOG][Proc: 0]Uz: init_precond: 1.755 [ms]
[OGL LOG][StoppingCriterion.H:373] Creating stopping criterion with minIter 0 frequency 1
[OGL LOG][Proc: 0]Uz: generate_solver: 0.001 [ms]
[OGL LOG][Proc: 0]Uz: solve: 269.991 [ms]
[OGL LOG][Proc: 0]Uz: copy_x_back: 16.51 [ms]
[OGL LOG][lduLduBase.H:336] 
Statistics:
	Time per iteration: 269991 [mu s]
	Time per residual norm calculation: 479.000000 [mu s]
	Time per iteration and DOF: 5.350903 [ns]
	Retrieve results bandwidth 3.065000 [GByte/s]
[OGL LOG][Proc: 0]Uz: solve_multi_gpu: 621.569 [ms]
BJhipGKOBiCGStab:  Solving for Uz, Initial residual = 1.000000000000034, Final residual = 0.09952964467307784, No Iterations 1
[INFO] MomentumPredictor: 8404.906000000001 [ms]
[INFO] MatrixAssemblyPI: 928.402 [ms]
[INFO] MatrixAssemblyPII: 462.278 [ms]
DICPCG:  Solving for p, Initial residual = 1, Final residual = 0.009456348659327634, No Iterations 417
[INFO] SolveP: 60930.43 [ms]
time step continuity errors : sum local = 0.003477740820014044, global = 8.116920878347032e-05, cumulative = 8.116920878347032e-05
[INFO] postSolveP: 256.029 [ms]
[OGL LOG][lduLduBase.H:119] Initialising OGL
	OGL commit:  4647ee1+
	Branch: PersistentDeviceIdGuard 
	Build type: Release
	Ginkgo version: 1.5.0 ( develop)
	Ginkgo commit: 4292ffdee
	MPI is GPU aware: 1
	Forces host buffer based communication: 0
	CPU ranks per GPU: 1
	Matrix format: Coo
	End OGL_INFO
[OGL LOG][Proc: 0]: global_index_init: 0.048 [ms]
[OGL LOG][Proc: 0]nuTilda_local_cols: call_init: 0.013 [ms]
[OGL LOG][Proc: 0]nuTilda_local_rows: call_init: 0.005 [ms]
[OGL LOG][Proc: 0]nuTilda_local_ldu_map: call_init: 0.004 [ms]
[OGL LOG][Proc: 0]nuTilda_local_coeffs: call_init: 0.005 [ms]
[OGL LOG][Proc: 0]nuTilda_non_local_cols: call_init: 0.004 [ms]
[OGL LOG][Proc: 0]nuTilda_non_local_rows: call_init: 0.004 [ms]
[OGL LOG][Proc: 0]nuTilda_non_local_ldu_map: call_init: 0.005 [ms]
[OGL LOG][Proc: 0]nuTilda_non_local_coeffs: call_init: 0.004 [ms]
[OGL LOG][Proc: 0]nuTilda: init_local_sparsity_pattern: 1098.163 [ms]
[OGL LOG][Proc: 0]nuTilda: init_non_local_sparsity_pattern: 193.113 [ms]
[OGL LOG][Proc: 0]nuTilda: update_local_matrix_data: 126.409 [ms]
[OGL LOG][Proc: 0]nuTilda: update_non_local_matrix_data: 0.164 [ms]
[OGL LOG][Proc: 0]nuTilda_matrix: call_init: 290.769 [ms]
[OGL LOG][Proc: 0]nuTilda_rhs: call_init: 36.75 [ms]
[OGL LOG][Proc: 0]nuTilda_solution: call_init: 3.647 [ms]
[OGL LOG][Preconditioner.H:121] Generate preconditioner BJ MaxBlockSize 1
[OGL LOG][Proc: 0]nuTilda: init_precond: 1.82 [ms]
[OGL LOG][StoppingCriterion.H:373] Creating stopping criterion with minIter 0 frequency 1
[OGL LOG][Proc: 0]nuTilda: generate_solver: 0.002 [ms]
[OGL LOG][Proc: 0]nuTilda: solve: 280.915 [ms]
[OGL LOG][Proc: 0]nuTilda: copy_x_back: 16.867 [ms]
[OGL LOG][lduLduBase.H:336] 
Statistics:
	Time per iteration: 140457 [mu s]
	Time per residual norm calculation: 332.000000 [mu s]
	Time per iteration and DOF: 2.783692 [ns]
	Retrieve results bandwidth 3.000000 [GByte/s]
[OGL LOG][Proc: 0]nuTilda: solve_multi_gpu: 633.9250000000001 [ms]
BJhipGKOBiCGStab:  Solving for nuTilda, Initial residual = 0.9999999999994784, Final residual = 0.09376351690382818, No Iterations 2
[INFO] TimeStep: 83179.39200000001 [ms]
ExecutionTime = 168.58 s  ClockTime = 169 s

--> FOAM Warning : 
    From virtual bool Foam::functionObjects::fieldSelection::checkSelection()
    in file functionObjects/fieldSelections/fieldSelection/fieldSelection.C at line 166
    Field k not found
--> FOAM Warning : 
    From virtual bool Foam::functionObjects::fieldSelection::checkSelection()
    in file functionObjects/fieldSelections/fieldSelection/fieldSelection.C at line 166
    Field gammaInt not found
--> FOAM Warning : 
    From virtual bool Foam::functionObjects::fieldSelection::checkSelection()
    in file functionObjects/fieldSelections/fieldSelection/fieldSelection.C at line 166
    Field omega not found
--> FOAM Warning : 
    From virtual bool Foam::functionObjects::fieldSelection::checkSelection()
    in file functionObjects/fieldSelections/fieldSelection/fieldSelection.C at line 166
    Field ReThetat not found
--> FOAM Warning : 
    From virtual bool Foam::functionObjects::fieldSelection::checkSelection()
    in file functionObjects/fieldSelections/fieldSelection/fieldSelection.C at line 166
    Field epsilon not found
--> FOAM Warning : 
    From virtual bool Foam::functionObjects::solverFieldSelection::updateSelection()
    in file functionObjects/fieldSelections/solverFieldSelection/solverFieldSelection.C at line 85
    Valid solver fields are: 3(U nuTilda p)Time = 2

velocityDampingConstraint velocityDamping damped 0 (0%) of cells, with max limit 300
[INFO] MatrixAssemblyU: 6559.343 [ms]
[OGL LOG][Proc: 0]: global_index_init: 0.23 [ms]
[OGL LOG][Proc: 0]Ux_local_coeffs: call_update: 0.005 [ms]
[OGL LOG][Proc: 0]Ux_non_local_coeffs: call_update: 0 [ms]
[OGL LOG][Proc: 0]Ux: update_local_matrix_data: 122.981 [ms]
[OGL LOG][Proc: 0]Ux: update_non_local_matrix_data: 0.155 [ms]
[OGL LOG][Proc: 0]Ux_matrix: call_update: 47.622 [ms]
[OGL LOG][Proc: 0]Ux_rhs: call_update: 7.348 [ms]
[OGL LOG][Preconditioner.H:121] Generate preconditioner BJ MaxBlockSize 1
[OGL LOG][Proc: 0]Ux: init_precond: 1.835 [ms]
[OGL LOG][StoppingCriterion.H:373] Creating stopping criterion with minIter 28 frequency 1
[OGL LOG][Proc: 0]Ux: generate_solver: 0.002 [ms]
[OGL LOG][Proc: 0]Ux: solve: 346.975 [ms]
[OGL LOG][Proc: 0]Ux: copy_x_back: 16.854 [ms]
[OGL LOG][lduLduBase.H:336] 
Statistics:
	Time per iteration: 24783 [mu s]
	Time per residual norm calculation: 348.000000 [mu s]
	Time per iteration and DOF: 0.491170 [ns]
	Retrieve results bandwidth 3.003000 [GByte/s]
[OGL LOG][Proc: 0]Ux: solve_multi_gpu: 423.708 [ms]
BJhipGKOBiCGStab:  Solving for Ux, Initial residual = 0.6041832832166293, Final residual = 0.03582003323093292, No Iterations 14
[OGL LOG][Proc: 0]: global_index_init: 0.515 [ms]
[OGL LOG][Proc: 0]Uy_local_coeffs: call_update: 0 [ms]
[OGL LOG][Proc: 0]Uy_non_local_coeffs: call_update: 0 [ms]
[OGL LOG][Proc: 0]Uy: update_local_matrix_data: 124.612 [ms]
[OGL LOG][Proc: 0]Uy: update_non_local_matrix_data: 0.233 [ms]
[OGL LOG][Proc: 0]Uy_matrix: call_update: 49.844 [ms]
[OGL LOG][Proc: 0]Uy_rhs: call_update: 13.556 [ms]
[OGL LOG][Preconditioner.H:121] Generate preconditioner BJ MaxBlockSize 1
[OGL LOG][Proc: 0]Uy: init_precond: 1.791 [ms]
[OGL LOG][StoppingCriterion.H:373] Creating stopping criterion with minIter 62 frequency 1
[OGL LOG][Proc: 0]Uy: generate_solver: 0.002 [ms]
[OGL LOG][Proc: 0]Uy: solve: 438.706 [ms]
[OGL LOG][Proc: 0]Uy: copy_x_back: 16.463 [ms]
[OGL LOG][lduLduBase.H:336] 
Statistics:
	Time per iteration: 14151 [mu s]
	Time per residual norm calculation: 329.000000 [mu s]
	Time per iteration and DOF: 0.280456 [ns]
	Retrieve results bandwidth 3.074000 [GByte/s]
[OGL LOG][Proc: 0]Uy: solve_multi_gpu: 523.451 [ms]
BJhipGKOBiCGStab:  Solving for Uy, Initial residual = 0.9976931527226318, Final residual = 0.001207773741260281, No Iterations 31
[OGL LOG][Proc: 0]: global_index_init: 1.587 [ms]
[OGL LOG][Proc: 0]Uz_local_coeffs: call_update: 0 [ms]
[OGL LOG][Proc: 0]Uz_non_local_coeffs: call_update: 0 [ms]
[OGL LOG][Proc: 0]Uz: update_local_matrix_data: 124.823 [ms]
[OGL LOG][Proc: 0]Uz: update_non_local_matrix_data: 0.23 [ms]
[OGL LOG][Proc: 0]Uz_matrix: call_update: 45.488 [ms]
[OGL LOG][Proc: 0]Uz_rhs: call_update: 28.354 [ms]
[OGL LOG][Preconditioner.H:121] Generate preconditioner BJ MaxBlockSize 1
[OGL LOG][Proc: 0]Uz: init_precond: 1.825 [ms]
[OGL LOG][StoppingCriterion.H:373] Creating stopping criterion with minIter 1 frequency 1
[OGL LOG][Proc: 0]Uz: generate_solver: 0.002 [ms]
[OGL LOG][Proc: 0]Uz: solve: 329.193 [ms]
[OGL LOG][Proc: 0]Uz: copy_x_back: 17.394 [ms]
[OGL LOG][lduLduBase.H:336] 
Statistics:
	Time per iteration: 29926 [mu s]
	Time per residual norm calculation: 480.000000 [mu s]
	Time per iteration and DOF: 0.593098 [ns]
	Retrieve results bandwidth 2.910000 [GByte/s]
[OGL LOG][Proc: 0]Uz: solve_multi_gpu: 425.31 [ms]
BJhipGKOBiCGStab:  Solving for Uz, Initial residual = 0.9999990799007984, Final residual = 0.07544917120088553, No Iterations 11
[INFO] MomentumPredictor: 2113.36 [ms]
[INFO] MatrixAssemblyPI: 917.237 [ms]
[INFO] MatrixAssemblyPII: 459.11 [ms]
DICPCG:  Solving for p, Initial residual = 0.2190000188672256, Final residual = 0.002148407980333718, No Iterations 333
[INFO] SolveP: 48719.841 [ms]
time step continuity errors : sum local = 0.04424596529334345, global = 0.002069178303365242, cumulative = 0.002150347512148712
[INFO] postSolveP: 251.94 [ms]
[OGL LOG][Proc: 0]: global_index_init: 5.726 [ms]
[OGL LOG][Proc: 0]nuTilda_local_coeffs: call_update: 0 [ms]
[OGL LOG][Proc: 0]nuTilda_non_local_coeffs: call_update: 0 [ms]
[OGL LOG][Proc: 0]nuTilda: update_local_matrix_data: 124.118 [ms]
[OGL LOG][Proc: 0]nuTilda: update_non_local_matrix_data: 0.203 [ms]
[OGL LOG][Proc: 0]nuTilda_matrix: call_update: 53.255 [ms]
[OGL LOG][Proc: 0]nuTilda_rhs: call_update: 11.443 [ms]
[OGL LOG][Preconditioner.H:121] Generate preconditioner BJ MaxBlockSize 1
[OGL LOG][Proc: 0]nuTilda: init_precond: 1.792 [ms]
[OGL LOG][StoppingCriterion.H:373] Creating stopping criterion with minIter 3 frequency 1
[OGL LOG][Proc: 0]nuTilda: generate_solver: 0.002 [ms]
[OGL LOG][Proc: 0]nuTilda: solve: 275.729 [ms]
[OGL LOG][Proc: 0]nuTilda: copy_x_back: 16.262 [ms]
[OGL LOG][lduLduBase.H:336] 
Statistics:
	Time per iteration: 137864 [mu s]
	Time per residual norm calculation: 529.000000 [mu s]
	Time per iteration and DOF: 2.732302 [ns]
	Retrieve results bandwidth 3.112000 [GByte/s]
[OGL LOG][Proc: 0]nuTilda: solve_multi_gpu: 361.542 [ms]
BJhipGKOBiCGStab:  Solving for nuTilda, Initial residual = 0.4032501125260604, Final residual = 0.006096381086925629, No Iterations 2
[INFO] TimeStep: 63015.55 [ms]
ExecutionTime = 236.62 s  ClockTime = 237 s

Time = 3

velocityDampingConstraint velocityDamping damped 7149 (0.01%) of cells, with max limit 300
[INFO] MatrixAssemblyU: 6681.909 [ms]
[OGL LOG][Proc: 0]: global_index_init: 0.236 [ms]
[OGL LOG][Proc: 0]Ux_local_coeffs: call_update: 0 [ms]
[OGL LOG][Proc: 0]Ux_non_local_coeffs: call_update: 0 [ms]
[OGL LOG][Proc: 0]Ux: update_local_matrix_data: 122.608 [ms]
[OGL LOG][Proc: 0]Ux: update_non_local_matrix_data: 0.151 [ms]
[OGL LOG][Proc: 0]Ux_matrix: call_update: 46.994 [ms]
[OGL LOG][Proc: 0]Ux_rhs: call_update: 17.396 [ms]
[OGL LOG][Preconditioner.H:121] Generate preconditioner BJ MaxBlockSize 1
[OGL LOG][Proc: 0]Ux: init_precond: 1.797 [ms]
[OGL LOG][StoppingCriterion.H:373] Creating stopping criterion with minIter 17 frequency 1
[OGL LOG][Proc: 0]Ux: generate_solver: 0.003 [ms]
[OGL LOG][Proc: 0]Ux: solve: 346.815 [ms]
[OGL LOG][Proc: 0]Ux: copy_x_back: 16.247 [ms]
[OGL LOG][lduLduBase.H:336] 
Statistics:
	Time per iteration: 24772 [mu s]
	Time per residual norm calculation: 474.000000 [mu s]
	Time per iteration and DOF: 0.490952 [ns]
	Retrieve results bandwidth 3.115000 [GByte/s]
[OGL LOG][Proc: 0]Ux: solve_multi_gpu: 432.329 [ms]
BJhipGKOBiCGStab:  Solving for Ux, Initial residual = 0.1299596107468996, Final residual = 0.006770723273643036, No Iterations 14
[OGL LOG][Proc: 0]: global_index_init: 0.513 [ms]
[OGL LOG][Proc: 0]Uy_local_coeffs: call_update: 0 [ms]
[OGL LOG][Proc: 0]Uy_non_local_coeffs: call_update: 0 [ms]
[OGL LOG][Proc: 0]Uy: update_local_matrix_data: 123.753 [ms]
[OGL LOG][Proc: 0]Uy: update_non_local_matrix_data: 0.224 [ms]
[OGL LOG][Proc: 0]Uy_matrix: call_update: 42.793 [ms]
[OGL LOG][Proc: 0]Uy_rhs: call_update: 14.45 [ms]
[OGL LOG][Preconditioner.H:121] Generate preconditioner BJ MaxBlockSize 1
[OGL LOG][Proc: 0]Uy: init_precond: 1.796 [ms]
[OGL LOG][StoppingCriterion.H:373] Creating stopping criterion with minIter 37 frequency 1
[OGL LOG][Proc: 0]Uy: generate_solver: 0.002 [ms]
[OGL LOG][Proc: 0]Uy: solve: 365.218 [ms]
[OGL LOG][Proc: 0]Uy: copy_x_back: 16.877 [ms]
[OGL LOG][lduLduBase.H:336] 
Statistics:
	Time per iteration: 19222 [mu s]
	Time per residual norm calculation: 492.000000 [mu s]
	Time per iteration and DOF: 0.380957 [ns]
	Retrieve results bandwidth 2.999000 [GByte/s]
[OGL LOG][Proc: 0]Uy: solve_multi_gpu: 444.188 [ms]
BJhipGKOBiCGStab:  Solving for Uy, Initial residual = 0.2991210424080548, Final residual = 0.01854386563708999, No Iterations 19
[OGL LOG][Proc: 0]: global_index_init: 0.502 [ms]
[OGL LOG][Proc: 0]Uz_local_coeffs: call_update: 0 [ms]
[OGL LOG][Proc: 0]Uz_non_local_coeffs: call_update: 0 [ms]
[OGL LOG][Proc: 0]Uz: update_local_matrix_data: 123.565 [ms]
[OGL LOG][Proc: 0]Uz: update_non_local_matrix_data: 0.226 [ms]
[OGL LOG][Proc: 0]Uz_matrix: call_update: 61.33 [ms]
[OGL LOG][Proc: 0]Uz_rhs: call_update: 12.596 [ms]
[OGL LOG][Preconditioner.H:121] Generate preconditioner BJ MaxBlockSize 1
[OGL LOG][Proc: 0]Uz: init_precond: 1.776 [ms]
[OGL LOG][StoppingCriterion.H:373] Creating stopping criterion with minIter 13 frequency 1
[OGL LOG][Proc: 0]Uz: generate_solver: 0.003 [ms]
[OGL LOG][Proc: 0]Uz: solve: 335.529 [ms]
[OGL LOG][Proc: 0]Uz: copy_x_back: 17.195 [ms]
[OGL LOG][lduLduBase.H:336] 
Statistics:
	Time per iteration: 27960 [mu s]
	Time per residual norm calculation: 488.000000 [mu s]
	Time per iteration and DOF: 0.554134 [ns]
	Retrieve results bandwidth 2.943000 [GByte/s]
[OGL LOG][Proc: 0]Uz: solve_multi_gpu: 431.508 [ms]
BJhipGKOBiCGStab:  Solving for Uz, Initial residual = 0.2631613574650916, Final residual = 0.02038469525717717, No Iterations 12
[INFO] MomentumPredictor: 2049.743 [ms]
[INFO] MatrixAssemblyPI: 915.604 [ms]
[INFO] MatrixAssemblyPII: 457.525 [ms]
DICPCG:  Solving for p, Initial residual = 0.1946905931833064, Final residual = 0.001924076908910218, No Iterations 304
[INFO] SolveP: 44791.528 [ms]
time step continuity errors : sum local = 0.02165564406511832, global = 0.001047593333858619, cumulative = 0.003197940846007331
[INFO] postSolveP: 254.433 [ms]
[OGL LOG][Proc: 0]: global_index_init: 5.545 [ms]
[OGL LOG][Proc: 0]nuTilda_local_coeffs: call_update: 0 [ms]
[OGL LOG][Proc: 0]nuTilda_non_local_coeffs: call_update: 0 [ms]
[OGL LOG][Proc: 0]nuTilda: update_local_matrix_data: 126.232 [ms]
[OGL LOG][Proc: 0]nuTilda: update_non_local_matrix_data: 0.202 [ms]
[OGL LOG][Proc: 0]nuTilda_matrix: call_update: 42.383 [ms]
[OGL LOG][Proc: 0]nuTilda_rhs: call_update: 11.319 [ms]
[OGL LOG][Preconditioner.H:121] Generate preconditioner BJ MaxBlockSize 1
[OGL LOG][Proc: 0]nuTilda: init_precond: 1.804 [ms]
[OGL LOG][StoppingCriterion.H:373] Creating stopping criterion with minIter 2 frequency 1
[OGL LOG][Proc: 0]nuTilda: generate_solver: 0.002 [ms]
[OGL LOG][Proc: 0]nuTilda: solve: 279.98 [ms]
[OGL LOG][Proc: 0]nuTilda: copy_x_back: 16.58 [ms]
[OGL LOG][lduLduBase.H:336] 
Statistics:
	Time per iteration: 139990 [mu s]
	Time per residual norm calculation: 491.000000 [mu s]
	Time per iteration and DOF: 2.774437 [ns]
	Retrieve results bandwidth 3.052000 [GByte/s]
[OGL LOG][Proc: 0]nuTilda: solve_multi_gpu: 355.142 [ms]
BJhipGKOBiCGStab:  Solving for nuTilda, Initial residual = 0.1901787224698828, Final residual = 0.01337835362938489, No Iterations 2
[INFO] TimeStep: 59184.075 [ms]
ExecutionTime = 301 s  ClockTime = 302 s

Time = 4

velocityDampingConstraint velocityDamping damped 366 (0%) of cells, with max limit 300
[INFO] MatrixAssemblyU: 6921.131 [ms]
[OGL LOG][Proc: 0]: global_index_init: 0.212 [ms]
[OGL LOG][Proc: 0]Ux_local_coeffs: call_update: 0 [ms]
[OGL LOG][Proc: 0]Ux_non_local_coeffs: call_update: 0 [ms]
[OGL LOG][Proc: 0]Ux: update_local_matrix_data: 125.08 [ms]
[OGL LOG][Proc: 0]Ux: update_non_local_matrix_data: 0.152 [ms]
[OGL LOG][Proc: 0]Ux_matrix: call_update: 48.784 [ms]
[OGL LOG][Proc: 0]Ux_rhs: call_update: 19.945 [ms]
[OGL LOG][Preconditioner.H:121] Generate preconditioner BJ MaxBlockSize 1
[OGL LOG][Proc: 0]Ux: init_precond: 1.84 [ms]
[OGL LOG][StoppingCriterion.H:373] Creating stopping criterion with minIter 16 frequency 1
[OGL LOG][Proc: 0]Ux: generate_solver: 0.002 [ms]
[OGL LOG][Proc: 0]Ux: solve: 366.207 [ms]
[OGL LOG][Proc: 0]Ux: copy_x_back: 16.114 [ms]
[OGL LOG][lduLduBase.H:336] 
Statistics:
	Time per iteration: 21541 [mu s]
	Time per residual norm calculation: 498.000000 [mu s]
	Time per iteration and DOF: 0.426917 [ns]
	Retrieve results bandwidth 3.141000 [GByte/s]
[OGL LOG][Proc: 0]Ux: solve_multi_gpu: 455.946 [ms]
BJhipGKOBiCGStab:  Solving for Ux, Initial residual = 0.1329490625843986, Final residual = 0.00567382959355966, No Iterations 17
[OGL LOG][Proc: 0]: global_index_init: 0.513 [ms]
[OGL LOG][Proc: 0]Uy_local_coeffs: call_update: 0 [ms]
[OGL LOG][Proc: 0]Uy_non_local_coeffs: call_update: 0 [ms]
[OGL LOG][Proc: 0]Uy: update_local_matrix_data: 125.118 [ms]
[OGL LOG][Proc: 0]Uy: update_non_local_matrix_data: 0.234 [ms]
[OGL LOG][Proc: 0]Uy_matrix: call_update: 46.152 [ms]
[OGL LOG][Proc: 0]Uy_rhs: call_update: 12.364 [ms]
[OGL LOG][Preconditioner.H:121] Generate preconditioner BJ MaxBlockSize 1
[OGL LOG][Proc: 0]Uy: init_precond: 1.799 [ms]
[OGL LOG][StoppingCriterion.H:373] Creating stopping criterion with minIter 22 frequency 1
[OGL LOG][Proc: 0]Uy: generate_solver: 0.002 [ms]
[OGL LOG][Proc: 0]Uy: solve: 337.344 [ms]
[OGL LOG][Proc: 0]Uy: copy_x_back: 16.959 [ms]
[OGL LOG][lduLduBase.H:336] 
Statistics:
	Time per iteration: 30667 [mu s]
	Time per residual norm calculation: 359.000000 [mu s]
	Time per iteration and DOF: 0.607784 [ns]
	Retrieve results bandwidth 2.984000 [GByte/s]
[OGL LOG][Proc: 0]Uy: solve_multi_gpu: 417.673 [ms]
BJhipGKOBiCGStab:  Solving for Uy, Initial residual = 0.1944905999470346, Final residual = 0.01740880388584711, No Iterations 11
[OGL LOG][Proc: 0]: global_index_init: 0.507 [ms]
[OGL LOG][Proc: 0]Uz_local_coeffs: call_update: 0 [ms]
[OGL LOG][Proc: 0]Uz_non_local_coeffs: call_update: 0 [ms]
[OGL LOG][Proc: 0]Uz: update_local_matrix_data: 125.507 [ms]
[OGL LOG][Proc: 0]Uz: update_non_local_matrix_data: 0.251 [ms]
[OGL LOG][Proc: 0]Uz_matrix: call_update: 43.251 [ms]
[OGL LOG][Proc: 0]Uz_rhs: call_update: 30.175 [ms]
[OGL LOG][Preconditioner.H:121] Generate preconditioner BJ MaxBlockSize 1
[OGL LOG][Proc: 0]Uz: init_precond: 1.786 [ms]
[OGL LOG][StoppingCriterion.H:373] Creating stopping criterion with minIter 14 frequency 1
[OGL LOG][Proc: 0]Uz: generate_solver: 0.002 [ms]
[OGL LOG][Proc: 0]Uz: solve: 338.515 [ms]
[OGL LOG][Proc: 0]Uz: copy_x_back: 17.231 [ms]
[OGL LOG][lduLduBase.H:336] 
Statistics:
	Time per iteration: 28209 [mu s]
	Time per residual norm calculation: 486.000000 [mu s]
	Time per iteration and DOF: 0.559069 [ns]
	Retrieve results bandwidth 2.937000 [GByte/s]
[OGL LOG][Proc: 0]Uz: solve_multi_gpu: 433.996 [ms]
BJhipGKOBiCGStab:  Solving for Uz, Initial residual = 0.1884239322629148, Final residual = 0.01558357016131397, No Iterations 12
[INFO] MomentumPredictor: 2049.286 [ms]
[INFO] MatrixAssemblyPI: 916.181 [ms]
[INFO] MatrixAssemblyPII: 456.536 [ms]
DICPCG:  Solving for p, Initial residual = 0.1401977476237136, Final residual = 0.001396875600000034, No Iterations 266
[INFO] SolveP: 39174.53 [ms]
time step continuity errors : sum local = 0.01860188147702671, global = 0.0004607331666265631, cumulative = 0.003658674012633894
[INFO] postSolveP: 256.899 [ms]
[OGL LOG][Proc: 0]: global_index_init: 1.838 [ms]
[OGL LOG][Proc: 0]nuTilda_local_coeffs: call_update: 0 [ms]
[OGL LOG][Proc: 0]nuTilda_non_local_coeffs: call_update: 0 [ms]
[OGL LOG][Proc: 0]nuTilda: update_local_matrix_data: 124.155 [ms]
[OGL LOG][Proc: 0]nuTilda: update_non_local_matrix_data: 0.196 [ms]
[OGL LOG][Proc: 0]nuTilda_matrix: call_update: 53.449 [ms]
[OGL LOG][Proc: 0]nuTilda_rhs: call_update: 11.177 [ms]
[OGL LOG][Preconditioner.H:121] Generate preconditioner BJ MaxBlockSize 1
[OGL LOG][Proc: 0]nuTilda: init_precond: 1.797 [ms]
[OGL LOG][StoppingCriterion.H:373] Creating stopping criterion with minIter 2 frequency 1
[OGL LOG][Proc: 0]nuTilda: generate_solver: 0.002 [ms]
[OGL LOG][Proc: 0]nuTilda: solve: 266.315 [ms]
[OGL LOG][Proc: 0]nuTilda: copy_x_back: 16.728 [ms]
[OGL LOG][lduLduBase.H:336] 
Statistics:
	Time per iteration: 133157 [mu s]
	Time per residual norm calculation: 477.000000 [mu s]
	Time per iteration and DOF: 2.639015 [ns]
	Retrieve results bandwidth 3.025000 [GByte/s]
[OGL LOG][Proc: 0]nuTilda: solve_multi_gpu: 352.522 [ms]
BJhipGKOBiCGStab:  Solving for nuTilda, Initial residual = 0.1158936899479773, Final residual = 0.008738404458202837, No Iterations 2
bounding nuTilda, min: -2.182444472488342e-06 max: 0.001000954041113074 average: 8.442117516056536e-05
[INFO] TimeStep: 54045.768 [ms]
ExecutionTime = 360.43 s  ClockTime = 362 s

Time = 5

velocityDampingConstraint velocityDamping damped 992 (0%) of cells, with max limit 300
[INFO] MatrixAssemblyU: 6880.258 [ms]
[OGL LOG][Proc: 0]: global_index_init: 0.232 [ms]
[OGL LOG][Proc: 0]Ux_local_coeffs: call_update: 0 [ms]
[OGL LOG][Proc: 0]Ux_non_local_coeffs: call_update: 0 [ms]
[OGL LOG][Proc: 0]Ux: update_local_matrix_data: 122.896 [ms]
[OGL LOG][Proc: 0]Ux: update_non_local_matrix_data: 0.159 [ms]
[OGL LOG][Proc: 0]Ux_matrix: call_update: 50.013 [ms]
[OGL LOG][Proc: 0]Ux_rhs: call_update: 13.695 [ms]
[OGL LOG][Preconditioner.H:121] Generate preconditioner BJ MaxBlockSize 1
[OGL LOG][Proc: 0]Ux: init_precond: 1.897 [ms]
[OGL LOG][StoppingCriterion.H:373] Creating stopping criterion with minIter 20 frequency 1
[OGL LOG][Proc: 0]Ux: generate_solver: 0.002 [ms]
[OGL LOG][Proc: 0]Ux: solve: 322.416 [ms]
[OGL LOG][Proc: 0]Ux: copy_x_back: 17.713 [ms]
[OGL LOG][lduLduBase.H:336] 
Statistics:
	Time per iteration: 32241 [mu s]
	Time per residual norm calculation: 359.000000 [mu s]
	Time per iteration and DOF: 0.638979 [ns]
	Retrieve results bandwidth 2.857000 [GByte/s]
[OGL LOG][Proc: 0]Ux: solve_multi_gpu: 408.941 [ms]
BJhipGKOBiCGStab:  Solving for Ux, Initial residual = 0.1002804140408932, Final residual = 0.008762611978872407, No Iterations 10
[OGL LOG][Proc: 0]: global_index_init: 0.507 [ms]
[OGL LOG][Proc: 0]Uy_local_coeffs: call_update: 0 [ms]
[OGL LOG][Proc: 0]Uy_non_local_coeffs: call_update: 0 [ms]
[OGL LOG][Proc: 0]Uy: update_local_matrix_data: 123.865 [ms]
[OGL LOG][Proc: 0]Uy: update_non_local_matrix_data: 0.236 [ms]
[OGL LOG][Proc: 0]Uy_matrix: call_update: 54.643 [ms]
[OGL LOG][Proc: 0]Uy_rhs: call_update: 8.706 [ms]
[OGL LOG][Preconditioner.H:121] Generate preconditioner BJ MaxBlockSize 1
[OGL LOG][Proc: 0]Uy: init_precond: 1.836 [ms]
[OGL LOG][StoppingCriterion.H:373] Creating stopping criterion with minIter 13 frequency 1
[OGL LOG][Proc: 0]Uy: generate_solver: 0.002 [ms]
[OGL LOG][Proc: 0]Uy: solve: 323.317 [ms]
[OGL LOG][Proc: 0]Uy: copy_x_back: 16.384 [ms]
[OGL LOG][lduLduBase.H:336] 
Statistics:
	Time per iteration: 32331 [mu s]
	Time per residual norm calculation: 493.000000 [mu s]
	Time per iteration and DOF: 0.640762 [ns]
	Retrieve results bandwidth 3.089000 [GByte/s]
[OGL LOG][Proc: 0]Uy: solve_multi_gpu: 407.956 [ms]
BJhipGKOBiCGStab:  Solving for Uy, Initial residual = 0.1669683920485533, Final residual = 0.01608534841898977, No Iterations 10
[OGL LOG][Proc: 0]: global_index_init: 0.502 [ms]
[OGL LOG][Proc: 0]Uz_local_coeffs: call_update: 0 [ms]
[OGL LOG][Proc: 0]Uz_non_local_coeffs: call_update: 0 [ms]
[OGL LOG][Proc: 0]Uz: update_local_matrix_data: 123.998 [ms]
[OGL LOG][Proc: 0]Uz: update_non_local_matrix_data: 0.23 [ms]
[OGL LOG][Proc: 0]Uz_matrix: call_update: 46.018 [ms]
[OGL LOG][Proc: 0]Uz_rhs: call_update: 28.118 [ms]
[OGL LOG][Preconditioner.H:121] Generate preconditioner BJ MaxBlockSize 1
[OGL LOG][Proc: 0]Uz: init_precond: 1.786 [ms]
[OGL LOG][StoppingCriterion.H:373] Creating stopping criterion with minIter 14 frequency 1
[OGL LOG][Proc: 0]Uz: generate_solver: 0.002 [ms]
[OGL LOG][Proc: 0]Uz: solve: 339.87 [ms]
[OGL LOG][Proc: 0]Uz: copy_x_back: 16.865 [ms]
[OGL LOG][lduLduBase.H:336] 
Statistics:
	Time per iteration: 33987 [mu s]
	Time per residual norm calculation: 337.000000 [mu s]
	Time per iteration and DOF: 0.673582 [ns]
	Retrieve results bandwidth 3.001000 [GByte/s]
[OGL LOG][Proc: 0]Uz: solve_multi_gpu: 435.71 [ms]
BJhipGKOBiCGStab:  Solving for Uz, Initial residual = 0.1935550199340885, Final residual = 0.01855801356127698, No Iterations 10
[INFO] MomentumPredictor: 1994.136 [ms]
[INFO] MatrixAssemblyPI: 914.478 [ms]
[INFO] MatrixAssemblyPII: 456.896 [ms]
DICPCG:  Solving for p, Initial residual = 0.1477770539645402, Final residual = 0.001475031002801355, No Iterations 153
[INFO] SolveP: 22606.316 [ms]
time step continuity errors : sum local = 0.01012347934917264, global = 0.001619216400678777, cumulative = 0.005277890413312671
[INFO] postSolveP: 254.824 [ms]
[OGL LOG][Proc: 0]: global_index_init: 0.044 [ms]
[OGL LOG][Proc: 0]nuTilda_local_coeffs: call_update: 0 [ms]
[OGL LOG][Proc: 0]nuTilda_non_local_coeffs: call_update: 0 [ms]
[OGL LOG][Proc: 0]nuTilda: update_local_matrix_data: 124.154 [ms]
[OGL LOG][Proc: 0]nuTilda: update_non_local_matrix_data: 0.172 [ms]
[OGL LOG][Proc: 0]nuTilda_matrix: call_update: 43.6 [ms]
[OGL LOG][Proc: 0]nuTilda_rhs: call_update: 9.394 [ms]
[OGL LOG][Preconditioner.H:121] Generate preconditioner BJ MaxBlockSize 1
[OGL LOG][Proc: 0]nuTilda: init_precond: 1.838 [ms]
[OGL LOG][StoppingCriterion.H:373] Creating stopping criterion with minIter 2 frequency 1
[OGL LOG][Proc: 0]nuTilda: generate_solver: 0.002 [ms]
[OGL LOG][Proc: 0]nuTilda: solve: 280.495 [ms]
[OGL LOG][Proc: 0]nuTilda: copy_x_back: 16.509 [ms]
[OGL LOG][lduLduBase.H:336] 
Statistics:
	Time per iteration: 140247 [mu s]
	Time per residual norm calculation: 530.000000 [mu s]
	Time per iteration and DOF: 2.779530 [ns]
	Retrieve results bandwidth 3.066000 [GByte/s]
[OGL LOG][Proc: 0]nuTilda: solve_multi_gpu: 354.887 [ms]
BJhipGKOBiCGStab:  Solving for nuTilda, Initial residual = 0.0629805529195009, Final residual = 0.004921347438115319, No Iterations 2
bounding nuTilda, min: -2.64313026792866e-06 max: 0.001245861730601172 average: 8.869210824368047e-05
[INFO] TimeStep: 37235.363 [ms]
ExecutionTime = 403.07 s  ClockTime = 405 s

Time = 6

velocityDampingConstraint velocityDamping damped 0 (0%) of cells, with max limit 300
[INFO] MatrixAssemblyU: 6709.997 [ms]
[OGL LOG][Proc: 0]: global_index_init: 0.229 [ms]
[OGL LOG][Proc: 0]Ux_local_coeffs: call_update: 0 [ms]
[OGL LOG][Proc: 0]Ux_non_local_coeffs: call_update: 0 [ms]
[OGL LOG][Proc: 0]Ux: update_local_matrix_data: 129.999 [ms]
[OGL LOG][Proc: 0]Ux: update_non_local_matrix_data: 0.238 [ms]
[OGL LOG][Proc: 0]Ux_matrix: call_update: 51.455 [ms]
[OGL LOG][Proc: 0]Ux_rhs: call_update: 7.416 [ms]
[OGL LOG][Preconditioner.H:121] Generate preconditioner BJ MaxBlockSize 1
[OGL LOG][Proc: 0]Ux: init_precond: 2.751 [ms]
[OGL LOG][StoppingCriterion.H:373] Creating stopping criterion with minIter 12 frequency 1
[OGL LOG][Proc: 0]Ux: generate_solver: 0.002 [ms]
[OGL LOG][Proc: 0]Ux: solve: 323.408 [ms]
[OGL LOG][Proc: 0]Ux: copy_x_back: 16.359 [ms]
[OGL LOG][lduLduBase.H:336] 
Statistics:
	Time per iteration: 29400 [mu s]
	Time per residual norm calculation: 486.000000 [mu s]
	Time per iteration and DOF: 0.582673 [ns]
	Retrieve results bandwidth 3.094000 [GByte/s]
[OGL LOG][Proc: 0]Ux: solve_multi_gpu: 404.453 [ms]
BJhipGKOBiCGStab:  Solving for Ux, Initial residual = 0.03622076426779353, Final residual = 0.00334048938249993, No Iterations 11
[OGL LOG][Proc: 0]: global_index_init: 1.327 [ms]
[OGL LOG][Proc: 0]Uy_local_coeffs: call_update: 0 [ms]
[OGL LOG][Proc: 0]Uy_non_local_coeffs: call_update: 0 [ms]
[OGL LOG][Proc: 0]Uy: update_local_matrix_data: 127.634 [ms]
[OGL LOG][Proc: 0]Uy: update_non_local_matrix_data: 0.245 [ms]
[OGL LOG][Proc: 0]Uy_matrix: call_update: 45.429 [ms]
[OGL LOG][Proc: 0]Uy_rhs: call_update: 14.718 [ms]
[OGL LOG][Preconditioner.H:121] Generate preconditioner BJ MaxBlockSize 1
[OGL LOG][Proc: 0]Uy: init_precond: 1.792 [ms]
[OGL LOG][StoppingCriterion.H:373] Creating stopping criterion with minIter 12 frequency 1
[OGL LOG][Proc: 0]Uy: generate_solver: 0.002 [ms]
[OGL LOG][Proc: 0]Uy: solve: 331.552 [ms]
[OGL LOG][Proc: 0]Uy: copy_x_back: 16.96 [ms]
[OGL LOG][lduLduBase.H:336] 
Statistics:
	Time per iteration: 30141 [mu s]
	Time per residual norm calculation: 478.000000 [mu s]
	Time per iteration and DOF: 0.597359 [ns]
	Retrieve results bandwidth 2.984000 [GByte/s]
[OGL LOG][Proc: 0]Uy: solve_multi_gpu: 413.491 [ms]
BJhipGKOBiCGStab:  Solving for Uy, Initial residual = 0.09112959297918401, Final residual = 0.00732982143235647, No Iterations 11
[OGL LOG][Proc: 0]: global_index_init: 0.534 [ms]
[OGL LOG][Proc: 0]Uz_local_coeffs: call_update: 0 [ms]
[OGL LOG][Proc: 0]Uz_non_local_coeffs: call_update: 0 [ms]
[OGL LOG][Proc: 0]Uz: update_local_matrix_data: 123.111 [ms]
[OGL LOG][Proc: 0]Uz: update_non_local_matrix_data: 0.238 [ms]
[OGL LOG][Proc: 0]Uz_matrix: call_update: 47.558 [ms]
[OGL LOG][Proc: 0]Uz_rhs: call_update: 33.503 [ms]
[OGL LOG][Preconditioner.H:121] Generate preconditioner BJ MaxBlockSize 1
[OGL LOG][Proc: 0]Uz: init_precond: 1.789 [ms]
[OGL LOG][StoppingCriterion.H:373] Creating stopping criterion with minIter 12 frequency 1
[OGL LOG][Proc: 0]Uz: generate_solver: 0.002 [ms]
[OGL LOG][Proc: 0]Uz: solve: 322.713 [ms]
[OGL LOG][Proc: 0]Uz: copy_x_back: 17.17 [ms]
[OGL LOG][lduLduBase.H:336] 
Statistics:
	Time per iteration: 32271 [mu s]
	Time per residual norm calculation: 331.000000 [mu s]
	Time per iteration and DOF: 0.639573 [ns]
	Retrieve results bandwidth 2.948000 [GByte/s]
[OGL LOG][Proc: 0]Uz: solve_multi_gpu: 425.769 [ms]
BJhipGKOBiCGStab:  Solving for Uz, Initial residual = 0.09999899092973386, Final residual = 0.009166699599607031, No Iterations 10
[INFO] MomentumPredictor: 1995.978 [ms]
[INFO] MatrixAssemblyPI: 915.0410000000001 [ms]
[INFO] MatrixAssemblyPII: 456.999 [ms]
DICPCG:  Solving for p, Initial residual = 0.1120650053947612, Final residual = 0.001115721528300685, No Iterations 264
[INFO] SolveP: 38982.321 [ms]
time step continuity errors : sum local = 0.008870166396802529, global = -9.701523983215761e-05, cumulative = 0.005180875173480514
[INFO] postSolveP: 255.311 [ms]
[OGL LOG][Proc: 0]: global_index_init: 0.744 [ms]
[OGL LOG][Proc: 0]nuTilda_local_coeffs: call_update: 0 [ms]
[OGL LOG][Proc: 0]nuTilda_non_local_coeffs: call_update: 0 [ms]
[OGL LOG][Proc: 0]nuTilda: update_local_matrix_data: 124.578 [ms]
[OGL LOG][Proc: 0]nuTilda: update_non_local_matrix_data: 0.197 [ms]
[OGL LOG][Proc: 0]nuTilda_matrix: call_update: 42.606 [ms]
[OGL LOG][Proc: 0]nuTilda_rhs: call_update: 14.962 [ms]
[OGL LOG][Preconditioner.H:121] Generate preconditioner BJ MaxBlockSize 1
[OGL LOG][Proc: 0]nuTilda: init_precond: 1.794 [ms]
[OGL LOG][StoppingCriterion.H:373] Creating stopping criterion with minIter 2 frequency 1
[OGL LOG][Proc: 0]nuTilda: generate_solver: 0.002 [ms]
[OGL LOG][Proc: 0]nuTilda: solve: 282.928 [ms]
[OGL LOG][Proc: 0]nuTilda: copy_x_back: 16.662 [ms]
[OGL LOG][lduLduBase.H:336] 
Statistics:
	Time per iteration: 141464 [mu s]
	Time per residual norm calculation: 495.000000 [mu s]
	Time per iteration and DOF: 2.803650 [ns]
	Retrieve results bandwidth 3.037000 [GByte/s]
[OGL LOG][Proc: 0]nuTilda: solve_multi_gpu: 362.043 [ms]
BJhipGKOBiCGStab:  Solving for nuTilda, Initial residual = 0.05737330955003411, Final residual = 0.005375163837340354, No Iterations 2
[INFO] TimeStep: 53248.168 [ms]
ExecutionTime = 461.53 s  ClockTime = 463 s

Time = 7

velocityDampingConstraint velocityDamping damped 0 (0%) of cells, with max limit 300
[INFO] MatrixAssemblyU: 6602.628 [ms]
[OGL LOG][Proc: 0]: global_index_init: 0.236 [ms]
[OGL LOG][Proc: 0]Ux_local_coeffs: call_update: 0 [ms]
[OGL LOG][Proc: 0]Ux_non_local_coeffs: call_update: 0 [ms]
[OGL LOG][Proc: 0]Ux: update_local_matrix_data: 123.909 [ms]
[OGL LOG][Proc: 0]Ux: update_non_local_matrix_data: 0.163 [ms]
[OGL LOG][Proc: 0]Ux_matrix: call_update: 40.864 [ms]
[OGL LOG][Proc: 0]Ux_rhs: call_update: 13.763 [ms]
[OGL LOG][Preconditioner.H:121] Generate preconditioner BJ MaxBlockSize 1
[OGL LOG][Proc: 0]Ux: init_precond: 1.787 [ms]
[OGL LOG][StoppingCriterion.H:373] Creating stopping criterion with minIter 13 frequency 1
[OGL LOG][Proc: 0]Ux: generate_solver: 0.003 [ms]
[OGL LOG][Proc: 0]Ux: solve: 332.426 [ms]
[OGL LOG][Proc: 0]Ux: copy_x_back: 16.354 [ms]
[OGL LOG][lduLduBase.H:336] 
Statistics:
	Time per iteration: 30220 [mu s]
	Time per residual norm calculation: 521.000000 [mu s]
	Time per iteration and DOF: 0.598925 [ns]
	Retrieve results bandwidth 3.095000 [GByte/s]
[OGL LOG][Proc: 0]Ux: solve_multi_gpu: 408.262 [ms]
BJhipGKOBiCGStab:  Solving for Ux, Initial residual = 0.026822079490896, Final residual = 0.002289171134039888, No Iterations 11
[OGL LOG][Proc: 0]: global_index_init: 0.521 [ms]
[OGL LOG][Proc: 0]Uy_local_coeffs: call_update: 0 [ms]
[OGL LOG][Proc: 0]Uy_non_local_coeffs: call_update: 0 [ms]
[OGL LOG][Proc: 0]Uy: update_local_matrix_data: 124.862 [ms]
[OGL LOG][Proc: 0]Uy: update_non_local_matrix_data: 0.225 [ms]
[OGL LOG][Proc: 0]Uy_matrix: call_update: 54.522 [ms]
[OGL LOG][Proc: 0]Uy_rhs: call_update: 5.448 [ms]
[OGL LOG][Preconditioner.H:121] Generate preconditioner BJ MaxBlockSize 1
[OGL LOG][Proc: 0]Uy: init_precond: 1.844 [ms]
[OGL LOG][StoppingCriterion.H:373] Creating stopping criterion with minIter 13 frequency 1
[OGL LOG][Proc: 0]Uy: generate_solver: 0.002 [ms]
[OGL LOG][Proc: 0]Uy: solve: 320.484 [ms]
[OGL LOG][Proc: 0]Uy: copy_x_back: 19.071 [ms]
[OGL LOG][lduLduBase.H:336] 
Statistics:
	Time per iteration: 29134 [mu s]
	Time per residual norm calculation: 488.000000 [mu s]
	Time per iteration and DOF: 0.577402 [ns]
	Retrieve results bandwidth 2.654000 [GByte/s]
[OGL LOG][Proc: 0]Uy: solve_multi_gpu: 404.455 [ms]
BJhipGKOBiCGStab:  Solving for Uy, Initial residual = 0.07739830004372511, Final residual = 0.006372789458863684, No Iterations 11
[OGL LOG][Proc: 0]: global_index_init: 0.435 [ms]
[OGL LOG][Proc: 0]Uz_local_coeffs: call_update: 0 [ms]
[OGL LOG][Proc: 0]Uz_non_local_coeffs: call_update: 0 [ms]
[OGL LOG][Proc: 0]Uz: update_local_matrix_data: 124.717 [ms]
[OGL LOG][Proc: 0]Uz: update_non_local_matrix_data: 0.219 [ms]
[OGL LOG][Proc: 0]Uz_matrix: call_update: 57.651 [ms]
[OGL LOG][Proc: 0]Uz_rhs: call_update: 17.97 [ms]
[OGL LOG][Preconditioner.H:121] Generate preconditioner BJ MaxBlockSize 1
[OGL LOG][Proc: 0]Uz: init_precond: 1.784 [ms]
[OGL LOG][StoppingCriterion.H:373] Creating stopping criterion with minIter 12 frequency 1
[OGL LOG][Proc: 0]Uz: generate_solver: 0.002 [ms]
[OGL LOG][Proc: 0]Uz: solve: 328.634 [ms]
[OGL LOG][Proc: 0]Uz: copy_x_back: 21.224 [ms]
[OGL LOG][lduLduBase.H:336] 
Statistics:
	Time per iteration: 29875 [mu s]
	Time per residual norm calculation: 488.000000 [mu s]
	Time per iteration and DOF: 0.592087 [ns]
	Retrieve results bandwidth 2.384000 [GByte/s]
[OGL LOG][Proc: 0]Uz: solve_multi_gpu: 430.32 [ms]
BJhipGKOBiCGStab:  Solving for Uz, Initial residual = 0.07228453544221605, Final residual = 0.00700870447868243, No Iterations 11
[INFO] MomentumPredictor: 1980.528 [ms]
[INFO] MatrixAssemblyPI: 915.146 [ms]
[INFO] MatrixAssemblyPII: 457.608 [ms]
DICPCG:  Solving for p, Initial residual = 0.08201908994718873, Final residual = 0.0008098999452607143, No Iterations 110
[INFO] SolveP: 16309.89 [ms]
time step continuity errors : sum local = 0.007553995746360662, global = 0.0001657466599742151, cumulative = 0.005346621833454729
[INFO] postSolveP: 254.398 [ms]
[OGL LOG][Proc: 0]: global_index_init: 0.049 [ms]
[OGL LOG][Proc: 0]nuTilda_local_coeffs: call_update: 0 [ms]
[OGL LOG][Proc: 0]nuTilda_non_local_coeffs: call_update: 0 [ms]
[OGL LOG][Proc: 0]nuTilda: update_local_matrix_data: 124.684 [ms]
[OGL LOG][Proc: 0]nuTilda: update_non_local_matrix_data: 0.171 [ms]
[OGL LOG][Proc: 0]nuTilda_matrix: call_update: 46.953 [ms]
[OGL LOG][Proc: 0]nuTilda_rhs: call_update: 15.769 [ms]
[OGL LOG][Preconditioner.H:121] Generate preconditioner BJ MaxBlockSize 1
[OGL LOG][Proc: 0]nuTilda: init_precond: 1.788 [ms]
[OGL LOG][StoppingCriterion.H:373] Creating stopping criterion with minIter 2 frequency 1
[OGL LOG][Proc: 0]nuTilda: generate_solver: 0.002 [ms]
[OGL LOG][Proc: 0]nuTilda: solve: 276.429 [ms]
[OGL LOG][Proc: 0]nuTilda: copy_x_back: 17.368 [ms]
[OGL LOG][lduLduBase.H:336] 
Statistics:
	Time per iteration: 138214 [mu s]
	Time per residual norm calculation: 490.000000 [mu s]
	Time per iteration and DOF: 2.739239 [ns]
	Retrieve results bandwidth 2.914000 [GByte/s]
[OGL LOG][Proc: 0]nuTilda: solve_multi_gpu: 361.336 [ms]
BJhipGKOBiCGStab:  Solving for nuTilda, Initial residual = 0.04740014817081405, Final residual = 0.004594002629902332, No Iterations 2
bounding nuTilda, min: -4.048977980081664e-05 max: 0.001576325970289156 average: 9.260185736743957e-05
[INFO] TimeStep: 30598.815 [ms]
ExecutionTime = 497.33 s  ClockTime = 499 s

Time = 8

velocityDampingConstraint velocityDamping damped 0 (0%) of cells, with max limit 300
[INFO] MatrixAssemblyU: 6508.099 [ms]
[OGL LOG][Proc: 0]: global_index_init: 0.391 [ms]
[OGL LOG][Proc: 0]Ux_local_coeffs: call_update: 0 [ms]
[OGL LOG][Proc: 0]Ux_non_local_coeffs: call_update: 0 [ms]
[OGL LOG][Proc: 0]Ux: update_local_matrix_data: 123.821 [ms]
[OGL LOG][Proc: 0]Ux: update_non_local_matrix_data: 0.233 [ms]
[OGL LOG][Proc: 0]Ux_matrix: call_update: 45.534 [ms]
[OGL LOG][Proc: 0]Ux_rhs: call_update: 8.782 [ms]
[OGL LOG][Preconditioner.H:121] Generate preconditioner BJ MaxBlockSize 1
[OGL LOG][Proc: 0]Ux: init_precond: 1.831 [ms]
[OGL LOG][StoppingCriterion.H:373] Creating stopping criterion with minIter 13 frequency 1
[OGL LOG][Proc: 0]Ux: generate_solver: 0.002 [ms]
[OGL LOG][Proc: 0]Ux: solve: 336.918 [ms]
[OGL LOG][Proc: 0]Ux: copy_x_back: 16.64 [ms]
[OGL LOG][lduLduBase.H:336] 
Statistics:
	Time per iteration: 28076 [mu s]
	Time per residual norm calculation: 493.000000 [mu s]
	Time per iteration and DOF: 0.556433 [ns]
	Retrieve results bandwidth 3.041000 [GByte/s]
[OGL LOG][Proc: 0]Ux: solve_multi_gpu: 412.747 [ms]
BJhipGKOBiCGStab:  Solving for Ux, Initial residual = 0.02046856980776011, Final residual = 0.001344411884807826, No Iterations 12
[OGL LOG][Proc: 0]: global_index_init: 0.498 [ms]
[OGL LOG][Proc: 0]Uy_local_coeffs: call_update: 0 [ms]
[OGL LOG][Proc: 0]Uy_non_local_coeffs: call_update: 0 [ms]
[OGL LOG][Proc: 0]Uy: update_local_matrix_data: 123.403 [ms]
[OGL LOG][Proc: 0]Uy: update_non_local_matrix_data: 0.213 [ms]
[OGL LOG][Proc: 0]Uy_matrix: call_update: 43.381 [ms]
[OGL LOG][Proc: 0]Uy_rhs: call_update: 8.000999999999999 [ms]
[OGL LOG][Preconditioner.H:121] Generate preconditioner BJ MaxBlockSize 1
[OGL LOG][Proc: 0]Uy: init_precond: 1.833 [ms]
[OGL LOG][StoppingCriterion.H:373] Creating stopping criterion with minIter 13 frequency 1
[OGL LOG][Proc: 0]Uy: generate_solver: 0.002 [ms]
[OGL LOG][Proc: 0]Uy: solve: 341.556 [ms]
[OGL LOG][Proc: 0]Uy: copy_x_back: 17.006 [ms]
[OGL LOG][lduLduBase.H:336] 
Statistics:
	Time per iteration: 31050 [mu s]
	Time per residual norm calculation: 336.000000 [mu s]
	Time per iteration and DOF: 0.615374 [ns]
	Retrieve results bandwidth 2.976000 [GByte/s]
[OGL LOG][Proc: 0]Uy: solve_multi_gpu: 414.828 [ms]
BJhipGKOBiCGStab:  Solving for Uy, Initial residual = 0.05697703643781891, Final residual = 0.005080217979158752, No Iterations 11
[OGL LOG][Proc: 0]: global_index_init: 1.738 [ms]
[OGL LOG][Proc: 0]Uz_local_coeffs: call_update: 0 [ms]
[OGL LOG][Proc: 0]Uz_non_local_coeffs: call_update: 0 [ms]
[OGL LOG][Proc: 0]Uz: update_local_matrix_data: 123.978 [ms]
[OGL LOG][Proc: 0]Uz: update_non_local_matrix_data: 0.213 [ms]
[OGL LOG][Proc: 0]Uz_matrix: call_update: 53.904 [ms]
[OGL LOG][Proc: 0]Uz_rhs: call_update: 7.88 [ms]
[OGL LOG][Preconditioner.H:121] Generate preconditioner BJ MaxBlockSize 1
[OGL LOG][Proc: 0]Uz: init_precond: 1.842 [ms]
[OGL LOG][StoppingCriterion.H:373] Creating stopping criterion with minIter 13 frequency 1
[OGL LOG][Proc: 0]Uz: generate_solver: 0.002 [ms]
[OGL LOG][Proc: 0]Uz: solve: 322.347 [ms]
[OGL LOG][Proc: 0]Uz: copy_x_back: 16.62 [ms]
[OGL LOG][lduLduBase.H:336] 
Statistics:
	Time per iteration: 29304 [mu s]
	Time per residual norm calculation: 521.000000 [mu s]
	Time per iteration and DOF: 0.580771 [ns]
	Retrieve results bandwidth 3.045000 [GByte/s]
[OGL LOG][Proc: 0]Uz: solve_multi_gpu: 405.628 [ms]
BJhipGKOBiCGStab:  Solving for Uz, Initial residual = 0.06078853919059008, Final residual = 0.005220501767980609, No Iterations 11
[INFO] MomentumPredictor: 1975.79 [ms]
[INFO] MatrixAssemblyPI: 916.254 [ms]
[INFO] MatrixAssemblyPII: 458.517 [ms]
DICPCG:  Solving for p, Initial residual = 0.07274374968211501, Final residual = 0.0007166012330133266, No Iterations 107
[INFO] SolveP: 15845.136 [ms]
time step continuity errors : sum local = 0.006556521897458262, global = -4.733920244332746e-05, cumulative = 0.005299282631011402
[INFO] postSolveP: 250.085 [ms]
[OGL LOG][Proc: 0]: global_index_init: 0.063 [ms]
[OGL LOG][Proc: 0]nuTilda_local_coeffs: call_update: 0 [ms]
[OGL LOG][Proc: 0]nuTilda_non_local_coeffs: call_update: 0 [ms]
[OGL LOG][Proc: 0]nuTilda: update_local_matrix_data: 123.614 [ms]
[OGL LOG][Proc: 0]nuTilda: update_non_local_matrix_data: 0.189 [ms]
[OGL LOG][Proc: 0]nuTilda_matrix: call_update: 54.858 [ms]
[OGL LOG][Proc: 0]nuTilda_rhs: call_update: 6.387 [ms]
[OGL LOG][Preconditioner.H:121] Generate preconditioner BJ MaxBlockSize 1
[OGL LOG][Proc: 0]nuTilda: init_precond: 1.832 [ms]
[OGL LOG][StoppingCriterion.H:373] Creating stopping criterion with minIter 2 frequency 1
[OGL LOG][Proc: 0]nuTilda: generate_solver: 0.002 [ms]
[OGL LOG][Proc: 0]nuTilda: solve: 301.253 [ms]
[OGL LOG][Proc: 0]nuTilda: copy_x_back: 16.802 [ms]
[OGL LOG][lduLduBase.H:336] 
Statistics:
	Time per iteration: 150626 [mu s]
	Time per residual norm calculation: 303.000000 [mu s]
	Time per iteration and DOF: 2.985230 [ns]
	Retrieve results bandwidth 3.012000 [GByte/s]
[OGL LOG][Proc: 0]nuTilda: solve_multi_gpu: 384.162 [ms]
BJhipGKOBiCGStab:  Solving for nuTilda, Initial residual = 0.05183326258831095, Final residual = 0.002770274241228212, No Iterations 2
[INFO] TimeStep: 29853.065 [ms]
ExecutionTime = 532.35 s  ClockTime = 534 s

Time = 9

velocityDampingConstraint velocityDamping damped 0 (0%) of cells, with max limit 300
[INFO] MatrixAssemblyU: 6457.28 [ms]
[OGL LOG][Proc: 0]: global_index_init: 0.256 [ms]
[OGL LOG][Proc: 0]Ux_local_coeffs: call_update: 0 [ms]
[OGL LOG][Proc: 0]Ux_non_local_coeffs: call_update: 0 [ms]
[OGL LOG][Proc: 0]Ux: update_local_matrix_data: 123.464 [ms]
[OGL LOG][Proc: 0]Ux: update_non_local_matrix_data: 0.163 [ms]
[OGL LOG][Proc: 0]Ux_matrix: call_update: 50.095 [ms]
[OGL LOG][Proc: 0]Ux_rhs: call_update: 9.532999999999999 [ms]
[OGL LOG][Preconditioner.H:121] Generate preconditioner BJ MaxBlockSize 1
[OGL LOG][Proc: 0]Ux: init_precond: 1.833 [ms]
[OGL LOG][StoppingCriterion.H:373] Creating stopping criterion with minIter 14 frequency 1
[OGL LOG][Proc: 0]Ux: generate_solver: 0.002 [ms]
[OGL LOG][Proc: 0]Ux: solve: 354.818 [ms]
[OGL LOG][Proc: 0]Ux: copy_x_back: 17.214 [ms]
[OGL LOG][lduLduBase.H:336] 
Statistics:
	Time per iteration: 27293 [mu s]
	Time per residual norm calculation: 493.000000 [mu s]
	Time per iteration and DOF: 0.540915 [ns]
	Retrieve results bandwidth 2.940000 [GByte/s]
[OGL LOG][Proc: 0]Ux: solve_multi_gpu: 436.548 [ms]
BJhipGKOBiCGStab:  Solving for Ux, Initial residual = 0.01759064124312769, Final residual = 0.0009002584300946607, No Iterations 13
[OGL LOG][Proc: 0]: global_index_init: 0.541 [ms]
[OGL LOG][Proc: 0]Uy_local_coeffs: call_update: 0 [ms]
[OGL LOG][Proc: 0]Uy_non_local_coeffs: call_update: 0 [ms]
[OGL LOG][Proc: 0]Uy: update_local_matrix_data: 123.764 [ms]
[OGL LOG][Proc: 0]Uy: update_non_local_matrix_data: 0.15 [ms]
[OGL LOG][Proc: 0]Uy_matrix: call_update: 42.593 [ms]
[OGL LOG][Proc: 0]Uy_rhs: call_update: 14.389 [ms]
[OGL LOG][Preconditioner.H:121] Generate preconditioner BJ MaxBlockSize 1
[OGL LOG][Proc: 0]Uy: init_precond: 1.782 [ms]
[OGL LOG][StoppingCriterion.H:373] Creating stopping criterion with minIter 13 frequency 1
[OGL LOG][Proc: 0]Uy: generate_solver: 0.002 [ms]
[OGL LOG][Proc: 0]Uy: solve: 345.021 [ms]
[OGL LOG][Proc: 0]Uy: copy_x_back: 16.789 [ms]
[OGL LOG][lduLduBase.H:336] 
Statistics:
	Time per iteration: 28751 [mu s]
	Time per residual norm calculation: 333.000000 [mu s]
	Time per iteration and DOF: 0.569811 [ns]
	Retrieve results bandwidth 3.014000 [GByte/s]
[OGL LOG][Proc: 0]Uy: solve_multi_gpu: 423.622 [ms]
BJhipGKOBiCGStab:  Solving for Uy, Initial residual = 0.05032466634701995, Final residual = 0.004976154918180039, No Iterations 12
[OGL LOG][Proc: 0]: global_index_init: 1.047 [ms]
[OGL LOG][Proc: 0]Uz_local_coeffs: call_update: 0 [ms]
[OGL LOG][Proc: 0]Uz_non_local_coeffs: call_update: 0 [ms]
[OGL LOG][Proc: 0]Uz: update_local_matrix_data: 124.175 [ms]
[OGL LOG][Proc: 0]Uz: update_non_local_matrix_data: 0.149 [ms]
[OGL LOG][Proc: 0]Uz_matrix: call_update: 50.294 [ms]
[OGL LOG][Proc: 0]Uz_rhs: call_update: 22.689 [ms]
[OGL LOG][Preconditioner.H:121] Generate preconditioner BJ MaxBlockSize 1
[OGL LOG][Proc: 0]Uz: init_precond: 1.77 [ms]
[OGL LOG][StoppingCriterion.H:373] Creating stopping criterion with minIter 13 frequency 1
[OGL LOG][Proc: 0]Uz: generate_solver: 0.001 [ms]
[OGL LOG][Proc: 0]Uz: solve: 323.75 [ms]
[OGL LOG][Proc: 0]Uz: copy_x_back: 16.829 [ms]
[OGL LOG][lduLduBase.H:336] 
Statistics:
	Time per iteration: 32375 [mu s]
	Time per residual norm calculation: 334.000000 [mu s]
	Time per iteration and DOF: 0.641634 [ns]
	Retrieve results bandwidth 3.007000 [GByte/s]
[OGL LOG][Proc: 0]Uz: solve_multi_gpu: 418.386 [ms]
BJhipGKOBiCGStab:  Solving for Uz, Initial residual = 0.04986882170984002, Final residual = 0.00448931302264517, No Iterations 10
[INFO] MomentumPredictor: 2014.977 [ms]
[INFO] MatrixAssemblyPI: 915.147 [ms]
[INFO] MatrixAssemblyPII: 455.617 [ms]
DICPCG:  Solving for p, Initial residual = 0.06754533778826528, Final residual = 0.0006739699203553016, No Iterations 101
[INFO] SolveP: 14958.526 [ms]
time step continuity errors : sum local = 0.006080341721161908, global = -0.0002320626835384059, cumulative = 0.005067219947472995
[INFO] postSolveP: 252.122 [ms]
[OGL LOG][Proc: 0]: global_index_init: 0.045 [ms]
[OGL LOG][Proc: 0]nuTilda_local_coeffs: call_update: 0 [ms]
[OGL LOG][Proc: 0]nuTilda_non_local_coeffs: call_update: 0 [ms]
[OGL LOG][Proc: 0]nuTilda: update_local_matrix_data: 124.829 [ms]
[OGL LOG][Proc: 0]nuTilda: update_non_local_matrix_data: 0.176 [ms]
[OGL LOG][Proc: 0]nuTilda_matrix: call_update: 52.764 [ms]
[OGL LOG][Proc: 0]nuTilda_rhs: call_update: 12.878 [ms]
[OGL LOG][Preconditioner.H:121] Generate preconditioner BJ MaxBlockSize 1
[OGL LOG][Proc: 0]nuTilda: init_precond: 1.782 [ms]
[OGL LOG][StoppingCriterion.H:373] Creating stopping criterion with minIter 3 frequency 1
[OGL LOG][Proc: 0]nuTilda: generate_solver: 0.002 [ms]
[OGL LOG][Proc: 0]nuTilda: solve: 272.106 [ms]
[OGL LOG][Proc: 0]nuTilda: copy_x_back: 16.445 [ms]
[OGL LOG][lduLduBase.H:336] 
Statistics:
	Time per iteration: 136053 [mu s]
	Time per residual norm calculation: 496.000000 [mu s]
	Time per iteration and DOF: 2.696410 [ns]
	Retrieve results bandwidth 3.077000 [GByte/s]
[OGL LOG][Proc: 0]nuTilda: solve_multi_gpu: 359.254 [ms]
BJhipGKOBiCGStab:  Solving for nuTilda, Initial residual = 0.04206156920002688, Final residual = 0.003795675664650707, No Iterations 2
[INFO] TimeStep: 28929.861 [ms]
ExecutionTime = 566.39 s  ClockTime = 569 s

Time = 10

velocityDampingConstraint velocityDamping damped 0 (0%) of cells, with max limit 300
[INFO] MatrixAssemblyU: 6435.844 [ms]
[OGL LOG][Proc: 0]: global_index_init: 0.496 [ms]
[OGL LOG][Proc: 0]Ux_local_coeffs: call_update: 0 [ms]
[OGL LOG][Proc: 0]Ux_non_local_coeffs: call_update: 0 [ms]
[OGL LOG][Proc: 0]Ux: update_local_matrix_data: 124.807 [ms]
[OGL LOG][Proc: 0]Ux: update_non_local_matrix_data: 0.152 [ms]
[OGL LOG][Proc: 0]Ux_matrix: call_update: 48.916 [ms]
[OGL LOG][Proc: 0]Ux_rhs: call_update: 17.109 [ms]
[OGL LOG][Preconditioner.H:121] Generate preconditioner BJ MaxBlockSize 1
[OGL LOG][Proc: 0]Ux: init_precond: 1.765 [ms]
[OGL LOG][StoppingCriterion.H:373] Creating stopping criterion with minIter 15 frequency 1
[OGL LOG][Proc: 0]Ux: generate_solver: 0.002 [ms]
[OGL LOG][Proc: 0]Ux: solve: 346.666 [ms]
[OGL LOG][Proc: 0]Ux: copy_x_back: 16.359 [ms]
[OGL LOG][lduLduBase.H:336] 
Statistics:
	Time per iteration: 26666 [mu s]
	Time per residual norm calculation: 479.000000 [mu s]
	Time per iteration and DOF: 0.528489 [ns]
	Retrieve results bandwidth 3.094000 [GByte/s]
[OGL LOG][Proc: 0]Ux: solve_multi_gpu: 433.865 [ms]
BJhipGKOBiCGStab:  Solving for Ux, Initial residual = 0.01587977161460853, Final residual = 0.001568589171656675, No Iterations 13
[OGL LOG][Proc: 0]: global_index_init: 0.524 [ms]
[OGL LOG][Proc: 0]Uy_local_coeffs: call_update: 0 [ms]
[OGL LOG][Proc: 0]Uy_non_local_coeffs: call_update: 0 [ms]
[OGL LOG][Proc: 0]Uy: update_local_matrix_data: 125.837 [ms]
[OGL LOG][Proc: 0]Uy: update_non_local_matrix_data: 0.226 [ms]
[OGL LOG][Proc: 0]Uy_matrix: call_update: 44.461 [ms]
[OGL LOG][Proc: 0]Uy_rhs: call_update: 15.731 [ms]
[OGL LOG][Preconditioner.H:121] Generate preconditioner BJ MaxBlockSize 1
[OGL LOG][Proc: 0]Uy: init_precond: 1.813 [ms]
[OGL LOG][StoppingCriterion.H:373] Creating stopping criterion with minIter 15 frequency 1
[OGL LOG][Proc: 0]Uy: generate_solver: 0.002 [ms]
[OGL LOG][Proc: 0]Uy: solve: 343.497 [ms]
[OGL LOG][Proc: 0]Uy: copy_x_back: 17.157 [ms]
[OGL LOG][lduLduBase.H:336] 
Statistics:
	Time per iteration: 26422 [mu s]
	Time per residual norm calculation: 325.000000 [mu s]
	Time per iteration and DOF: 0.523653 [ns]
	Retrieve results bandwidth 2.950000 [GByte/s]
[OGL LOG][Proc: 0]Uy: solve_multi_gpu: 425.732 [ms]
BJhipGKOBiCGStab:  Solving for Uy, Initial residual = 0.04951347865082083, Final residual = 0.00486543840918053, No Iterations 13
[OGL LOG][Proc: 0]: global_index_init: 0.509 [ms]
[OGL LOG][Proc: 0]Uz_local_coeffs: call_update: 0 [ms]
[OGL LOG][Proc: 0]Uz_non_local_coeffs: call_update: 0 [ms]
[OGL LOG][Proc: 0]Uz: update_local_matrix_data: 126.599 [ms]
[OGL LOG][Proc: 0]Uz: update_non_local_matrix_data: 0.224 [ms]
[OGL LOG][Proc: 0]Uz_matrix: call_update: 47.028 [ms]
[OGL LOG][Proc: 0]Uz_rhs: call_update: 24.841 [ms]
[OGL LOG][Preconditioner.H:121] Generate preconditioner BJ MaxBlockSize 1
[OGL LOG][Proc: 0]Uz: init_precond: 1.814 [ms]
[OGL LOG][StoppingCriterion.H:373] Creating stopping criterion with minIter 12 frequency 1
[OGL LOG][Proc: 0]Uz: generate_solver: 0.002 [ms]
[OGL LOG][Proc: 0]Uz: solve: 333.851 [ms]
[OGL LOG][Proc: 0]Uz: copy_x_back: 20.068 [ms]
[OGL LOG][lduLduBase.H:336] 
Statistics:
	Time per iteration: 30350 [mu s]
	Time per residual norm calculation: 474.000000 [mu s]
	Time per iteration and DOF: 0.601501 [ns]
	Retrieve results bandwidth 2.522000 [GByte/s]
[OGL LOG][Proc: 0]Uz: solve_multi_gpu: 430.647 [ms]
BJhipGKOBiCGStab:  Solving for Uz, Initial residual = 0.04559527253794271, Final residual = 0.004339276950996873, No Iterations 11
[INFO] MomentumPredictor: 2038.305 [ms]
[INFO] MatrixAssemblyPI: 914.449 [ms]
[INFO] MatrixAssemblyPII: 456.685 [ms]
DICPCG:  Solving for p, Initial residual = 0.6114053543636028, Final residual = 0.005956688026483126, No Iterations 118
[INFO] SolveP: 17446.172 [ms]
time step continuity errors : sum local = 0.1119576977632655, global = -0.001844781424301919, cumulative = 0.003222438523171076
[INFO] postSolveP: 254.565 [ms]
[OGL LOG][Proc: 0]: global_index_init: 0.045 [ms]
[OGL LOG][Proc: 0]nuTilda_local_coeffs: call_update: 0 [ms]
[OGL LOG][Proc: 0]nuTilda_non_local_coeffs: call_update: 0 [ms]
[OGL LOG][Proc: 0]nuTilda: update_local_matrix_data: 124.604 [ms]
[OGL LOG][Proc: 0]nuTilda: update_non_local_matrix_data: 0.142 [ms]
[OGL LOG][Proc: 0]nuTilda_matrix: call_update: 43.146 [ms]
[OGL LOG][Proc: 0]nuTilda_rhs: call_update: 13.143 [ms]
[OGL LOG][Preconditioner.H:121] Generate preconditioner BJ MaxBlockSize 1
[OGL LOG][Proc: 0]nuTilda: init_precond: 1.775 [ms]
[OGL LOG][StoppingCriterion.H:373] Creating stopping criterion with minIter 2 frequency 1
[OGL LOG][Proc: 0]nuTilda: generate_solver: 0.002 [ms]
[OGL LOG][Proc: 0]nuTilda: solve: 291.867 [ms]
[OGL LOG][Proc: 0]nuTilda: copy_x_back: 19.181 [ms]
[OGL LOG][lduLduBase.H:336] 
Statistics:
	Time per iteration: 145933 [mu s]
	Time per residual norm calculation: 334.000000 [mu s]
	Time per iteration and DOF: 2.892220 [ns]
	Retrieve results bandwidth 2.638000 [GByte/s]
[OGL LOG][Proc: 0]nuTilda: solve_multi_gpu: 372.182 [ms]
BJhipGKOBiCGStab:  Solving for nuTilda, Initial residual = 0.05985071420183862, Final residual = 0.00352862419619762, No Iterations 2
[INFO] TimeStep: 31604.784 [ms]
ExecutionTime = 603.1 s  ClockTime = 605 s

Time = 11

velocityDampingConstraint velocityDamping damped 11867 (0.02%) of cells, with max limit 300
[INFO] MatrixAssemblyU: 6968.126 [ms]
[OGL LOG][Proc: 0]: global_index_init: 0.226 [ms]
[OGL LOG][Proc: 0]Ux_local_coeffs: call_update: 0 [ms]
[OGL LOG][Proc: 0]Ux_non_local_coeffs: call_update: 0 [ms]
[OGL LOG][Proc: 0]Ux: update_local_matrix_data: 123.273 [ms]
[OGL LOG][Proc: 0]Ux: update_non_local_matrix_data: 0.232 [ms]
[OGL LOG][Proc: 0]Ux_matrix: call_update: 52.264 [ms]
[OGL LOG][Proc: 0]Ux_rhs: call_update: 15.623 [ms]
[OGL LOG][Preconditioner.H:121] Generate preconditioner BJ MaxBlockSize 1
[OGL LOG][Proc: 0]Ux: init_precond: 1.772 [ms]
[OGL LOG][StoppingCriterion.H:373] Creating stopping criterion with minIter 15 frequency 1
[OGL LOG][Proc: 0]Ux: generate_solver: 0.002 [ms]
[OGL LOG][Proc: 0]Ux: solve: 321.324 [ms]
[OGL LOG][Proc: 0]Ux: copy_x_back: 16.581 [ms]
[OGL LOG][lduLduBase.H:336] 
Statistics:
	Time per iteration: 32132 [mu s]
	Time per residual norm calculation: 331.000000 [mu s]
	Time per iteration and DOF: 0.636818 [ns]
	Retrieve results bandwidth 3.052000 [GByte/s]
[OGL LOG][Proc: 0]Ux: solve_multi_gpu: 410.592 [ms]
BJhipGKOBiCGStab:  Solving for Ux, Initial residual = 0.1540001988544334, Final residual = 0.01505836921227655, No Iterations 10
[OGL LOG][Proc: 0]: global_index_init: 0.503 [ms]
[OGL LOG][Proc: 0]Uy_local_coeffs: call_update: 0 [ms]
[OGL LOG][Proc: 0]Uy_non_local_coeffs: call_update: 0 [ms]
[OGL LOG][Proc: 0]Uy: update_local_matrix_data: 123.551 [ms]
[OGL LOG][Proc: 0]Uy: update_non_local_matrix_data: 0.212 [ms]
[OGL LOG][Proc: 0]Uy_matrix: call_update: 45.844 [ms]
[OGL LOG][Proc: 0]Uy_rhs: call_update: 15.803 [ms]
[OGL LOG][Preconditioner.H:121] Generate preconditioner BJ MaxBlockSize 1
[OGL LOG][Proc: 0]Uy: init_precond: 1.779 [ms]
[OGL LOG][StoppingCriterion.H:373] Creating stopping criterion with minIter 16 frequency 1
[OGL LOG][Proc: 0]Uy: generate_solver: 0.002 [ms]
[OGL LOG][Proc: 0]Uy: solve: 326.327 [ms]
[OGL LOG][Proc: 0]Uy: copy_x_back: 19.266 [ms]
[OGL LOG][lduLduBase.H:336] 
Statistics:
	Time per iteration: 29666 [mu s]
	Time per residual norm calculation: 479.000000 [mu s]
	Time per iteration and DOF: 0.587945 [ns]
	Retrieve results bandwidth 2.627000 [GByte/s]
[OGL LOG][Proc: 0]Uy: solve_multi_gpu: 412.064 [ms]
BJhipGKOBiCGStab:  Solving for Uy, Initial residual = 0.5103755485116437, Final residual = 0.03948789573545892, No Iterations 11
[OGL LOG][Proc: 0]: global_index_init: 0.248 [ms]
[OGL LOG][Proc: 0]Uz_local_coeffs: call_update: 0 [ms]
[OGL LOG][Proc: 0]Uz_non_local_coeffs: call_update: 0 [ms]
[OGL LOG][Proc: 0]Uz: update_local_matrix_data: 124.064 [ms]
[OGL LOG][Proc: 0]Uz: update_non_local_matrix_data: 0.225 [ms]
[OGL LOG][Proc: 0]Uz_matrix: call_update: 47.084 [ms]
[OGL LOG][Proc: 0]Uz_rhs: call_update: 23.374 [ms]
[OGL LOG][Preconditioner.H:121] Generate preconditioner BJ MaxBlockSize 1
[OGL LOG][Proc: 0]Uz: init_precond: 1.923 [ms]
[OGL LOG][StoppingCriterion.H:373] Creating stopping criterion with minIter 13 frequency 1
[OGL LOG][Proc: 0]Uz: generate_solver: 0.002 [ms]
[OGL LOG][Proc: 0]Uz: solve: 342.329 [ms]
[OGL LOG][Proc: 0]Uz: copy_x_back: 16.572 [ms]
[OGL LOG][lduLduBase.H:336] 
Statistics:
	Time per iteration: 26333 [mu s]
	Time per residual norm calculation: 472.000000 [mu s]
	Time per iteration and DOF: 0.521889 [ns]
	Retrieve results bandwidth 3.054000 [GByte/s]
[OGL LOG][Proc: 0]Uz: solve_multi_gpu: 434.304 [ms]
BJhipGKOBiCGStab:  Solving for Uz, Initial residual = 0.6736414411975638, Final residual = 0.03458745408156507, No Iterations 13
[INFO] MomentumPredictor: 1991.843 [ms]
[INFO] MatrixAssemblyPI: 916.6900000000001 [ms]
[INFO] MatrixAssemblyPII: 457.005 [ms]
DICPCG:  Solving for p, Initial residual = 0.8426309825280537, Final residual = 0.008402642146304646, No Iterations 74
[INFO] SolveP: 11045.487 [ms]
time step continuity errors : sum local = 0.7409922088841988, global = -0.002622611772079707, cumulative = 0.0005998267510913696
[INFO] postSolveP: 249.759 [ms]
[OGL LOG][Proc: 0]: global_index_init: 6.135 [ms]
[OGL LOG][Proc: 0]nuTilda_local_coeffs: call_update: 0 [ms]
[OGL LOG][Proc: 0]nuTilda_non_local_coeffs: call_update: 0 [ms]
[OGL LOG][Proc: 0]nuTilda: update_local_matrix_data: 123.969 [ms]
[OGL LOG][Proc: 0]nuTilda: update_non_local_matrix_data: 0.182 [ms]
[OGL LOG][Proc: 0]nuTilda_matrix: call_update: 45.76 [ms]
[OGL LOG][Proc: 0]nuTilda_rhs: call_update: 8.52 [ms]
[OGL LOG][Preconditioner.H:121] Generate preconditioner BJ MaxBlockSize 1
[OGL LOG][Proc: 0]nuTilda: init_precond: 1.841 [ms]
[OGL LOG][StoppingCriterion.H:373] Creating stopping criterion with minIter 3 frequency 1
[OGL LOG][Proc: 0]nuTilda: generate_solver: 0.002 [ms]
[OGL LOG][Proc: 0]nuTilda: solve: 280.232 [ms]
[OGL LOG][Proc: 0]nuTilda: copy_x_back: 16.76 [ms]
[OGL LOG][lduLduBase.H:336] 
Statistics:
	Time per iteration: 93410 [mu s]
	Time per residual norm calculation: 330.000000 [mu s]
	Time per iteration and DOF: 1.851276 [ns]
	Retrieve results bandwidth 3.020000 [GByte/s]
[OGL LOG][Proc: 0]nuTilda: solve_multi_gpu: 357.092 [ms]
BJhipGKOBiCGStab:  Solving for nuTilda, Initial residual = 0.06617943171457874, Final residual = 0.004783173405183116, No Iterations 3
[INFO] TimeStep: 25790.977 [ms]
ExecutionTime = 634.52 s  ClockTime = 637 s

Time = 12

velocityDampingConstraint velocityDamping damped 485958 (0.96%) of cells, with max limit 300
[INFO] MatrixAssemblyU: 7081.313 [ms]
[OGL LOG][Proc: 0]: global_index_init: 0.25 [ms]
[OGL LOG][Proc: 0]Ux_local_coeffs: call_update: 0 [ms]
[OGL LOG][Proc: 0]Ux_non_local_coeffs: call_update: 0 [ms]
[OGL LOG][Proc: 0]Ux: update_local_matrix_data: 122.998 [ms]
[OGL LOG][Proc: 0]Ux: update_non_local_matrix_data: 0.149 [ms]
[OGL LOG][Proc: 0]Ux_matrix: call_update: 43.46 [ms]
[OGL LOG][Proc: 0]Ux_rhs: call_update: 8.907999999999999 [ms]
[OGL LOG][Preconditioner.H:121] Generate preconditioner BJ MaxBlockSize 1
[OGL LOG][Proc: 0]Ux: init_precond: 1.828 [ms]
[OGL LOG][StoppingCriterion.H:373] Creating stopping criterion with minIter 12 frequency 1
[OGL LOG][Proc: 0]Ux: generate_solver: 0.002 [ms]
[OGL LOG][Proc: 0]Ux: solve: 303.025 [ms]
[OGL LOG][Proc: 0]Ux: copy_x_back: 16.877 [ms]
[OGL LOG][lduLduBase.H:336] 
Statistics:
	Time per iteration: 37878 [mu s]
	Time per residual norm calculation: 483.000000 [mu s]
	Time per iteration and DOF: 0.750697 [ns]
	Retrieve results bandwidth 2.999000 [GByte/s]
[OGL LOG][Proc: 0]Ux: solve_multi_gpu: 377.139 [ms]
BJhipGKOBiCGStab:  Solving for Ux, Initial residual = 0.5450090117754816, Final residual = 0.0465224687785611, No Iterations 8
[OGL LOG][Proc: 0]: global_index_init: 3.757 [ms]
[OGL LOG][Proc: 0]Uy_local_coeffs: call_update: 0 [ms]
[OGL LOG][Proc: 0]Uy_non_local_coeffs: call_update: 0 [ms]
[OGL LOG][Proc: 0]Uy: update_local_matrix_data: 123.857 [ms]
[OGL LOG][Proc: 0]Uy: update_non_local_matrix_data: 0.149 [ms]
[OGL LOG][Proc: 0]Uy_matrix: call_update: 53.923 [ms]
[OGL LOG][Proc: 0]Uy_rhs: call_update: 15.416 [ms]
[OGL LOG][Preconditioner.H:121] Generate preconditioner BJ MaxBlockSize 1
[OGL LOG][Proc: 0]Uy: init_precond: 1.772 [ms]
[OGL LOG][StoppingCriterion.H:373] Creating stopping criterion with minIter 13 frequency 1
[OGL LOG][Proc: 0]Uy: generate_solver: 0.002 [ms]
[OGL LOG][Proc: 0]Uy: solve: 292.973 [ms]
[OGL LOG][Proc: 0]Uy: copy_x_back: 19.221 [ms]
[OGL LOG][lduLduBase.H:336] 
Statistics:
	Time per iteration: 41853 [mu s]
	Time per residual norm calculation: 515.000000 [mu s]
	Time per iteration and DOF: 0.829477 [ns]
	Retrieve results bandwidth 2.633000 [GByte/s]
[OGL LOG][Proc: 0]Uy: solve_multi_gpu: 386.37 [ms]
BJhipGKOBiCGStab:  Solving for Uy, Initial residual = 0.6808734589223668, Final residual = 0.06260550752916495, No Iterations 7
[OGL LOG][Proc: 0]: global_index_init: 0.488 [ms]
[OGL LOG][Proc: 0]Uz_local_coeffs: call_update: 0 [ms]
[OGL LOG][Proc: 0]Uz_non_local_coeffs: call_update: 0 [ms]
[OGL LOG][Proc: 0]Uz: update_local_matrix_data: 124.382 [ms]
[OGL LOG][Proc: 0]Uz: update_non_local_matrix_data: 0.155 [ms]
[OGL LOG][Proc: 0]Uz_matrix: call_update: 51.731 [ms]
[OGL LOG][Proc: 0]Uz_rhs: call_update: 4.039 [ms]
[OGL LOG][Preconditioner.H:121] Generate preconditioner BJ MaxBlockSize 1
[OGL LOG][Proc: 0]Uz: init_precond: 1.87 [ms]
[OGL LOG][StoppingCriterion.H:373] Creating stopping criterion with minIter 15 frequency 1
[OGL LOG][Proc: 0]Uz: generate_solver: 0.002 [ms]
[OGL LOG][Proc: 0]Uz: solve: 302.238 [ms]
[OGL LOG][Proc: 0]Uz: copy_x_back: 17.321 [ms]
[OGL LOG][lduLduBase.H:336] 
Statistics:
	Time per iteration: 37779 [mu s]
	Time per residual norm calculation: 461.000000 [mu s]
	Time per iteration and DOF: 0.748735 [ns]
	Retrieve results bandwidth 2.922000 [GByte/s]
[OGL LOG][Proc: 0]Uz: solve_multi_gpu: 380.191 [ms]
BJhipGKOBiCGStab:  Solving for Uz, Initial residual = 0.7432607801033544, Final residual = 0.02874034053686135, No Iterations 8
[INFO] MomentumPredictor: 1879.452 [ms]
[INFO] MatrixAssemblyPI: 921.558 [ms]
[INFO] MatrixAssemblyPII: 459.948 [ms]
DICPCG:  Solving for p, Initial residual = 0.2383746484622745, Final residual = 0.002373727242727887, No Iterations 74
[INFO] SolveP: 11043.582 [ms]
time step continuity errors : sum local = 0.2736144393965222, global = 0.01001681845067793, cumulative = 0.01061664520176929
[INFO] postSolveP: 249.072 [ms]
[OGL LOG][Proc: 0]: global_index_init: 0.049 [ms]
[OGL LOG][Proc: 0]nuTilda_local_coeffs: call_update: 0 [ms]
[OGL LOG][Proc: 0]nuTilda_non_local_coeffs: call_update: 0 [ms]
[OGL LOG][Proc: 0]nuTilda: update_local_matrix_data: 125.344 [ms]
[OGL LOG][Proc: 0]nuTilda: update_non_local_matrix_data: 0.186 [ms]
[OGL LOG][Proc: 0]nuTilda_matrix: call_update: 39.684 [ms]
[OGL LOG][Proc: 0]nuTilda_rhs: call_update: 9.170999999999999 [ms]
[OGL LOG][Preconditioner.H:121] Generate preconditioner BJ MaxBlockSize 1
[OGL LOG][Proc: 0]nuTilda: init_precond: 1.843 [ms]
[OGL LOG][StoppingCriterion.H:373] Creating stopping criterion with minIter 4 frequency 1
[OGL LOG][Proc: 0]nuTilda: generate_solver: 0.002 [ms]
[OGL LOG][Proc: 0]nuTilda: solve: 287.361 [ms]
[...]
BJhipGKOBiCGStab:  Solving for Ux, Initial residual = 0.02619362020476756, Final residual = 0.002548971647382537, No Iterations 16
[OGL LOG][Proc: 0]: global_index_init: 0.514 [ms]
[OGL LOG][Proc: 0]Uy_local_coeffs: call_update: 0 [ms]
[OGL LOG][Proc: 0]Uy_non_local_coeffs: call_update: 0 [ms]
[OGL LOG][Proc: 0]Uy: update_local_matrix_data: 123.589 [ms]
[OGL LOG][Proc: 0]Uy: update_non_local_matrix_data: 0.244 [ms]
[OGL LOG][Proc: 0]Uy_matrix: call_update: 46.094 [ms]
[OGL LOG][Proc: 0]Uy_rhs: call_update: 4.607 [ms]
[OGL LOG][Preconditioner.H:121] Generate preconditioner BJ MaxBlockSize 1
[OGL LOG][Proc: 0]Uy: init_precond: 1.885 [ms]
[OGL LOG][StoppingCriterion.H:373] Creating stopping criterion with minIter 12 frequency 1
[OGL LOG][Proc: 0]Uy: generate_solver: 0.003 [ms]
[OGL LOG][Proc: 0]Uy: solve: 342.05 [ms]
[OGL LOG][Proc: 0]Uy: copy_x_back: 16.536 [ms]
[OGL LOG][lduLduBase.H:336] 
Statistics:
	Time per iteration: 26311 [mu s]
	Time per residual norm calculation: 475.000000 [mu s]
	Time per iteration and DOF: 0.521453 [ns]
	Retrieve results bandwidth 3.061000 [GByte/s]
[OGL LOG][Proc: 0]Uy: solve_multi_gpu: 414.267 [ms]
BJhipGKOBiCGStab:  Solving for Uy, Initial residual = 0.08632855402600932, Final residual = 0.004479675299515663, No Iterations 13
[OGL LOG][Proc: 0]: global_index_init: 0.55 [ms]
[OGL LOG][Proc: 0]Uz_local_coeffs: call_update: 0 [ms]
[OGL LOG][Proc: 0]Uz_non_local_coeffs: call_update: 0 [ms]
[OGL LOG][Proc: 0]Uz: update_local_matrix_data: 125.076 [ms]
[OGL LOG][Proc: 0]Uz: update_non_local_matrix_data: 0.286 [ms]
[OGL LOG][Proc: 0]Uz_matrix: call_update: 55.27 [ms]
[OGL LOG][Proc: 0]Uz_rhs: call_update: 13.423 [ms]
[OGL LOG][Preconditioner.H:121] Generate preconditioner BJ MaxBlockSize 1
[OGL LOG][Proc: 0]Uz: init_precond: 1.785 [ms]
[OGL LOG][StoppingCriterion.H:373] Creating stopping criterion with minIter 13 frequency 1
[OGL LOG][Proc: 0]Uz: generate_solver: 0.002 [ms]
[OGL LOG][Proc: 0]Uz: solve: 335.484 [ms]
[OGL LOG][Proc: 0]Uz: copy_x_back: 16.685 [ms]
[OGL LOG][lduLduBase.H:336] 
Statistics:
	Time per iteration: 27957 [mu s]
	Time per residual norm calculation: 477.000000 [mu s]
	Time per iteration and DOF: 0.554075 [ns]
	Retrieve results bandwidth 3.033000 [GByte/s]
[OGL LOG][Proc: 0]Uz: solve_multi_gpu: 425.771 [ms]
BJhipGKOBiCGStab:  Solving for Uz, Initial residual = 0.07289512544847802, Final residual = 0.005044000712641514, No Iterations 12
[INFO] MomentumPredictor: 2011.257 [ms]
[INFO] MatrixAssemblyPI: 923.495 [ms]
[INFO] MatrixAssemblyPII: 459.223 [ms]
DICPCG:  Solving for p, Initial residual = 0.07935993012465889, Final residual = 0.0007869115153615282, No Iterations 88
[INFO] SolveP: 13042.44 [ms]
time step continuity errors : sum local = 0.02524198672353774, global = 0.00381033984670176, cumulative = 0.1143257398577639
[INFO] postSolveP: 252.994 [ms]
[OGL LOG][Proc: 0]: global_index_init: 0.044 [ms]
[OGL LOG][Proc: 0]nuTilda_local_coeffs: call_update: 0 [ms]
[OGL LOG][Proc: 0]nuTilda_non_local_coeffs: call_update: 0 [ms]
[OGL LOG][Proc: 0]nuTilda: update_local_matrix_data: 123.064 [ms]
[OGL LOG][Proc: 0]nuTilda: update_non_local_matrix_data: 0.165 [ms]
[OGL LOG][Proc: 0]nuTilda_matrix: call_update: 51.628 [ms]
[OGL LOG][Proc: 0]nuTilda_rhs: call_update: 11.536 [ms]
[OGL LOG][Preconditioner.H:121] Generate preconditioner BJ MaxBlockSize 1
[OGL LOG][Proc: 0]nuTilda: init_precond: 1.787 [ms]
[OGL LOG][StoppingCriterion.H:373] Creating stopping criterion with minIter 3 frequency 1
[OGL LOG][Proc: 0]nuTilda: generate_solver: 0.003 [ms]
[OGL LOG][Proc: 0]nuTilda: solve: 271.208 [ms]
[OGL LOG][Proc: 0]nuTilda: copy_x_back: 16.305 [ms]
[OGL LOG][lduLduBase.H:336] 
Statistics:
	Time per iteration: 135604 [mu s]
	Time per residual norm calculation: 337.000000 [mu s]
	Time per iteration and DOF: 2.687511 [ns]
	Retrieve results bandwidth 3.104000 [GByte/s]
[OGL LOG][Proc: 0]nuTilda: solve_multi_gpu: 356.515 [ms]
BJhipGKOBiCGStab:  Solving for nuTilda, Initial residual = 0.01609942666947269, Final residual = 0.001539224018494352, No Iterations 2
[INFO] TimeStep: 27107.737 [ms]
ExecutionTime = 1826.87 s  ClockTime = 1835 s

Time = 48

velocityDampingConstraint velocityDamping damped 0 (0%) of cells, with max limit 300
[INFO] MatrixAssemblyU: 6506.261 [ms]
[OGL LOG][Proc: 0]: global_index_init: 0.216 [ms]
[OGL LOG][Proc: 0]Ux_local_coeffs: call_update: 0 [ms]
[OGL LOG][Proc: 0]Ux_non_local_coeffs: call_update: 0 [ms]
[OGL LOG][Proc: 0]Ux: update_local_matrix_data: 125.717 [ms]
[OGL LOG][Proc: 0]Ux: update_non_local_matrix_data: 0.171 [ms]
[OGL LOG][Proc: 0]Ux_matrix: call_update: 45.87 [ms]
[OGL LOG][Proc: 0]Ux_rhs: call_update: 9.52 [ms]
[OGL LOG][Preconditioner.H:121] Generate preconditioner BJ MaxBlockSize 1
[OGL LOG][Proc: 0]Ux: init_precond: 1.861 [ms]
[OGL LOG][StoppingCriterion.H:373] Creating stopping criterion with minIter 19 frequency 1
[OGL LOG][Proc: 0]Ux: generate_solver: 0.002 [ms]
[OGL LOG][Proc: 0]Ux: solve: 327.88 [ms]
[OGL LOG][Proc: 0]Ux: copy_x_back: 16.706 [ms]
[OGL LOG][lduLduBase.H:336] 
Statistics:
	Time per iteration: 29807 [mu s]
	Time per residual norm calculation: 460.000000 [mu s]
	Time per iteration and DOF: 0.590740 [ns]
	Retrieve results bandwidth 3.029000 [GByte/s]
[OGL LOG][Proc: 0]Ux: solve_multi_gpu: 404.94 [ms]
BJhipGKOBiCGStab:  Solving for Ux, Initial residual = 0.02460723556230256, Final residual = 0.001846628423959824, No Iterations 11
[OGL LOG][Proc: 0]: global_index_init: 0.503 [ms]
[OGL LOG][Proc: 0]Uy_local_coeffs: call_update: 0 [ms]
[OGL LOG][Proc: 0]Uy_non_local_coeffs: call_update: 0 [ms]
[OGL LOG][Proc: 0]Uy: update_local_matrix_data: 125.738 [ms]
[OGL LOG][Proc: 0]Uy: update_non_local_matrix_data: 0.25 [ms]
[OGL LOG][Proc: 0]Uy_matrix: call_update: 44.831 [ms]
[OGL LOG][Proc: 0]Uy_rhs: call_update: 10.683 [ms]
[OGL LOG][Preconditioner.H:121] Generate preconditioner BJ MaxBlockSize 1
[OGL LOG][Proc: 0]Uy: init_precond: 1.833 [ms]
[OGL LOG][StoppingCriterion.H:373] Creating stopping criterion with minIter 15 frequency 1
[OGL LOG][Proc: 0]Uy: generate_solver: 0.003 [ms]
[OGL LOG][Proc: 0]Uy: solve: 313.579 [ms]
[OGL LOG][Proc: 0]Uy: copy_x_back: 16.396 [ms]
[OGL LOG][lduLduBase.H:336] 
Statistics:
	Time per iteration: 31357 [mu s]
	Time per residual norm calculation: 518.000000 [mu s]
	Time per iteration and DOF: 0.621459 [ns]
	Retrieve results bandwidth 3.087000 [GByte/s]
[OGL LOG][Proc: 0]Uy: solve_multi_gpu: 390.435 [ms]
BJhipGKOBiCGStab:  Solving for Uy, Initial residual = 0.08598053612876819, Final residual = 0.008553092942002412, No Iterations 10
[OGL LOG][Proc: 0]: global_index_init: 0.509 [ms]
[OGL LOG][Proc: 0]Uz_local_coeffs: call_update: 0 [ms]
[OGL LOG][Proc: 0]Uz_non_local_coeffs: call_update: 0 [ms]
[OGL LOG][Proc: 0]Uz: update_local_matrix_data: 125.589 [ms]
[OGL LOG][Proc: 0]Uz: update_non_local_matrix_data: 0.239 [ms]
[OGL LOG][Proc: 0]Uz_matrix: call_update: 49.123 [ms]
[OGL LOG][Proc: 0]Uz_rhs: call_update: 21.001 [ms]
[OGL LOG][Preconditioner.H:121] Generate preconditioner BJ MaxBlockSize 1
[OGL LOG][Proc: 0]Uz: init_precond: 1.788 [ms]
[OGL LOG][StoppingCriterion.H:373] Creating stopping criterion with minIter 14 frequency 1
[OGL LOG][Proc: 0]Uz: generate_solver: 0.002 [ms]
[OGL LOG][Proc: 0]Uz: solve: 327.05 [ms]
[OGL LOG][Proc: 0]Uz: copy_x_back: 16.379 [ms]
[OGL LOG][lduLduBase.H:336] 
Statistics:
	Time per iteration: 29731 [mu s]
	Time per residual norm calculation: 332.000000 [mu s]
	Time per iteration and DOF: 0.589233 [ns]
	Retrieve results bandwidth 3.090000 [GByte/s]
[OGL LOG][Proc: 0]Uz: solve_multi_gpu: 418.669 [ms]
BJhipGKOBiCGStab:  Solving for Uz, Initial residual = 0.07570668786288576, Final residual = 0.007420445954626734, No Iterations 11
[INFO] MomentumPredictor: 1957.176 [ms]
[INFO] MatrixAssemblyPI: 917.974 [ms]
[INFO] MatrixAssemblyPII: 457.381 [ms]
DICPCG:  Solving for p, Initial residual = 0.07761316125062283, Final residual = 0.0007755605525237058, No Iterations 92
[INFO] SolveP: 13623.721 [ms]
time step continuity errors : sum local = 0.02404430157572118, global = 0.004169719403580013, cumulative = 0.1184954592613439
[INFO] postSolveP: 249.132 [ms]
[OGL LOG][Proc: 0]: global_index_init: 0.043 [ms]
[OGL LOG][Proc: 0]nuTilda_local_coeffs: call_update: 0 [ms]
[OGL LOG][Proc: 0]nuTilda_non_local_coeffs: call_update: 0 [ms]
[OGL LOG][Proc: 0]nuTilda: update_local_matrix_data: 125.078 [ms]
[OGL LOG][Proc: 0]nuTilda: update_non_local_matrix_data: 0.204 [ms]
[OGL LOG][Proc: 0]nuTilda_matrix: call_update: 47.61 [ms]
[OGL LOG][Proc: 0]nuTilda_rhs: call_update: 7.753 [ms]
[OGL LOG][Preconditioner.H:121] Generate preconditioner BJ MaxBlockSize 1
[OGL LOG][Proc: 0]nuTilda: init_precond: 1.944 [ms]
[OGL LOG][StoppingCriterion.H:373] Creating stopping criterion with minIter 3 frequency 1
[OGL LOG][Proc: 0]nuTilda: generate_solver: 0.002 [ms]
[OGL LOG][Proc: 0]nuTilda: solve: 280.646 [ms]
[OGL LOG][Proc: 0]nuTilda: copy_x_back: 16.63 [ms]
[OGL LOG][lduLduBase.H:336] 
Statistics:
	Time per iteration: 140323 [mu s]
	Time per residual norm calculation: 329.000000 [mu s]
	Time per iteration and DOF: 2.781036 [ns]
	Retrieve results bandwidth 3.043000 [GByte/s]
[OGL LOG][Proc: 0]nuTilda: solve_multi_gpu: 357.686 [ms]
BJhipGKOBiCGStab:  Solving for nuTilda, Initial residual = 0.02008044520570457, Final residual = 0.001472867959787814, No Iterations 2
[INFO] TimeStep: 27593.295 [ms]
ExecutionTime = 1859.65 s  ClockTime = 1868 s

Time = 49

velocityDampingConstraint velocityDamping damped 0 (0%) of cells, with max limit 300
[INFO] MatrixAssemblyU: 6506.88 [ms]
[OGL LOG][Proc: 0]: global_index_init: 0.233 [ms]
[OGL LOG][Proc: 0]Ux_local_coeffs: call_update: 0 [ms]
[OGL LOG][Proc: 0]Ux_non_local_coeffs: call_update: 0 [ms]
[OGL LOG][Proc: 0]Ux: update_local_matrix_data: 122.91 [ms]
[OGL LOG][Proc: 0]Ux: update_non_local_matrix_data: 0.173 [ms]
[OGL LOG][Proc: 0]Ux_matrix: call_update: 44.414 [ms]
[OGL LOG][Proc: 0]Ux_rhs: call_update: 18.732 [ms]
[OGL LOG][Preconditioner.H:121] Generate preconditioner BJ MaxBlockSize 1
[OGL LOG][Proc: 0]Ux: init_precond: 1.786 [ms]
[OGL LOG][StoppingCriterion.H:373] Creating stopping criterion with minIter 13 frequency 1
[OGL LOG][Proc: 0]Ux: generate_solver: 0.002 [ms]
[OGL LOG][Proc: 0]Ux: solve: 330.674 [ms]
[OGL LOG][Proc: 0]Ux: copy_x_back: 16.494 [ms]
[OGL LOG][lduLduBase.H:336] 
Statistics:
	Time per iteration: 25436 [mu s]
	Time per residual norm calculation: 525.000000 [mu s]
	Time per iteration and DOF: 0.504112 [ns]
	Retrieve results bandwidth 3.068000 [GByte/s]
[OGL LOG][Proc: 0]Ux: solve_multi_gpu: 415.383 [ms]
BJhipGKOBiCGStab:  Solving for Ux, Initial residual = 0.02427867179311961, Final residual = 0.001973417120924758, No Iterations 13
[OGL LOG][Proc: 0]: global_index_init: 0.528 [ms]
[OGL LOG][Proc: 0]Uy_local_coeffs: call_update: 0 [ms]
[OGL LOG][Proc: 0]Uy_non_local_coeffs: call_update: 0 [ms]
[OGL LOG][Proc: 0]Uy: update_local_matrix_data: 122.921 [ms]
[OGL LOG][Proc: 0]Uy: update_non_local_matrix_data: 0.174 [ms]
[OGL LOG][Proc: 0]Uy_matrix: call_update: 49.152 [ms]
[OGL LOG][Proc: 0]Uy_rhs: call_update: 11.735 [ms]
[OGL LOG][Preconditioner.H:121] Generate preconditioner BJ MaxBlockSize 1
[OGL LOG][Proc: 0]Uy: init_precond: 1.782 [ms]
[OGL LOG][StoppingCriterion.H:373] Creating stopping criterion with minIter 12 frequency 1
[OGL LOG][Proc: 0]Uy: generate_solver: 0.002 [ms]
[OGL LOG][Proc: 0]Uy: solve: 327.233 [ms]
[OGL LOG][Proc: 0]Uy: copy_x_back: 16.33 [ms]
[OGL LOG][lduLduBase.H:336] 
Statistics:
	Time per iteration: 29748 [mu s]
	Time per residual norm calculation: 333.000000 [mu s]
	Time per iteration and DOF: 0.589570 [ns]
	Retrieve results bandwidth 3.099000 [GByte/s]
[OGL LOG][Proc: 0]Uy: solve_multi_gpu: 409.328 [ms]
BJhipGKOBiCGStab:  Solving for Uy, Initial residual = 0.08606961001735086, Final residual = 0.007716401917901732, No Iterations 11
[OGL LOG][Proc: 0]: global_index_init: 0.524 [ms]
[OGL LOG][Proc: 0]Uz_local_coeffs: call_update: 0 [ms]
[OGL LOG][Proc: 0]Uz_non_local_coeffs: call_update: 0 [ms]
[OGL LOG][Proc: 0]Uz: update_local_matrix_data: 124.632 [ms]
[OGL LOG][Proc: 0]Uz: update_non_local_matrix_data: 0.167 [ms]
[OGL LOG][Proc: 0]Uz_matrix: call_update: 53.166 [ms]
[OGL LOG][Proc: 0]Uz_rhs: call_update: 3.563 [ms]
[OGL LOG][Preconditioner.H:121] Generate preconditioner BJ MaxBlockSize 1
[OGL LOG][Proc: 0]Uz: init_precond: 1.829 [ms]
[OGL LOG][StoppingCriterion.H:373] Creating stopping criterion with minIter 13 frequency 1
[OGL LOG][Proc: 0]Uz: generate_solver: 0.002 [ms]
[OGL LOG][Proc: 0]Uz: solve: 316.754 [ms]
[OGL LOG][Proc: 0]Uz: copy_x_back: 16.58 [ms]
[OGL LOG][lduLduBase.H:336] 
Statistics:
	Time per iteration: 28795 [mu s]
	Time per residual norm calculation: 493.000000 [mu s]
	Time per iteration and DOF: 0.570683 [ns]
	Retrieve results bandwidth 3.052000 [GByte/s]
[OGL LOG][Proc: 0]Uz: solve_multi_gpu: 394.995 [ms]
BJhipGKOBiCGStab:  Solving for Uz, Initial residual = 0.06989965152385326, Final residual = 0.005304307767669947, No Iterations 11
[INFO] MomentumPredictor: 1952.243 [ms]
[INFO] MatrixAssemblyPI: 918.913 [ms]
[INFO] MatrixAssemblyPII: 456.209 [ms]
DICPCG:  Solving for p, Initial residual = 0.07845566594702881, Final residual = 0.000772932305282495, No Iterations 101
[INFO] SolveP: 14937.773 [ms]
time step continuity errors : sum local = 0.02327074521452738, global = 0.003867523514432049, cumulative = 0.122362982775776
[INFO] postSolveP: 253.286 [ms]
[OGL LOG][Proc: 0]: global_index_init: 0.053 [ms]
[OGL LOG][Proc: 0]nuTilda_local_coeffs: call_update: 0 [ms]
[OGL LOG][Proc: 0]nuTilda_non_local_coeffs: call_update: 0 [ms]
[OGL LOG][Proc: 0]nuTilda: update_local_matrix_data: 125.08 [ms]
[OGL LOG][Proc: 0]nuTilda: update_non_local_matrix_data: 0.201 [ms]
[OGL LOG][Proc: 0]nuTilda_matrix: call_update: 42.33 [ms]
[OGL LOG][Proc: 0]nuTilda_rhs: call_update: 6.973 [ms]
[OGL LOG][Preconditioner.H:121] Generate preconditioner BJ MaxBlockSize 1
[OGL LOG][Proc: 0]nuTilda: init_precond: 1.908 [ms]
[OGL LOG][StoppingCriterion.H:373] Creating stopping criterion with minIter 3 frequency 1
[OGL LOG][Proc: 0]nuTilda: generate_solver: 0.002 [ms]
[OGL LOG][Proc: 0]nuTilda: solve: 275.359 [ms]
[OGL LOG][Proc: 0]nuTilda: copy_x_back: 16.467 [ms]
[OGL LOG][lduLduBase.H:336] 
Statistics:
	Time per iteration: 137679 [mu s]
	Time per residual norm calculation: 348.000000 [mu s]
	Time per iteration and DOF: 2.728635 [ns]
	Retrieve results bandwidth 3.073000 [GByte/s]
[OGL LOG][Proc: 0]nuTilda: solve_multi_gpu: 346.145 [ms]
BJhipGKOBiCGStab:  Solving for nuTilda, Initial residual = 0.01571861385274172, Final residual = 0.001543420851709012, No Iterations 2
[INFO] TimeStep: 28908.277 [ms]
ExecutionTime = 1893.71 s  ClockTime = 1902 s

Time = 50

velocityDampingConstraint velocityDamping damped 0 (0%) of cells, with max limit 300
[INFO] MatrixAssemblyU: 6536.126 [ms]
[OGL LOG][Proc: 0]: global_index_init: 0.262 [ms]
[OGL LOG][Proc: 0]Ux_local_coeffs: call_update: 0 [ms]
[OGL LOG][Proc: 0]Ux_non_local_coeffs: call_update: 0 [ms]
[OGL LOG][Proc: 0]Ux: update_local_matrix_data: 124.059 [ms]
[OGL LOG][Proc: 0]Ux: update_non_local_matrix_data: 0.171 [ms]
[OGL LOG][Proc: 0]Ux_matrix: call_update: 49.187 [ms]
[OGL LOG][Proc: 0]Ux_rhs: call_update: 10.658 [ms]
[OGL LOG][Preconditioner.H:121] Generate preconditioner BJ MaxBlockSize 1
[OGL LOG][Proc: 0]Ux: init_precond: 1.821 [ms]
[OGL LOG][StoppingCriterion.H:373] Creating stopping criterion with minIter 15 frequency 1
[OGL LOG][Proc: 0]Ux: generate_solver: 0.002 [ms]
[OGL LOG][Proc: 0]Ux: solve: 324.334 [ms]
[OGL LOG][Proc: 0]Ux: copy_x_back: 16.135 [ms]
[OGL LOG][lduLduBase.H:336] 
Statistics:
	Time per iteration: 29484 [mu s]
	Time per residual norm calculation: 335.000000 [mu s]
	Time per iteration and DOF: 0.584338 [ns]
	Retrieve results bandwidth 3.137000 [GByte/s]
[OGL LOG][Proc: 0]Ux: solve_multi_gpu: 405.186 [ms]
BJhipGKOBiCGStab:  Solving for Ux, Initial residual = 0.02627006335292988, Final residual = 0.002347428394894683, No Iterations 11
[OGL LOG][Proc: 0]: global_index_init: 0.509 [ms]
[OGL LOG][Proc: 0]Uy_local_coeffs: call_update: 0 [ms]
[OGL LOG][Proc: 0]Uy_non_local_coeffs: call_update: 0 [ms]
[OGL LOG][Proc: 0]Uy: update_local_matrix_data: 124.78 [ms]
[OGL LOG][Proc: 0]Uy: update_non_local_matrix_data: 0.246 [ms]
[OGL LOG][Proc: 0]Uy_matrix: call_update: 43.621 [ms]
[OGL LOG][Proc: 0]Uy_rhs: call_update: 6.641 [ms]
[OGL LOG][Preconditioner.H:121] Generate preconditioner BJ MaxBlockSize 1
[OGL LOG][Proc: 0]Uy: init_precond: 1.845 [ms]
[OGL LOG][StoppingCriterion.H:373] Creating stopping criterion with minIter 13 frequency 1
[OGL LOG][Proc: 0]Uy: generate_solver: 0.003 [ms]
[OGL LOG][Proc: 0]Uy: solve: 319.418 [ms]
[OGL LOG][Proc: 0]Uy: copy_x_back: 16.859 [ms]
[OGL LOG][lduLduBase.H:336] 
Statistics:
	Time per iteration: 29038 [mu s]
	Time per residual norm calculation: 474.000000 [mu s]
	Time per iteration and DOF: 0.575499 [ns]
	Retrieve results bandwidth 3.002000 [GByte/s]
[OGL LOG][Proc: 0]Uy: solve_multi_gpu: 391.496 [ms]
BJhipGKOBiCGStab:  Solving for Uy, Initial residual = 0.08673469688778353, Final residual = 0.007440589718660335, No Iterations 11
[OGL LOG][Proc: 0]: global_index_init: 0.513 [ms]
[OGL LOG][Proc: 0]Uz_local_coeffs: call_update: 0 [ms]
[OGL LOG][Proc: 0]Uz_non_local_coeffs: call_update: 0 [ms]
[OGL LOG][Proc: 0]Uz: update_local_matrix_data: 125.289 [ms]
[OGL LOG][Proc: 0]Uz: update_non_local_matrix_data: 0.254 [ms]
[OGL LOG][Proc: 0]Uz_matrix: call_update: 51.792 [ms]
[OGL LOG][Proc: 0]Uz_rhs: call_update: 19.553 [ms]
[OGL LOG][Preconditioner.H:121] Generate preconditioner BJ MaxBlockSize 1
[OGL LOG][Proc: 0]Uz: init_precond: 1.776 [ms]
[OGL LOG][StoppingCriterion.H:373] Creating stopping criterion with minIter 13 frequency 1
[OGL LOG][Proc: 0]Uz: generate_solver: 0.002 [ms]
[OGL LOG][Proc: 0]Uz: solve: 332.904 [ms]
[OGL LOG][Proc: 0]Uz: copy_x_back: 17.021 [ms]
[OGL LOG][lduLduBase.H:336] 
Statistics:
	Time per iteration: 25608 [mu s]
	Time per residual norm calculation: 497.000000 [mu s]
	Time per iteration and DOF: 0.507520 [ns]
	Retrieve results bandwidth 2.973000 [GByte/s]
[OGL LOG][Proc: 0]Uz: solve_multi_gpu: 426.128 [ms]
BJhipGKOBiCGStab:  Solving for Uz, Initial residual = 0.07299932427352313, Final residual = 0.005754329054911, No Iterations 13
[INFO] MomentumPredictor: 1960.68 [ms]
[INFO] MatrixAssemblyPI: 918.5549999999999 [ms]
[INFO] MatrixAssemblyPII: 457.702 [ms]
DICPCG:  Solving for p, Initial residual = 0.07476805120316596, Final residual = 0.0007461900805186142, No Iterations 90
[INFO] SolveP: 13345.56 [ms]
time step continuity errors : sum local = 0.02189185436565868, global = 0.003556935008672589, cumulative = 0.1259199177844486
[INFO] postSolveP: 248.797 [ms]
[OGL LOG][Proc: 0]: global_index_init: 0.042 [ms]
[OGL LOG][Proc: 0]nuTilda_local_coeffs: call_update: 0 [ms]
[OGL LOG][Proc: 0]nuTilda_non_local_coeffs: call_update: 0 [ms]
[OGL LOG][Proc: 0]nuTilda: update_local_matrix_data: 125.82 [ms]
[OGL LOG][Proc: 0]nuTilda: update_non_local_matrix_data: 0.167 [ms]
[OGL LOG][Proc: 0]nuTilda_matrix: call_update: 51.127 [ms]
[OGL LOG][Proc: 0]nuTilda_rhs: call_update: 11.465 [ms]
[OGL LOG][Preconditioner.H:121] Generate preconditioner BJ MaxBlockSize 1
[OGL LOG][Proc: 0]nuTilda: init_precond: 1.796 [ms]
[OGL LOG][StoppingCriterion.H:373] Creating stopping criterion with minIter 3 frequency 1
[OGL LOG][Proc: 0]nuTilda: generate_solver: 0.002 [ms]
[OGL LOG][Proc: 0]nuTilda: solve: 269.796 [ms]
[OGL LOG][Proc: 0]nuTilda: copy_x_back: 16.685 [ms]
[OGL LOG][lduLduBase.H:336] 
Statistics:
	Time per iteration: 134898 [mu s]
	Time per residual norm calculation: 333.000000 [mu s]
	Time per iteration and DOF: 2.673519 [ns]
	Retrieve results bandwidth 3.033000 [GByte/s]
[OGL LOG][Proc: 0]nuTilda: solve_multi_gpu: 354.238 [ms]
BJhipGKOBiCGStab:  Solving for nuTilda, Initial residual = 0.01947346899268954, Final residual = 0.00145857809384191, No Iterations 2
[INFO] TimeStep: 27338.913 [ms]
ExecutionTime = 1926.23 s  ClockTime = 1935 s

End

Finalising parallel run
