/*---------------------------------------------------------------------------*\
| =========                 |                                                 |
| \\      /  F ield         | OpenFOAM: The Open Source CFD Toolbox           |
|  \\    /   O peration     | Version:  2306                                  |
|   \\  /    A nd           | Website:  www.openfoam.com                      |
|    \\/     M anipulation  |                                                 |
\*---------------------------------------------------------------------------*/
Build  : a6e826bd55-20230630 OPENFOAM=2306 version=v2306
Arch   : "LSB;label=32;scalar=64"
Exec   : icoFoam -parallel -case /tmp/lidDrivenCavity/workspace/61c628e3a010c6b22c874c484879516e/case
Date   : Jan 09 2024
Time   : 21:22:49
Host   : nla-gpu2.ianm.kit.edu
PID    : 398203
I/O    : uncollated
Case   : /tmp/lidDrivenCavity/workspace/61c628e3a010c6b22c874c484879516e/case
nProcs : 16
Hosts  :
(
    (nla-gpu2.ianm.kit.edu 16)
)
Pstream initialized with:
    floatTransfer      : false
    nProcsSimpleSum    : 0
    nonBlockingExchange: 0 (tuning: 0)
    exchange algorithm : -1
    commsType          : nonBlocking
    polling iterations : 0
trapFpe: Floating point exception trapping enabled (FOAM_SIGFPE).
fileModificationChecking : Monitoring run-time modified files using timeStampMaster (fileModificationSkew 5, maxFileModificationPolls 20)
allowSystemOperations : Allowing user-supplied system call operations

// * * * * * * * * * * * * * * * * * * * * * * * * * * * * * * * * * * * * * //
Create time

--> FOAM Warning : 
    From void* Foam::dlLibraryTable::openLibrary(const Foam::fileName&, bool)
    in file db/dynamicLibrary/dlLibraryTable/dlLibraryTable.C at line 188
    Could not load "libpetscFoam.so"
libpetscFoam.so: cannot open shared object file: No such file or directory
Create mesh for time = 0


PISO: Operating solver in PISO mode

Reading transportProperties

Reading field p

Reading field U

Reading/calculating face flux field phi


Starting time loop

Time = 0.0005

Courant Number mean: 8.62851e-18 max: 8.67362e-15
[INFO] MatrixAssemblyU: 8.193 [ms]
DILUPBiCGStab:  Solving for Ux, Initial residual = 1, Final residual = 0.00283431, No Iterations 5
DILUPBiCGStab:  Solving for Uy:  solution singularity
DILUPBiCGStab:  Solving for Uz:  solution singularity
[INFO] MomentumPredictor: 30.655 [ms]
[INFO] MatrixAssemblyPI: 6.018 [ms]
[INFO] AdjustPhi: 0.628 [ms]
[INFO] ConstrainPressure: 0.014 [ms]
[INFO] MatrixAssemblyPII: 1.861 [ms]
DICPCG:  Solving for p, Initial residual = 1, Final residual = 9.20942e-05, No Iterations 302
[INFO] SolveP: 410.661 [ms]
time step continuity errors : sum local = 1.97882e-08, global = 7.88458e-22, cumulative = 7.88458e-22
[INFO] ContinuityError: 1.218 [ms]
[INFO] CorrectBoundary: 0.068 [ms]
[INFO] PISOStep: 424.49 [ms]
[INFO] MatrixAssemblyPI: 6.942 [ms]
[INFO] AdjustPhi: 0.374 [ms]
[INFO] ConstrainPressure: 0.003 [ms]
[INFO] MatrixAssemblyPII: 1.982 [ms]
DICPCG:  Solving for p, Initial residual = 0.731155, Final residual = 9.47304e-05, No Iterations 299
[INFO] SolveP: 378.764 [ms]
time step continuity errors : sum local = 2.6877e-08, global = -2.67903e-21, cumulative = -1.89057e-21
[INFO] ContinuityError: 1.091 [ms]
[INFO] CorrectBoundary: 0.077 [ms]
[INFO] PISOStep: 392.055 [ms]
[INFO] TimeStep: 856.935 [ms]
ExecutionTime = 1.14 s  ClockTime = 2 s

Time = 0.001

Courant Number mean: 0.0215183 max: 0.377124
[INFO] MatrixAssemblyU: 4.071 [ms]
DILUPBiCGStab:  Solving for Ux, Initial residual = 0.150306, Final residual = 0.00127596, No Iterations 5
DILUPBiCGStab:  Solving for Uy, Initial residual = 0.368273, Final residual = 0.00250953, No Iterations 5
DILUPBiCGStab:  Solving for Uz, Initial residual = 0.986415, Final residual = 0.00613248, No Iterations 5
[INFO] MomentumPredictor: 52.702 [ms]
[INFO] MatrixAssemblyPI: 5.661 [ms]
[INFO] AdjustPhi: 0.415 [ms]
[INFO] ConstrainPressure: 0.003 [ms]
[INFO] MatrixAssemblyPII: 1.682 [ms]
DICPCG:  Solving for p, Initial residual = 0.691555, Final residual = 9.09256e-05, No Iterations 297
[INFO] SolveP: 402.482 [ms]
time step continuity errors : sum local = 2.89407e-08, global = -1.68724e-21, cumulative = -3.57781e-21
[INFO] ContinuityError: 1.34 [ms]
[INFO] CorrectBoundary: 0.258 [ms]
[INFO] PISOStep: 415.413 [ms]
[INFO] MatrixAssemblyPI: 7.025 [ms]
[INFO] AdjustPhi: 0.393 [ms]
[INFO] ConstrainPressure: 0.003 [ms]
[INFO] MatrixAssemblyPII: 2.344 [ms]
DICPCG:  Solving for p, Initial residual = 0.620743, Final residual = 9.31318e-05, No Iterations 296
[INFO] SolveP: 394.432 [ms]
time step continuity errors : sum local = 3.02333e-08, global = 1.69608e-21, cumulative = -1.88173e-21
[INFO] ContinuityError: 1.22 [ms]
[INFO] CorrectBoundary: 0.065 [ms]
[INFO] PISOStep: 409.246 [ms]
[INFO] TimeStep: 882.443 [ms]
ExecutionTime = 2.02 s  ClockTime = 3 s

Time = 0.0015

Courant Number mean: 0.0324765 max: 0.441239
[INFO] MatrixAssemblyU: 5.325 [ms]
DILUPBiCGStab:  Solving for Ux, Initial residual = 0.0531255, Final residual = 0.000379594, No Iterations 5
DILUPBiCGStab:  Solving for Uy, Initial residual = 0.124762, Final residual = 0.000649524, No Iterations 5
DILUPBiCGStab:  Solving for Uz, Initial residual = 0.580523, Final residual = 0.00343025, No Iterations 5
[INFO] MomentumPredictor: 53.12 [ms]
[INFO] MatrixAssemblyPI: 5.87 [ms]
[INFO] AdjustPhi: 0.439 [ms]
[INFO] ConstrainPressure: 0.003 [ms]
[INFO] MatrixAssemblyPII: 1.817 [ms]
DICPCG:  Solving for p, Initial residual = 0.633197, Final residual = 9.6834e-05, No Iterations 142
[INFO] SolveP: 184.273 [ms]
time step continuity errors : sum local = 2.89985e-08, global = -9.42159e-22, cumulative = -2.82389e-21
[INFO] ContinuityError: 1.201 [ms]
[INFO] CorrectBoundary: 0.065 [ms]
[INFO] PISOStep: 196.003 [ms]
[INFO] MatrixAssemblyPI: 5.47 [ms]
[INFO] AdjustPhi: 2.009 [ms]
[INFO] ConstrainPressure: 0.003 [ms]
[INFO] MatrixAssemblyPII: 1.72 [ms]
DICPCG:  Solving for p, Initial residual = 0.580603, Final residual = 8.86682e-05, No Iterations 140
[INFO] SolveP: 176.788 [ms]
time step continuity errors : sum local = 2.18575e-08, global = -7.79494e-21, cumulative = -1.06188e-20
[INFO] ContinuityError: 0.88 [ms]
[INFO] CorrectBoundary: 0.089 [ms]
[INFO] PISOStep: 189.739 [ms]
[INFO] TimeStep: 445.371 [ms]
ExecutionTime = 2.47 s  ClockTime = 3 s

Time = 0.002

Courant Number mean: 0.0388748 max: 0.452916
[INFO] MatrixAssemblyU: 4.143 [ms]
DILUPBiCGStab:  Solving for Ux, Initial residual = 0.0318855, Final residual = 0.000197402, No Iterations 5
DILUPBiCGStab:  Solving for Uy, Initial residual = 0.081516, Final residual = 0.000429446, No Iterations 5
DILUPBiCGStab:  Solving for Uz, Initial residual = 0.283698, Final residual = 0.00136015, No Iterations 5
[INFO] MomentumPredictor: 52.024 [ms]
[INFO] MatrixAssemblyPI: 8.138 [ms]
[INFO] AdjustPhi: 0.29 [ms]
[INFO] ConstrainPressure: 0.005 [ms]
[INFO] MatrixAssemblyPII: 2.38 [ms]
DICPCG:  Solving for p, Initial residual = 0.413475, Final residual = 9.5878e-05, No Iterations 140
[INFO] SolveP: 190.018 [ms]
time step continuity errors : sum local = 2.0509e-08, global = 1.7011e-21, cumulative = -8.91773e-21
[INFO] ContinuityError: 1.662 [ms]
[INFO] CorrectBoundary: 0.695 [ms]
[INFO] PISOStep: 205.809 [ms]
[INFO] MatrixAssemblyPI: 6.55 [ms]
[INFO] AdjustPhi: 0.917 [ms]
[INFO] ConstrainPressure: 0.003 [ms]
[INFO] MatrixAssemblyPII: 1.668 [ms]
DICPCG:  Solving for p, Initial residual = 0.351552, Final residual = 9.41393e-05, No Iterations 139
[INFO] SolveP: 175.484 [ms]
time step continuity errors : sum local = 1.88539e-08, global = -4.53192e-21, cumulative = -1.34496e-20
[INFO] ContinuityError: 1.391 [ms]
[INFO] CorrectBoundary: 0.381 [ms]
[INFO] PISOStep: 190.283 [ms]
[INFO] TimeStep: 453.499 [ms]
ExecutionTime = 2.92 s  ClockTime = 3 s

Time = 0.0025

Courant Number mean: 0.0439265 max: 0.459604
[INFO] MatrixAssemblyU: 4.281 [ms]
DILUPBiCGStab:  Solving for Ux, Initial residual = 0.0235353, Final residual = 0.000127101, No Iterations 5
DILUPBiCGStab:  Solving for Uy, Initial residual = 0.0515479, Final residual = 0.000259213, No Iterations 5
DILUPBiCGStab:  Solving for Uz, Initial residual = 0.105815, Final residual = 0.000572903, No Iterations 5
[INFO] MomentumPredictor: 52.923 [ms]
[INFO] MatrixAssemblyPI: 5.736 [ms]
[INFO] AdjustPhi: 0.434 [ms]
[INFO] ConstrainPressure: 0.003 [ms]
[INFO] MatrixAssemblyPII: 1.717 [ms]
DICPCG:  Solving for p, Initial residual = 0.31561, Final residual = 9.32098e-05, No Iterations 281
[INFO] SolveP: 363.94 [ms]
time step continuity errors : sum local = 1.50703e-08, global = -6.11005e-21, cumulative = -1.95597e-20
[INFO] ContinuityError: 0.886 [ms]
[INFO] CorrectBoundary: 0.074 [ms]
[INFO] PISOStep: 375.166 [ms]
[INFO] MatrixAssemblyPI: 5.524 [ms]
[INFO] AdjustPhi: 0.501 [ms]
[INFO] ConstrainPressure: 0.003 [ms]
[INFO] MatrixAssemblyPII: 1.722 [ms]
DICPCG:  Solving for p, Initial residual = 0.269999, Final residual = 9.57167e-05, No Iterations 280
[INFO] SolveP: 371.236 [ms]
time step continuity errors : sum local = 1.53626e-08, global = 1.90272e-21, cumulative = -1.7657e-20
[INFO] ContinuityError: 1.244 [ms]
[INFO] CorrectBoundary: 0.105 [ms]
[INFO] PISOStep: 384.003 [ms]
[INFO] TimeStep: 817.448 [ms]
ExecutionTime = 3.73 s  ClockTime = 4 s

Time = 0.003

Courant Number mean: 0.0479664 max: 0.463845
[INFO] MatrixAssemblyU: 5.457 [ms]
DILUPBiCGStab:  Solving for Ux, Initial residual = 0.0179025, Final residual = 9.39216e-05, No Iterations 5
DILUPBiCGStab:  Solving for Uy, Initial residual = 0.0401636, Final residual = 0.000138775, No Iterations 5
DILUPBiCGStab:  Solving for Uz, Initial residual = 0.0884281, Final residual = 0.000420591, No Iterations 5
[INFO] MomentumPredictor: 52.418 [ms]
[INFO] MatrixAssemblyPI: 5.832 [ms]
[INFO] AdjustPhi: 0.388 [ms]
[INFO] ConstrainPressure: 0.003 [ms]
[INFO] MatrixAssemblyPII: 1.778 [ms]
DICPCG:  Solving for p, Initial residual = 0.197354, Final residual = 9.54659e-05, No Iterations 130
[INFO] SolveP: 165.879 [ms]
time step continuity errors : sum local = 1.49333e-08, global = -3.68194e-21, cumulative = -2.13389e-20
[INFO] ContinuityError: 2.137 [ms]
[INFO] CorrectBoundary: 0.114 [ms]
[INFO] PISOStep: 178.335 [ms]
[INFO] MatrixAssemblyPI: 5.637 [ms]
[INFO] AdjustPhi: 2.228 [ms]
[INFO] ConstrainPressure: 0.004 [ms]
[INFO] MatrixAssemblyPII: 1.747 [ms]
DICPCG:  Solving for p, Initial residual = 0.164123, Final residual = 9.47705e-05, No Iterations 129
[INFO] SolveP: 170.366 [ms]
time step continuity errors : sum local = 1.49584e-08, global = 8.12963e-22, cumulative = -2.05259e-20
[INFO] ContinuityError: 0.903 [ms]
[INFO] CorrectBoundary: 0.081 [ms]
[INFO] PISOStep: 183.677 [ms]
[INFO] TimeStep: 421.168 [ms]
ExecutionTime = 4.15 s  ClockTime = 5 s

Time = 0.0035

Courant Number mean: 0.0513755 max: 0.466724
[INFO] MatrixAssemblyU: 4.144 [ms]
DILUPBiCGStab:  Solving for Ux, Initial residual = 0.014641, Final residual = 6.72213e-05, No Iterations 5
DILUPBiCGStab:  Solving for Uy, Initial residual = 0.031795, Final residual = 0.000119644, No Iterations 5
DILUPBiCGStab:  Solving for Uz, Initial residual = 0.0585178, Final residual = 0.000260383, No Iterations 5
[INFO] MomentumPredictor: 52.086 [ms]
[INFO] MatrixAssemblyPI: 5.712 [ms]
[INFO] AdjustPhi: 0.404 [ms]
[INFO] ConstrainPressure: 0.003 [ms]
[INFO] MatrixAssemblyPII: 1.72 [ms]
DICPCG:  Solving for p, Initial residual = 0.139612, Final residual = 9.80576e-05, No Iterations 123
[INFO] SolveP: 156.01 [ms]
time step continuity errors : sum local = 1.63904e-08, global = -4.06063e-21, cumulative = -2.45866e-20
[INFO] ContinuityError: 0.891 [ms]
[INFO] CorrectBoundary: 0.087 [ms]
[INFO] PISOStep: 167.15 [ms]
[INFO] MatrixAssemblyPI: 5.554 [ms]
[INFO] AdjustPhi: 0.335 [ms]
[INFO] ConstrainPressure: 0.002 [ms]
[INFO] MatrixAssemblyPII: 1.777 [ms]
DICPCG:  Solving for p, Initial residual = 0.116734, Final residual = 9.95931e-05, No Iterations 120
[INFO] SolveP: 154.869 [ms]
time step continuity errors : sum local = 1.5209e-08, global = 1.22164e-21, cumulative = -2.33649e-20
[INFO] ContinuityError: 0.866 [ms]
[INFO] CorrectBoundary: 0.245 [ms]
[INFO] PISOStep: 165.906 [ms]
[INFO] TimeStep: 390.522 [ms]
ExecutionTime = 4.55 s  ClockTime = 5 s

Time = 0.004

Courant Number mean: 0.0543148 max: 0.468932
[INFO] MatrixAssemblyU: 4.193 [ms]
DILUPBiCGStab:  Solving for Ux, Initial residual = 0.0122804, Final residual = 5.12938e-05, No Iterations 5
DILUPBiCGStab:  Solving for Uy, Initial residual = 0.0265585, Final residual = 7.80792e-05, No Iterations 5
DILUPBiCGStab:  Solving for Uz, Initial residual = 0.0517694, Final residual = 0.000177546, No Iterations 5
[INFO] MomentumPredictor: 50.602 [ms]
[INFO] MatrixAssemblyPI: 5.828 [ms]
[INFO] AdjustPhi: 0.646 [ms]
[INFO] ConstrainPressure: 0.003 [ms]
[INFO] MatrixAssemblyPII: 1.762 [ms]
DICPCG:  Solving for p, Initial residual = 0.0909138, Final residual = 9.73158e-05, No Iterations 121
[INFO] SolveP: 155.327 [ms]
time step continuity errors : sum local = 1.50618e-08, global = -3.27491e-21, cumulative = -2.66398e-20
[INFO] ContinuityError: 0.904 [ms]
[INFO] CorrectBoundary: 0.057 [ms]
[INFO] PISOStep: 168.589 [ms]
[INFO] MatrixAssemblyPI: 6.886 [ms]
[INFO] AdjustPhi: 0.296 [ms]
[INFO] ConstrainPressure: 0.003 [ms]
[INFO] MatrixAssemblyPII: 2.018 [ms]
DICPCG:  Solving for p, Initial residual = 0.0751931, Final residual = 9.73619e-05, No Iterations 119
[INFO] SolveP: 165.231 [ms]
time step continuity errors : sum local = 1.4436e-08, global = -9.54378e-21, cumulative = -3.61836e-20
[INFO] ContinuityError: 1.712 [ms]
[INFO] CorrectBoundary: 0.533 [ms]
[INFO] PISOStep: 179.12 [ms]
[INFO] TimeStep: 403.552 [ms]
ExecutionTime = 4.95 s  ClockTime = 5 s

Time = 0.0045

Courant Number mean: 0.0568923 max: 0.470635
[INFO] MatrixAssemblyU: 3.876 [ms]
DILUPBiCGStab:  Solving for Ux, Initial residual = 0.0105382, Final residual = 3.98049e-05, No Iterations 5
DILUPBiCGStab:  Solving for Uy, Initial residual = 0.0226894, Final residual = 6.82078e-05, No Iterations 5
DILUPBiCGStab:  Solving for Uz, Initial residual = 0.0439541, Final residual = 0.00013414, No Iterations 5
[INFO] MomentumPredictor: 54.102 [ms]
[INFO] MatrixAssemblyPI: 5.739 [ms]
[INFO] AdjustPhi: 0.472 [ms]
[INFO] ConstrainPressure: 0.003 [ms]
[INFO] MatrixAssemblyPII: 1.872 [ms]
DICPCG:  Solving for p, Initial residual = 0.0667636, Final residual = 9.25997e-05, No Iterations 124
[INFO] SolveP: 160.604 [ms]
time step continuity errors : sum local = 1.59154e-08, global = -4.39915e-21, cumulative = -4.05828e-20
[INFO] ContinuityError: 0.918 [ms]
[INFO] CorrectBoundary: 0.08 [ms]
[INFO] PISOStep: 171.994 [ms]
[INFO] MatrixAssemblyPI: 5.535 [ms]
[INFO] AdjustPhi: 0.419 [ms]
[INFO] ConstrainPressure: 0.003 [ms]
[INFO] MatrixAssemblyPII: 1.807 [ms]
DICPCG:  Solving for p, Initial residual = 0.0556874, Final residual = 9.03271e-05, No Iterations 122
[INFO] SolveP: 159.449 [ms]
time step continuity errors : sum local = 1.3718e-08, global = 3.11599e-21, cumulative = -3.74668e-20
[INFO] ContinuityError: 0.916 [ms]
[INFO] CorrectBoundary: 0.271 [ms]
[INFO] PISOStep: 170.687 [ms]
[INFO] TimeStep: 402.125 [ms]
ExecutionTime = 5.35 s  ClockTime = 6 s

Time = 0.005

Courant Number mean: 0.059188 max: 0.47203
[INFO] MatrixAssemblyU: 4.182 [ms]
DILUPBiCGStab:  Solving for Ux, Initial residual = 0.00921479, Final residual = 3.32329e-05, No Iterations 5
DILUPBiCGStab:  Solving for Uy, Initial residual = 0.0197735, Final residual = 5.14957e-05, No Iterations 5
DILUPBiCGStab:  Solving for Uz, Initial residual = 0.0393139, Final residual = 0.000116281, No Iterations 5
[INFO] MomentumPredictor: 52.371 [ms]
[INFO] MatrixAssemblyPI: 5.699 [ms]
[INFO] AdjustPhi: 0.434 [ms]
[INFO] ConstrainPressure: 0.004 [ms]
[INFO] MatrixAssemblyPII: 1.771 [ms]
DICPCG:  Solving for p, Initial residual = 0.0448218, Final residual = 8.76083e-05, No Iterations 123
[INFO] SolveP: 157.899 [ms]
time step continuity errors : sum local = 1.46751e-08, global = -3.02769e-21, cumulative = -4.04945e-20
[INFO] ContinuityError: 0.87 [ms]
[INFO] CorrectBoundary: 0.07 [ms]
[INFO] PISOStep: 169.294 [ms]
[INFO] MatrixAssemblyPI: 6.429 [ms]
[INFO] AdjustPhi: 2.164 [ms]
[INFO] ConstrainPressure: 0.003 [ms]
[INFO] MatrixAssemblyPII: 1.793 [ms]
DICPCG:  Solving for p, Initial residual = 0.0378524, Final residual = 8.9962e-05, No Iterations 121
[INFO] SolveP: 153.886 [ms]
time step continuity errors : sum local = 1.3353e-08, global = 4.28131e-21, cumulative = -3.62132e-20
[INFO] ContinuityError: 1.008 [ms]
[INFO] CorrectBoundary: 0.086 [ms]
[INFO] PISOStep: 168.212 [ms]
[INFO] TimeStep: 395.092 [ms]
ExecutionTime = 5.74 s  ClockTime = 6 s

Time = 0.0055

Courant Number mean: 0.061248 max: 0.473178
[INFO] MatrixAssemblyU: 4.162 [ms]
DILUPBiCGStab:  Solving for Ux, Initial residual = 0.00815349, Final residual = 2.76311e-05, No Iterations 5
DILUPBiCGStab:  Solving for Uy, Initial residual = 0.0174603, Final residual = 4.60541e-05, No Iterations 5
DILUPBiCGStab:  Solving for Uz, Initial residual = 0.0355644, Final residual = 0.000105517, No Iterations 5
[INFO] MomentumPredictor: 51.756 [ms]
[INFO] MatrixAssemblyPI: 5.649 [ms]
[INFO] AdjustPhi: 0.51 [ms]
[INFO] ConstrainPressure: 0.004 [ms]
[INFO] MatrixAssemblyPII: 1.734 [ms]
DICPCG:  Solving for p, Initial residual = 0.0352872, Final residual = 9.78803e-05, No Iterations 268
[INFO] SolveP: 342.442 [ms]
time step continuity errors : sum local = 1.37812e-08, global = 1.08244e-20, cumulative = -2.53888e-20
[INFO] ContinuityError: 0.904 [ms]
[INFO] CorrectBoundary: 0.073 [ms]
[INFO] PISOStep: 353.67 [ms]
[INFO] MatrixAssemblyPI: 5.541 [ms]
[INFO] AdjustPhi: 0.385 [ms]
[INFO] ConstrainPressure: 0.003 [ms]
[INFO] MatrixAssemblyPII: 1.722 [ms]
DICPCG:  Solving for p, Initial residual = 0.0300083, Final residual = 9.2385e-05, No Iterations 268
[INFO] SolveP: 358.68 [ms]
time step continuity errors : sum local = 1.30139e-08, global = 1.28115e-21, cumulative = -2.41076e-20
[INFO] ContinuityError: 1.277 [ms]
[INFO] CorrectBoundary: 0.066 [ms]
[INFO] PISOStep: 371.52 [ms]
[INFO] TimeStep: 782.397 [ms]
ExecutionTime = 6.52 s  ClockTime = 7 s

Time = 0.006

Courant Number mean: 0.0631201 max: 0.474157
[INFO] MatrixAssemblyU: 5.287 [ms]
DILUPBiCGStab:  Solving for Ux, Initial residual = 0.00729271, Final residual = 2.4131e-05, No Iterations 5
DILUPBiCGStab:  Solving for Uy, Initial residual = 0.0155904, Final residual = 3.9377e-05, No Iterations 5
DILUPBiCGStab:  Solving for Uz, Initial residual = 0.0311995, Final residual = 7.58287e-05, No Iterations 5
[INFO] MomentumPredictor: 54.247 [ms]
[INFO] MatrixAssemblyPI: 5.837 [ms]
[INFO] AdjustPhi: 2.199 [ms]
[INFO] ConstrainPressure: 0.004 [ms]
[INFO] MatrixAssemblyPII: 1.832 [ms]
DICPCG:  Solving for p, Initial residual = 0.0254062, Final residual = 9.93512e-05, No Iterations 113
[INFO] SolveP: 142.472 [ms]
time step continuity errors : sum local = 1.47838e-08, global = 9.14303e-21, cumulative = -1.49646e-20
[INFO] ContinuityError: 0.887 [ms]
[INFO] CorrectBoundary: 0.098 [ms]
[INFO] PISOStep: 155.744 [ms]
[INFO] MatrixAssemblyPI: 5.499 [ms]
[INFO] AdjustPhi: 0.456 [ms]
[INFO] ConstrainPressure: 0.003 [ms]
[INFO] MatrixAssemblyPII: 1.715 [ms]
DICPCG:  Solving for p, Initial residual = 0.0221835, Final residual = 9.08603e-05, No Iterations 113
[INFO] SolveP: 144.851 [ms]
time step continuity errors : sum local = 1.3111e-08, global = -7.22155e-22, cumulative = -1.56868e-20
[INFO] ContinuityError: 0.861 [ms]
[INFO] CorrectBoundary: 0.079 [ms]
[INFO] PISOStep: 155.829 [ms]
[INFO] TimeStep: 372.296 [ms]
ExecutionTime = 6.89 s  ClockTime = 7 s

Time = 0.0065

Courant Number mean: 0.0648242 max: 0.474994
[INFO] MatrixAssemblyU: 3.964 [ms]
DILUPBiCGStab:  Solving for Ux, Initial residual = 0.00656205, Final residual = 2.09278e-05, No Iterations 5
DILUPBiCGStab:  Solving for Uy, Initial residual = 0.0140637, Final residual = 3.53449e-05, No Iterations 5
DILUPBiCGStab:  Solving for Uz, Initial residual = 0.0283151, Final residual = 6.63571e-05, No Iterations 5
[INFO] MomentumPredictor: 51.337 [ms]
[INFO] MatrixAssemblyPI: 5.814 [ms]
[INFO] AdjustPhi: 0.308 [ms]
[INFO] ConstrainPressure: 0.005 [ms]
[INFO] MatrixAssemblyPII: 1.699 [ms]
DICPCG:  Solving for p, Initial residual = 0.0208855, Final residual = 9.58087e-05, No Iterations 113
[INFO] SolveP: 145.645 [ms]
time step continuity errors : sum local = 1.49163e-08, global = 3.44428e-21, cumulative = -1.22425e-20
[INFO] ContinuityError: 0.91 [ms]
[INFO] CorrectBoundary: 0.102 [ms]
[INFO] PISOStep: 156.88 [ms]
[INFO] MatrixAssemblyPI: 5.509 [ms]
[INFO] AdjustPhi: 0.443 [ms]
[INFO] ConstrainPressure: 0.003 [ms]
[INFO] MatrixAssemblyPII: 1.702 [ms]
DICPCG:  Solving for p, Initial residual = 0.0183982, Final residual = 9.31647e-05, No Iterations 111
[INFO] SolveP: 146.346 [ms]
time step continuity errors : sum local = 1.34001e-08, global = -2.50967e-21, cumulative = -1.47521e-20
[INFO] ContinuityError: 0.93 [ms]
[INFO] CorrectBoundary: 0.09 [ms]
[INFO] PISOStep: 157.379 [ms]
[INFO] TimeStep: 370.739 [ms]
ExecutionTime = 7.26 s  ClockTime = 8 s

Time = 0.007

Courant Number mean: 0.0663921 max: 0.475725
[INFO] MatrixAssemblyU: 4.204 [ms]
DILUPBiCGStab:  Solving for Ux, Initial residual = 0.00595876, Final residual = 1.87018e-05, No Iterations 5
DILUPBiCGStab:  Solving for Uy, Initial residual = 0.0127807, Final residual = 3.17889e-05, No Iterations 5
DILUPBiCGStab:  Solving for Uz, Initial residual = 0.0259122, Final residual = 6.52869e-05, No Iterations 5
[INFO] MomentumPredictor: 52.096 [ms]
[INFO] MatrixAssemblyPI: 5.689 [ms]
[INFO] AdjustPhi: 0.418 [ms]
[INFO] ConstrainPressure: 0.003 [ms]
[INFO] MatrixAssemblyPII: 1.71 [ms]
DICPCG:  Solving for p, Initial residual = 0.0163407, Final residual = 9.68917e-05, No Iterations 117
[INFO] SolveP: 152.2 [ms]
time step continuity errors : sum local = 1.5246e-08, global = -1.59088e-21, cumulative = -1.6343e-20
[INFO] ContinuityError: 1.35 [ms]
[INFO] CorrectBoundary: 0.06 [ms]
[INFO] PISOStep: 163.781 [ms]
[INFO] MatrixAssemblyPI: 5.476 [ms]
[INFO] AdjustPhi: 2.14 [ms]
[INFO] ConstrainPressure: 0.002 [ms]
[INFO] MatrixAssemblyPII: 1.729 [ms]
DICPCG:  Solving for p, Initial residual = 0.0147763, Final residual = 9.99167e-05, No Iterations 114
[INFO] SolveP: 144.869 [ms]
time step continuity errors : sum local = 1.4555e-08, global = 2.66911e-21, cumulative = -1.36739e-20
[INFO] ContinuityError: 0.898 [ms]
[INFO] CorrectBoundary: 0.069 [ms]
[INFO] PISOStep: 157.714 [ms]
[INFO] TimeStep: 378.923 [ms]
ExecutionTime = 7.64 s  ClockTime = 8 s

Time = 0.0075

Courant Number mean: 0.0678393 max: 0.476365
[INFO] MatrixAssemblyU: 4.155 [ms]
DILUPBiCGStab:  Solving for Ux, Initial residual = 0.00544456, Final residual = 1.66736e-05, No Iterations 5
DILUPBiCGStab:  Solving for Uy, Initial residual = 0.0116727, Final residual = 2.90408e-05, No Iterations 5
DILUPBiCGStab:  Solving for Uz, Initial residual = 0.0242327, Final residual = 6.3575e-05, No Iterations 5
[INFO] MomentumPredictor: 51.077 [ms]
[INFO] MatrixAssemblyPI: 5.735 [ms]
[INFO] AdjustPhi: 0.469 [ms]
[INFO] ConstrainPressure: 0.003 [ms]
[INFO] MatrixAssemblyPII: 1.71 [ms]
DICPCG:  Solving for p, Initial residual = 0.0143942, Final residual = 9.44692e-05, No Iterations 120
[INFO] SolveP: 154.329 [ms]
time step continuity errors : sum local = 1.58336e-08, global = -4.83073e-22, cumulative = -1.4157e-20
[INFO] ContinuityError: 0.911 [ms]
[INFO] CorrectBoundary: 0.073 [ms]
[INFO] PISOStep: 165.66 [ms]
[INFO] MatrixAssemblyPI: 5.484 [ms]
[INFO] AdjustPhi: 0.365 [ms]
[INFO] ConstrainPressure: 0.003 [ms]
[INFO] MatrixAssemblyPII: 1.729 [ms]
DICPCG:  Solving for p, Initial residual = 0.0131118, Final residual = 9.53176e-05, No Iterations 116
[INFO] SolveP: 152.017 [ms]
time step continuity errors : sum local = 1.4049e-08, global = -1.53339e-22, cumulative = -1.43103e-20
[INFO] ContinuityError: 0.871 [ms]
[INFO] CorrectBoundary: 0.092 [ms]
[INFO] PISOStep: 162.886 [ms]
[INFO] TimeStep: 384.915 [ms]
ExecutionTime = 8.02 s  ClockTime = 9 s

Time = 0.008

Courant Number mean: 0.0691767 max: 0.476935
[INFO] MatrixAssemblyU: 4.121 [ms]
DILUPBiCGStab:  Solving for Ux, Initial residual = 0.00499081, Final residual = 1.5144e-05, No Iterations 5
DILUPBiCGStab:  Solving for Uy, Initial residual = 0.01075, Final residual = 2.67254e-05, No Iterations 5
DILUPBiCGStab:  Solving for Uz, Initial residual = 0.0224685, Final residual = 6.75005e-05, No Iterations 5
[INFO] MomentumPredictor: 51.445 [ms]
[INFO] MatrixAssemblyPI: 5.828 [ms]
[INFO] AdjustPhi: 0.306 [ms]
[INFO] ConstrainPressure: 0.003 [ms]
[INFO] MatrixAssemblyPII: 1.707 [ms]
DICPCG:  Solving for p, Initial residual = 0.0122555, Final residual = 9.8613e-05, No Iterations 121
[INFO] SolveP: 154.365 [ms]
time step continuity errors : sum local = 1.69039e-08, global = 6.60462e-21, cumulative = -7.7057e-21
[INFO] ContinuityError: 0.887 [ms]
[INFO] CorrectBoundary: 0.073 [ms]
[INFO] PISOStep: 165.415 [ms]
[INFO] MatrixAssemblyPI: 5.554 [ms]
[INFO] AdjustPhi: 0.425 [ms]
[INFO] ConstrainPressure: 0.003 [ms]
[INFO] MatrixAssemblyPII: 1.815 [ms]
DICPCG:  Solving for p, Initial residual = 0.0113791, Final residual = 9.41313e-05, No Iterations 116
[INFO] SolveP: 148.85 [ms]
time step continuity errors : sum local = 1.41264e-08, global = -6.54145e-22, cumulative = -8.35985e-21
[INFO] ContinuityError: 0.871 [ms]
[INFO] CorrectBoundary: 0.08 [ms]
[INFO] PISOStep: 159.836 [ms]
[INFO] TimeStep: 382.024 [ms]
ExecutionTime = 8.4 s  ClockTime = 9 s

Time = 0.0085

Courant Number mean: 0.0704223 max: 0.477443
[INFO] MatrixAssemblyU: 4.219 [ms]
DILUPBiCGStab:  Solving for Ux, Initial residual = 0.00461485, Final residual = 1.3742e-05, No Iterations 5
DILUPBiCGStab:  Solving for Uy, Initial residual = 0.00989772, Final residual = 2.48841e-05, No Iterations 5
DILUPBiCGStab:  Solving for Uz, Initial residual = 0.0213179, Final residual = 7.04146e-05, No Iterations 5
[INFO] MomentumPredictor: 51.181 [ms]
[INFO] MatrixAssemblyPI: 5.728 [ms]
[INFO] AdjustPhi: 0.385 [ms]
[INFO] ConstrainPressure: 0.003 [ms]
[INFO] MatrixAssemblyPII: 1.787 [ms]
DICPCG:  Solving for p, Initial residual = 0.011231, Final residual = 9.25375e-05, No Iterations 261
[INFO] SolveP: 338.87 [ms]
time step continuity errors : sum local = 1.29383e-08, global = -5.71768e-21, cumulative = -1.40775e-20
[INFO] ContinuityError: 1.38 [ms]
[INFO] CorrectBoundary: 0.069 [ms]
[INFO] PISOStep: 352.145 [ms]
[INFO] MatrixAssemblyPI: 6.787 [ms]
[INFO] AdjustPhi: 0.475 [ms]
[INFO] ConstrainPressure: 0.004 [ms]
[INFO] MatrixAssemblyPII: 2.035 [ms]
DICPCG:  Solving for p, Initial residual = 0.0104907, Final residual = 9.84136e-05, No Iterations 259
[INFO] SolveP: 337.566 [ms]
time step continuity errors : sum local = 1.37651e-08, global = 1.73785e-22, cumulative = -1.39037e-20
[INFO] ContinuityError: 0.962 [ms]
[INFO] CorrectBoundary: 0.243 [ms]
[INFO] PISOStep: 350.683 [ms]
[INFO] TimeStep: 759.465 [ms]
ExecutionTime = 9.15 s  ClockTime = 10 s

Time = 0.009

Courant Number mean: 0.0715858 max: 0.477902
[INFO] MatrixAssemblyU: 4.036 [ms]
DILUPBiCGStab:  Solving for Ux, Initial residual = 0.00426387, Final residual = 1.25979e-05, No Iterations 5
DILUPBiCGStab:  Solving for Uy, Initial residual = 0.00917287, Final residual = 2.28762e-05, No Iterations 5
DILUPBiCGStab:  Solving for Uz, Initial residual = 0.0192406, Final residual = 4.90341e-05, No Iterations 5
[INFO] MomentumPredictor: 52.524 [ms]
[INFO] MatrixAssemblyPI: 5.647 [ms]
[INFO] AdjustPhi: 0.505 [ms]
[INFO] ConstrainPressure: 0.003 [ms]
[INFO] MatrixAssemblyPII: 1.696 [ms]
DICPCG:  Solving for p, Initial residual = 0.0100932, Final residual = 9.91091e-05, No Iterations 109
[INFO] SolveP: 140.47 [ms]
time step continuity errors : sum local = 1.52339e-08, global = -2.96534e-21, cumulative = -1.68691e-20
[INFO] ContinuityError: 0.861 [ms]
[INFO] CorrectBoundary: 0.091 [ms]
[INFO] PISOStep: 151.707 [ms]
[INFO] MatrixAssemblyPI: 5.576 [ms]
[INFO] AdjustPhi: 0.345 [ms]
[INFO] ConstrainPressure: 0.002 [ms]
[INFO] MatrixAssemblyPII: 1.688 [ms]
DICPCG:  Solving for p, Initial residual = 0.00949524, Final residual = 9.37985e-05, No Iterations 108
[INFO] SolveP: 139.161 [ms]
time step continuity errors : sum local = 1.36548e-08, global = 1.88783e-21, cumulative = -1.49812e-20
[INFO] ContinuityError: 0.884 [ms]
[INFO] CorrectBoundary: 0.078 [ms]
[INFO] PISOStep: 150.042 [ms]
[INFO] TimeStep: 359.31 [ms]
ExecutionTime = 9.51 s  ClockTime = 10 s

Time = 0.0095

Courant Number mean: 0.0726727 max: 0.478315
[INFO] MatrixAssemblyU: 4.201 [ms]
DILUPBiCGStab:  Solving for Ux, Initial residual = 0.00395536, Final residual = 1.14554e-05, No Iterations 5
DILUPBiCGStab:  Solving for Uy, Initial residual = 0.00852695, Final residual = 2.0946e-05, No Iterations 5
DILUPBiCGStab:  Solving for Uz, Initial residual = 0.0178144, Final residual = 4.49759e-05, No Iterations 5
[INFO] MomentumPredictor: 51.756 [ms]
[INFO] MatrixAssemblyPI: 5.68 [ms]
[INFO] AdjustPhi: 0.398 [ms]
[INFO] ConstrainPressure: 0.004 [ms]
[INFO] MatrixAssemblyPII: 1.72 [ms]
DICPCG:  Solving for p, Initial residual = 0.00924365, Final residual = 9.86857e-05, No Iterations 112
[INFO] SolveP: 144.938 [ms]
time step continuity errors : sum local = 1.55525e-08, global = 1.99774e-21, cumulative = -1.29835e-20
[INFO] ContinuityError: 0.916 [ms]
[INFO] CorrectBoundary: 0.076 [ms]
[INFO] PISOStep: 156.05 [ms]
[INFO] MatrixAssemblyPI: 5.457 [ms]
[INFO] AdjustPhi: 0.46 [ms]
[INFO] ConstrainPressure: 0.003 [ms]
[INFO] MatrixAssemblyPII: 1.751 [ms]
DICPCG:  Solving for p, Initial residual = 0.00870696, Final residual = 9.72919e-05, No Iterations 109
[INFO] SolveP: 143.28 [ms]
time step continuity errors : sum local = 1.40081e-08, global = 5.28103e-22, cumulative = -1.24554e-20
[INFO] ContinuityError: 0.893 [ms]
[INFO] CorrectBoundary: 0.086 [ms]
[INFO] PISOStep: 154.243 [ms]
[INFO] TimeStep: 367.481 [ms]
ExecutionTime = 9.89 s  ClockTime = 10 s

Time = 0.01

Courant Number mean: 0.0736903 max: 0.478692
[INFO] MatrixAssemblyU: 4.17 [ms]
DILUPBiCGStab:  Solving for Ux, Initial residual = 0.00367833, Final residual = 1.05974e-05, No Iterations 5
DILUPBiCGStab:  Solving for Uy, Initial residual = 0.00797198, Final residual = 1.96235e-05, No Iterations 5
DILUPBiCGStab:  Solving for Uz, Initial residual = 0.0167669, Final residual = 4.76638e-05, No Iterations 5
[INFO] MomentumPredictor: 52.833 [ms]
[INFO] MatrixAssemblyPI: 5.642 [ms]
[INFO] AdjustPhi: 0.515 [ms]
[INFO] ConstrainPressure: 0.003 [ms]
[INFO] MatrixAssemblyPII: 1.706 [ms]
DICPCG:  Solving for p, Initial residual = 0.00844651, Final residual = 9.97476e-05, No Iterations 116
[INFO] SolveP: 150.419 [ms]
time step continuity errors : sum local = 1.63834e-08, global = -9.72971e-21, cumulative = -2.21851e-20
[INFO] ContinuityError: 0.892 [ms]
[INFO] CorrectBoundary: 0.068 [ms]
[INFO] PISOStep: 161.573 [ms]
[INFO] MatrixAssemblyPI: 5.489 [ms]
[INFO] AdjustPhi: 0.49 [ms]
[INFO] ConstrainPressure: 0.003 [ms]
[INFO] MatrixAssemblyPII: 1.841 [ms]
DICPCG:  Solving for p, Initial residual = 0.00799312, Final residual = 9.87554e-05, No Iterations 112
[INFO] SolveP: 143.135 [ms]
time step continuity errors : sum local = 1.46492e-08, global = 7.69309e-21, cumulative = -1.4492e-20
[INFO] ContinuityError: 0.858 [ms]
[INFO] CorrectBoundary: 0.069 [ms]
[INFO] PISOStep: 154.068 [ms]
[INFO] TimeStep: 373.862 [ms]
ExecutionTime = 10.26 s  ClockTime = 11 s

End

Finalising parallel run
