/*---------------------------------------------------------------------------*\
| =========                 |                                                 |
| \\      /  F ield         | OpenFOAM: The Open Source CFD Toolbox           |
|  \\    /   O peration     | Version:  2306                                  |
|   \\  /    A nd           | Website:  www.openfoam.com                      |
|    \\/     M anipulation  |                                                 |
\*---------------------------------------------------------------------------*/
Build  : c423ebec-20231012 OPENFOAM=2306 version=v2306
Arch   : "LSB;label=32;scalar=64"
Exec   : icoFoam -parallel -case /hkfs/work/workspace/scratch/eq4036-l3d/workspace/5873ede19fd6a9b45a4972a236d0479a/case
Date   : Dec 30 2023
Time   : 09:52:46
Host   : hkn0816.localdomain
PID    : 3232447
I/O    : uncollated
Case   : /hkfs/work/workspace/scratch/eq4036-l3d/workspace/5873ede19fd6a9b45a4972a236d0479a/case
nProcs : 16
Hosts  :
(
    (hkn0816.localdomain 16)
)
Pstream initialized with:
    floatTransfer      : false
    nProcsSimpleSum    : 0
    nonBlockingExchange: 0 (tuning: 0)
    exchange algorithm : -1
    commsType          : nonBlocking
    polling iterations : 0
trapFpe: Floating point exception trapping enabled (FOAM_SIGFPE).
fileModificationChecking : Monitoring run-time modified files using timeStampMaster (fileModificationSkew 5, maxFileModificationPolls 20)
allowSystemOperations : Allowing user-supplied system call operations

// * * * * * * * * * * * * * * * * * * * * * * * * * * * * * * * * * * * * * //
Create time

--> FOAM Warning : 
    From void* Foam::dlLibraryTable::openLibrary(const Foam::fileName&, bool)
    in file db/dynamicLibrary/dlLibraryTable/dlLibraryTable.C at line 188
    Could not load "libpetscFoam.so"
libpetscFoam.so: cannot open shared object file: No such file or directory
Create mesh for time = 0


PISO: Operating solver in PISO mode

Reading transportProperties

Reading field p

Reading field U

Reading/calculating face flux field phi


Starting time loop

Time = 0.000125

Courant Number mean: 8.02505e-18 max: 4.85723e-14
[INFO] MatrixAssemblyU: 1318.7 [ms]
DILUPBiCGStab:  Solving for Ux, Initial residual = 1, Final residual = 0.0215184, No Iterations 5
DILUPBiCGStab:  Solving for Uy:  solution singularity
DILUPBiCGStab:  Solving for Uz:  solution singularity
[INFO] MomentumPredictor: 4335.35 [ms]
[INFO] MatrixAssemblyPI: 1211.65 [ms]
[INFO] AdjustPhi: 51.531 [ms]
[INFO] ConstrainPressure: 0.007 [ms]
[INFO] MatrixAssemblyPII: 365.134 [ms]
[OGL LOG][lduLduBase.H:119] Initialising OGL
	OGL commit:  a2fc0ff+
	Branch: feat/on_device_permute 
	Build type: Release
	Ginkgo version: 1.7.0 ( develop)
	Ginkgo commit: sparse-communicator
	MPI is GPU aware: 1
	Forces host buffer based communication: 0
	CPU ranks per GPU: 1
	Matrix format: Ell
	End OGL_INFO
[OGL LOG][Proc: 0]: global_index_init: 9.091 [ms]
[OGL LOG][Proc: 0]p_local_cols: call_init: 0.042 [ms]
[OGL LOG][Proc: 0]p_local_rows: call_init: 0.01 [ms]
[OGL LOG][Proc: 0]p_local_ldu_map: call_init: 0.025 [ms]
[OGL LOG][Proc: 0]p_local_coeffs: call_init: 7.166 [ms]
[OGL LOG][Proc: 0]p_non_local_cols: call_init: 0.015 [ms]
[OGL LOG][Proc: 0]p_non_local_rows: call_init: 0.002 [ms]
[OGL LOG][Proc: 0]p_non_local_ldu_map: call_init: 0.002 [ms]
[OGL LOG][Proc: 0]p_non_local_coeffs: call_init: 0.002 [ms]
[OGL LOG][Proc: 0]p: init_local_sparsity_pattern: 1443.56 [ms]
[OGL LOG][Proc: 0]p: init_non_local_sparsity_pattern: 6.695 [ms]
[OGL LOG][Proc: 0]p: update_local_matrix_data: 272.723 [ms]
[OGL LOG][Proc: 0]p: update_non_local_matrix_data: 0.487 [ms]
[OGL LOG][Proc: 0]device_partition: call_init: 0.105 [ms]
[OGL LOG][Proc: 0]p_matrix: call_init: 733.999 [ms]
[OGL LOG][Proc: 0]p_rhs: call_init: 6.96 [ms]
[OGL LOG][Proc: 0]p_solution: call_init: 7.505 [ms]
[OGL LOG][Preconditioner.H:121] Generate preconditioner BJ MaxBlockSize 1
[OGL LOG][Proc: 0]p: init_precond: 23.515 [ms]
[OGL LOG][StoppingCriterion.H:237] Creating stopping criterion with minIter 0 frequency 1
[OGL LOG][Proc: 0]p: generate_solver: 0.015 [ms]
[OGL LOG][Proc: 0]p: solve: 39001 [ms]
[OGL LOG][Proc: 0]p: copy_x_back: 18.072 [ms]
[OGL LOG][lduLduBase.H:330] 
Statistics:
	Time per iteration: 12041 [mu s]
	Time per residual norm calculation: 5728.000000 [mu s]
	Time per iteration and DOF: 0.188141 [ns]
	Retrieve results bandwidth 1.770000 [GByte/s]
[OGL LOG][Proc: 0]p: solve_multi_gpu: 39851.1 [ms]
BJcudaGKOCG:  Solving for p, Initial residual = 1, Final residual = 9.74569e-05, No Iterations 3239
[INFO] SolveP: 44681.6 [ms]
time step continuity errors : sum local = 2.47225e-09, global = 2.56733e-22, cumulative = 2.56733e-22
[INFO] ContinuityError: 117.41 [ms]
[INFO] CorrectBoundary: 1.946 [ms]
[INFO] PISOStep: 46886.1 [ms]
[INFO] MatrixAssemblyPI: 1186.39 [ms]
[INFO] AdjustPhi: 50.462 [ms]
[INFO] ConstrainPressure: 0.003 [ms]
[INFO] MatrixAssemblyPII: 375.584 [ms]
[OGL LOG][Proc: 0]: global_index_init: 0.696 [ms]
[OGL LOG][Proc: 0]p_local_coeffs: call_update: 0.001 [ms]
[OGL LOG][Proc: 0]p_non_local_coeffs: call_update: 0 [ms]
[OGL LOG][Proc: 0]p: update_local_matrix_data: 251.214 [ms]
[OGL LOG][Proc: 0]p: update_non_local_matrix_data: 0.501 [ms]
[OGL LOG][Proc: 0]p: regenerate_distributed_matrix: 708.958 [ms]
[OGL LOG][Proc: 0]p_matrix: call_update: 710.65 [ms]
[OGL LOG][Proc: 0]p_rhs: call_update: 4.26 [ms]
[OGL LOG][Preconditioner.H:121] Generate preconditioner BJ MaxBlockSize 1
[OGL LOG][Proc: 0]p: init_precond: 3.21 [ms]
[OGL LOG][StoppingCriterion.H:237] Creating stopping criterion with minIter 1943 frequency 25
[OGL LOG][Proc: 0]p: generate_solver: 0.001 [ms]
[OGL LOG][Proc: 0]p: solve: 30926.5 [ms]
[OGL LOG][Proc: 0]p: copy_x_back: 17.368 [ms]
[OGL LOG][lduLduBase.H:330] 
Statistics:
	Time per iteration: 9512 [mu s]
	Time per residual norm calculation: 2294.000000 [mu s]
	Time per iteration and DOF: 0.148625 [ns]
	Retrieve results bandwidth 1.842000 [GByte/s]
[OGL LOG][Proc: 0]p: solve_multi_gpu: 31676.2 [ms]
BJcudaGKOCG:  Solving for p, Initial residual = 0.822079, Final residual = 5.7878e-05, No Iterations 3251
[INFO] SolveP: 31968.5 [ms]
time step continuity errors : sum local = 1.76896e-09, global = 4.1264e-22, cumulative = 6.69373e-22
[INFO] ContinuityError: 114.987 [ms]
[INFO] CorrectBoundary: 9.677 [ms]
[INFO] PISOStep: 34143.9 [ms]
[INFO] TimeStep: 86835 [ms]
ExecutionTime = 87.45 s  ClockTime = 91 s

Time = 0.00025

Courant Number mean: 0.0108529 max: 0.437705
[INFO] MatrixAssemblyU: 1121.39 [ms]
DILUPBiCGStab:  Solving for Ux, Initial residual = 0.108167, Final residual = 0.0134443, No Iterations 5
DILUPBiCGStab:  Solving for Uy, Initial residual = 0.484635, Final residual = 0.0521706, No Iterations 5
DILUPBiCGStab:  Solving for Uz, Initial residual = 0.990104, Final residual = 0.118531, No Iterations 5
[INFO] MomentumPredictor: 8320.16 [ms]
[INFO] MatrixAssemblyPI: 1221.03 [ms]
[INFO] AdjustPhi: 87.95 [ms]
[INFO] ConstrainPressure: 0.003 [ms]
[INFO] MatrixAssemblyPII: 369.486 [ms]
[OGL LOG][Proc: 0]: global_index_init: 0.196 [ms]
[OGL LOG][Proc: 0]p_local_coeffs: call_update: 0 [ms]
[OGL LOG][Proc: 0]p_non_local_coeffs: call_update: 0 [ms]
[OGL LOG][Proc: 0]p: update_local_matrix_data: 267.012 [ms]
[OGL LOG][Proc: 0]p: update_non_local_matrix_data: 0.461 [ms]
[OGL LOG][Proc: 0]p: regenerate_distributed_matrix: 697.837 [ms]
[OGL LOG][Proc: 0]p_matrix: call_update: 701.894 [ms]
[OGL LOG][Proc: 0]p_rhs: call_update: 4.775 [ms]
[OGL LOG][Preconditioner.H:121] Generate preconditioner BJ MaxBlockSize 1
[OGL LOG][Proc: 0]p: init_precond: 4.695 [ms]
[OGL LOG][StoppingCriterion.H:237] Creating stopping criterion with minIter 1950 frequency 18
[OGL LOG][Proc: 0]p: generate_solver: 0.001 [ms]
[OGL LOG][Proc: 0]p: solve: 30386.2 [ms]
[OGL LOG][Proc: 0]p: copy_x_back: 17.458 [ms]
[OGL LOG][lduLduBase.H:330] 
Statistics:
	Time per iteration: 9534 [mu s]
	Time per residual norm calculation: 2880.000000 [mu s]
	Time per iteration and DOF: 0.148969 [ns]
	Retrieve results bandwidth 1.832000 [GByte/s]
[OGL LOG][Proc: 0]p: solve_multi_gpu: 31121.7 [ms]
BJcudaGKOCG:  Solving for p, Initial residual = 0.90642, Final residual = 9.49257e-05, No Iterations 3187
[INFO] SolveP: 31433.5 [ms]
time step continuity errors : sum local = 6.67864e-09, global = 5.30565e-22, cumulative = 1.19994e-21
[INFO] ContinuityError: 112.888 [ms]
[INFO] CorrectBoundary: 7.402 [ms]
[INFO] PISOStep: 33685.5 [ms]
[INFO] MatrixAssemblyPI: 1189.21 [ms]
[INFO] AdjustPhi: 93.732 [ms]
[INFO] ConstrainPressure: 0.003 [ms]
[INFO] MatrixAssemblyPII: 371.572 [ms]
[OGL LOG][Proc: 0]: global_index_init: 0.096 [ms]
[OGL LOG][Proc: 0]p_local_coeffs: call_update: 0 [ms]
[OGL LOG][Proc: 0]p_non_local_coeffs: call_update: 0 [ms]
[OGL LOG][Proc: 0]p: update_local_matrix_data: 255.103 [ms]
[OGL LOG][Proc: 0]p: update_non_local_matrix_data: 0.474 [ms]
[OGL LOG][Proc: 0]p: regenerate_distributed_matrix: 702.21 [ms]
[OGL LOG][Proc: 0]p_matrix: call_update: 704.605 [ms]
[OGL LOG][Proc: 0]p_rhs: call_update: 4.186 [ms]
[OGL LOG][Preconditioner.H:121] Generate preconditioner BJ MaxBlockSize 1
[OGL LOG][Proc: 0]p: init_precond: 4.233 [ms]
[OGL LOG][StoppingCriterion.H:237] Creating stopping criterion with minIter 1912 frequency 20
[OGL LOG][Proc: 0]p: generate_solver: 0.001 [ms]
[OGL LOG][Proc: 0]p: solve: 30345 [ms]
[OGL LOG][Proc: 0]p: copy_x_back: 17.464 [ms]
[OGL LOG][lduLduBase.H:330] 
Statistics:
	Time per iteration: 9539 [mu s]
	Time per residual norm calculation: 2291.000000 [mu s]
	Time per iteration and DOF: 0.149047 [ns]
	Retrieve results bandwidth 1.832000 [GByte/s]
[OGL LOG][Proc: 0]p: solve_multi_gpu: 31082.6 [ms]
BJcudaGKOCG:  Solving for p, Initial residual = 0.857643, Final residual = 9.3929e-05, No Iterations 3181
[INFO] SolveP: 31378.8 [ms]
time step continuity errors : sum local = 6.7313e-09, global = 1.14888e-22, cumulative = 1.31483e-21
[INFO] ContinuityError: 113.111 [ms]
[INFO] CorrectBoundary: 2.775 [ms]
[INFO] PISOStep: 33602.9 [ms]
[INFO] TimeStep: 76853.5 [ms]
ExecutionTime = 164.17 s  ClockTime = 167 s

Time = 0.000375

Courant Number mean: 0.0169458 max: 0.511446
[INFO] MatrixAssemblyU: 1125.79 [ms]
DILUPBiCGStab:  Solving for Ux, Initial residual = 0.0536848, Final residual = 0.00543523, No Iterations 5
DILUPBiCGStab:  Solving for Uy, Initial residual = 0.261643, Final residual = 0.0262831, No Iterations 5
DILUPBiCGStab:  Solving for Uz, Initial residual = 0.870577, Final residual = 0.0864444, No Iterations 5
[INFO] MomentumPredictor: 8353.57 [ms]
[INFO] MatrixAssemblyPI: 1263.57 [ms]
[INFO] AdjustPhi: 68.468 [ms]
[INFO] ConstrainPressure: 0.003 [ms]
[INFO] MatrixAssemblyPII: 392.137 [ms]
[OGL LOG][Proc: 0]: global_index_init: 0.644 [ms]
[OGL LOG][Proc: 0]p_local_coeffs: call_update: 0 [ms]
[OGL LOG][Proc: 0]p_non_local_coeffs: call_update: 0 [ms]
[OGL LOG][Proc: 0]p: update_local_matrix_data: 272.249 [ms]
[OGL LOG][Proc: 0]p: update_non_local_matrix_data: 0.461 [ms]
[OGL LOG][Proc: 0]p: regenerate_distributed_matrix: 702.852 [ms]
[OGL LOG][Proc: 0]p_matrix: call_update: 706.299 [ms]
[OGL LOG][Proc: 0]p_rhs: call_update: 5.232 [ms]
[OGL LOG][Preconditioner.H:121] Generate preconditioner BJ MaxBlockSize 1
[OGL LOG][Proc: 0]p: init_precond: 4.735 [ms]
[OGL LOG][StoppingCriterion.H:237] Creating stopping criterion with minIter 1908 frequency 17
[OGL LOG][Proc: 0]p: generate_solver: 0.001 [ms]
[OGL LOG][Proc: 0]p: solve: 18526.7 [ms]
[OGL LOG][Proc: 0]p: copy_x_back: 17.441 [ms]
[OGL LOG][lduLduBase.H:330] 
Statistics:
	Time per iteration: 9639 [mu s]
	Time per residual norm calculation: 2288.000000 [mu s]
	Time per iteration and DOF: 0.150609 [ns]
	Retrieve results bandwidth 1.834000 [GByte/s]
[OGL LOG][Proc: 0]p: solve_multi_gpu: 19266.5 [ms]
BJcudaGKOCG:  Solving for p, Initial residual = 0.940887, Final residual = 3.91862e-05, No Iterations 1922
[INFO] SolveP: 19580.1 [ms]
time step continuity errors : sum local = 3.69271e-09, global = 1.02559e-21, cumulative = 2.34041e-21
[INFO] ContinuityError: 113.32 [ms]
[INFO] CorrectBoundary: 8.497 [ms]
[INFO] PISOStep: 21874.2 [ms]
[INFO] MatrixAssemblyPI: 1220.12 [ms]
[INFO] AdjustPhi: 65.366 [ms]
[INFO] ConstrainPressure: 0.003 [ms]
[INFO] MatrixAssemblyPII: 382.857 [ms]
[OGL LOG][Proc: 0]: global_index_init: 0.598 [ms]
[OGL LOG][Proc: 0]p_local_coeffs: call_update: 0 [ms]
[OGL LOG][Proc: 0]p_non_local_coeffs: call_update: 0 [ms]
[OGL LOG][Proc: 0]p: update_local_matrix_data: 273.475 [ms]
[OGL LOG][Proc: 0]p: update_non_local_matrix_data: 0.477 [ms]
[OGL LOG][Proc: 0]p: regenerate_distributed_matrix: 700.209 [ms]
[OGL LOG][Proc: 0]p_matrix: call_update: 702.395 [ms]
[OGL LOG][Proc: 0]p_rhs: call_update: 5.091 [ms]
[OGL LOG][Preconditioner.H:121] Generate preconditioner BJ MaxBlockSize 1
[OGL LOG][Proc: 0]p: init_precond: 4.045 [ms]
[OGL LOG][StoppingCriterion.H:237] Creating stopping criterion with minIter 1153 frequency 13
[OGL LOG][Proc: 0]p: generate_solver: 0.001 [ms]
[OGL LOG][Proc: 0]p: solve: 14675.7 [ms]
[OGL LOG][Proc: 0]p: copy_x_back: 17.679 [ms]
[OGL LOG][lduLduBase.H:330] 
Statistics:
	Time per iteration: 9560 [mu s]
	Time per residual norm calculation: 2850.000000 [mu s]
	Time per iteration and DOF: 0.149375 [ns]
	Retrieve results bandwidth 1.810000 [GByte/s]
[OGL LOG][Proc: 0]p: solve_multi_gpu: 15410.6 [ms]
BJcudaGKOCG:  Solving for p, Initial residual = 0.908699, Final residual = 9.14327e-05, No Iterations 1535
[INFO] SolveP: 15723.4 [ms]
time step continuity errors : sum local = 8.096e-09, global = 3.55171e-22, cumulative = 2.69558e-21
[INFO] ContinuityError: 119.805 [ms]
[INFO] CorrectBoundary: 2.164 [ms]
[INFO] PISOStep: 17961.8 [ms]
[INFO] TimeStep: 49442.4 [ms]
ExecutionTime = 213.52 s  ClockTime = 217 s

Time = 0.0005

Courant Number mean: 0.020555 max: 0.47757
[INFO] MatrixAssemblyU: 1127.92 [ms]
DILUPBiCGStab:  Solving for Ux, Initial residual = 0.0416124, Final residual = 0.00503634, No Iterations 5
DILUPBiCGStab:  Solving for Uy, Initial residual = 0.21384, Final residual = 0.0241566, No Iterations 5
DILUPBiCGStab:  Solving for Uz, Initial residual = 0.783085, Final residual = 0.0636413, No Iterations 5
[INFO] MomentumPredictor: 8302.6 [ms]
[INFO] MatrixAssemblyPI: 1266.82 [ms]
[INFO] AdjustPhi: 68.28 [ms]
[INFO] ConstrainPressure: 0.006 [ms]
[INFO] MatrixAssemblyPII: 389.815 [ms]
[OGL LOG][Proc: 0]: global_index_init: 0.352 [ms]
[OGL LOG][Proc: 0]p_local_coeffs: call_update: 0 [ms]
[OGL LOG][Proc: 0]p_non_local_coeffs: call_update: 0 [ms]
[OGL LOG][Proc: 0]p: update_local_matrix_data: 264.528 [ms]
[OGL LOG][Proc: 0]p: update_non_local_matrix_data: 0.459 [ms]
[OGL LOG][Proc: 0]p: regenerate_distributed_matrix: 707.659 [ms]
[OGL LOG][Proc: 0]p_matrix: call_update: 709.32 [ms]
[OGL LOG][Proc: 0]p_rhs: call_update: 3.688 [ms]
[OGL LOG][Preconditioner.H:121] Generate preconditioner BJ MaxBlockSize 1
[OGL LOG][Proc: 0]p: init_precond: 3.333 [ms]
[OGL LOG][StoppingCriterion.H:237] Creating stopping criterion with minIter 921 frequency 14
[OGL LOG][Proc: 0]p: generate_solver: 0.002 [ms]
[OGL LOG][Proc: 0]p: solve: 14451.7 [ms]
[OGL LOG][Proc: 0]p: copy_x_back: 17.754 [ms]
[OGL LOG][lduLduBase.H:330] 
Statistics:
	Time per iteration: 9551 [mu s]
	Time per residual norm calculation: 2590.000000 [mu s]
	Time per iteration and DOF: 0.149234 [ns]
	Retrieve results bandwidth 1.802000 [GByte/s]
[OGL LOG][Proc: 0]p: solve_multi_gpu: 15191.9 [ms]
BJcudaGKOCG:  Solving for p, Initial residual = 0.937502, Final residual = 9.80942e-05, No Iterations 1513
[INFO] SolveP: 15497.7 [ms]
time step continuity errors : sum local = 1.10432e-08, global = -1.86116e-24, cumulative = 2.69372e-21
[INFO] ContinuityError: 116.868 [ms]
[INFO] CorrectBoundary: 2.153 [ms]
[INFO] PISOStep: 17789.4 [ms]
[INFO] MatrixAssemblyPI: 1273.43 [ms]
[INFO] AdjustPhi: 66.232 [ms]
[INFO] ConstrainPressure: 0.003 [ms]
[INFO] MatrixAssemblyPII: 383.941 [ms]
[OGL LOG][Proc: 0]: global_index_init: 0.043 [ms]
[OGL LOG][Proc: 0]p_local_coeffs: call_update: 0 [ms]
[OGL LOG][Proc: 0]p_non_local_coeffs: call_update: 0 [ms]
[OGL LOG][Proc: 0]p: update_local_matrix_data: 264.9 [ms]
[OGL LOG][Proc: 0]p: update_non_local_matrix_data: 0.47 [ms]
[OGL LOG][Proc: 0]p: regenerate_distributed_matrix: 700.814 [ms]
[OGL LOG][Proc: 0]p_matrix: call_update: 704.531 [ms]
[OGL LOG][Proc: 0]p_rhs: call_update: 5.409 [ms]
[OGL LOG][Preconditioner.H:121] Generate preconditioner BJ MaxBlockSize 1
[OGL LOG][Proc: 0]p: init_precond: 3.393 [ms]
[OGL LOG][StoppingCriterion.H:237] Creating stopping criterion with minIter 907 frequency 14
[OGL LOG][Proc: 0]p: generate_solver: 0.001 [ms]
[OGL LOG][Proc: 0]p: solve: 14410.8 [ms]
[OGL LOG][Proc: 0]p: copy_x_back: 17.209 [ms]
[OGL LOG][lduLduBase.H:330] 
Statistics:
	Time per iteration: 9524 [mu s]
	Time per residual norm calculation: 2585.000000 [mu s]
	Time per iteration and DOF: 0.148812 [ns]
	Retrieve results bandwidth 1.859000 [GByte/s]
[OGL LOG][Proc: 0]p: solve_multi_gpu: 15147.2 [ms]
BJcudaGKOCG:  Solving for p, Initial residual = 0.879884, Final residual = 8.83819e-05, No Iterations 1513
[INFO] SolveP: 15448.8 [ms]
time step continuity errors : sum local = 9.8504e-09, global = 3.80681e-22, cumulative = 3.0744e-21
[INFO] ContinuityError: 121.085 [ms]
[INFO] CorrectBoundary: 3.44 [ms]
[INFO] PISOStep: 17745.2 [ms]
[INFO] TimeStep: 45089 [ms]
ExecutionTime = 258.52 s  ClockTime = 262 s

Time = 0.000625

Courant Number mean: 0.0236274 max: 0.556007
[INFO] MatrixAssemblyU: 1117.23 [ms]
DILUPBiCGStab:  Solving for Ux, Initial residual = 0.0376153, Final residual = 0.0045713, No Iterations 5
DILUPBiCGStab:  Solving for Uy, Initial residual = 0.184631, Final residual = 0.0200863, No Iterations 5
DILUPBiCGStab:  Solving for Uz, Initial residual = 0.755326, Final residual = 0.0548621, No Iterations 5
[INFO] MomentumPredictor: 8330.18 [ms]
[INFO] MatrixAssemblyPI: 1268.86 [ms]
[INFO] AdjustPhi: 68.422 [ms]
[INFO] ConstrainPressure: 0.003 [ms]
[INFO] MatrixAssemblyPII: 392.225 [ms]
[OGL LOG][Proc: 0]: global_index_init: 0.912 [ms]
[OGL LOG][Proc: 0]p_local_coeffs: call_update: 0 [ms]
[OGL LOG][Proc: 0]p_non_local_coeffs: call_update: 0 [ms]
[OGL LOG][Proc: 0]p: update_local_matrix_data: 263.807 [ms]
[OGL LOG][Proc: 0]p: update_non_local_matrix_data: 0.472 [ms]
[OGL LOG][Proc: 0]p: regenerate_distributed_matrix: 702.732 [ms]
[OGL LOG][Proc: 0]p_matrix: call_update: 707.988 [ms]
[OGL LOG][Proc: 0]p_rhs: call_update: 4.969 [ms]
[OGL LOG][Preconditioner.H:121] Generate preconditioner BJ MaxBlockSize 1
[OGL LOG][Proc: 0]p: init_precond: 4.462 [ms]
[OGL LOG][StoppingCriterion.H:237] Creating stopping criterion with minIter 907 frequency 14
[OGL LOG][Proc: 0]p: generate_solver: 0.001 [ms]
[OGL LOG][Proc: 0]p: solve: 27825.3 [ms]
[OGL LOG][Proc: 0]p: copy_x_back: 18.323 [ms]
[OGL LOG][lduLduBase.H:330] 
Statistics:
	Time per iteration: 9644 [mu s]
	Time per residual norm calculation: 2885.000000 [mu s]
	Time per iteration and DOF: 0.150688 [ns]
	Retrieve results bandwidth 1.746000 [GByte/s]
[OGL LOG][Proc: 0]p: solve_multi_gpu: 28567.5 [ms]
BJcudaGKOCG:  Solving for p, Initial residual = 0.954075, Final residual = 9.16376e-05, No Iterations 2885
[INFO] SolveP: 28874 [ms]
time step continuity errors : sum local = 1.13962e-08, global = -7.75482e-23, cumulative = 2.99686e-21
[INFO] ContinuityError: 116.209 [ms]
[INFO] CorrectBoundary: 1.907 [ms]
[INFO] PISOStep: 31169.9 [ms]
[INFO] MatrixAssemblyPI: 1265.65 [ms]
[INFO] AdjustPhi: 65.933 [ms]
[INFO] ConstrainPressure: 0.003 [ms]
[INFO] MatrixAssemblyPII: 382.824 [ms]
[OGL LOG][Proc: 0]: global_index_init: 0.711 [ms]
[OGL LOG][Proc: 0]p_local_coeffs: call_update: 0 [ms]
[OGL LOG][Proc: 0]p_non_local_coeffs: call_update: 0 [ms]
[OGL LOG][Proc: 0]p: update_local_matrix_data: 269.087 [ms]
[OGL LOG][Proc: 0]p: update_non_local_matrix_data: 0.461 [ms]
[OGL LOG][Proc: 0]p: regenerate_distributed_matrix: 706.537 [ms]
[OGL LOG][Proc: 0]p_matrix: call_update: 711.157 [ms]
[OGL LOG][Proc: 0]p_rhs: call_update: 6.201 [ms]
[OGL LOG][Preconditioner.H:121] Generate preconditioner BJ MaxBlockSize 1
[OGL LOG][Proc: 0]p: init_precond: 2.366 [ms]
[OGL LOG][StoppingCriterion.H:237] Creating stopping criterion with minIter 1731 frequency 19
[OGL LOG][Proc: 0]p: generate_solver: 0.001 [ms]
[OGL LOG][Proc: 0]p: solve: 27470.6 [ms]
[OGL LOG][Proc: 0]p: copy_x_back: 17.742 [ms]
[OGL LOG][lduLduBase.H:330] 
Statistics:
	Time per iteration: 9571 [mu s]
	Time per residual norm calculation: 2583.000000 [mu s]
	Time per iteration and DOF: 0.149547 [ns]
	Retrieve results bandwidth 1.803000 [GByte/s]
[OGL LOG][Proc: 0]p: solve_multi_gpu: 28213.8 [ms]
BJcudaGKOCG:  Solving for p, Initial residual = 0.91513, Final residual = 9.21874e-05, No Iterations 2870
[INFO] SolveP: 28521.5 [ms]
time step continuity errors : sum local = 1.13969e-08, global = 5.53345e-22, cumulative = 3.5502e-21
[INFO] ContinuityError: 123.378 [ms]
[INFO] CorrectBoundary: 3.874 [ms]
[INFO] PISOStep: 30809.5 [ms]
[INFO] TimeStep: 71546.7 [ms]
ExecutionTime = 329.94 s  ClockTime = 333 s

Time = 0.00075

Courant Number mean: 0.0259662 max: 0.48336
[INFO] MatrixAssemblyU: 1131.18 [ms]
DILUPBiCGStab:  Solving for Ux, Initial residual = 0.0353906, Final residual = 0.00432925, No Iterations 5
DILUPBiCGStab:  Solving for Uy, Initial residual = 0.17131, Final residual = 0.0173011, No Iterations 5
DILUPBiCGStab:  Solving for Uz, Initial residual = 0.700115, Final residual = 0.0468118, No Iterations 5
[INFO] MomentumPredictor: 8335.08 [ms]
[INFO] MatrixAssemblyPI: 1264.55 [ms]
[INFO] AdjustPhi: 67.225 [ms]
[INFO] ConstrainPressure: 0.003 [ms]
[INFO] MatrixAssemblyPII: 389.301 [ms]
[OGL LOG][Proc: 0]: global_index_init: 0.649 [ms]
[OGL LOG][Proc: 0]p_local_coeffs: call_update: 0 [ms]
[OGL LOG][Proc: 0]p_non_local_coeffs: call_update: 0 [ms]
[OGL LOG][Proc: 0]p: update_local_matrix_data: 253.882 [ms]
[OGL LOG][Proc: 0]p: update_non_local_matrix_data: 0.519 [ms]
[OGL LOG][Proc: 0]p: regenerate_distributed_matrix: 701.649 [ms]
[OGL LOG][Proc: 0]p_matrix: call_update: 707.406 [ms]
[OGL LOG][Proc: 0]p_rhs: call_update: 4.463 [ms]
[OGL LOG][Preconditioner.H:121] Generate preconditioner BJ MaxBlockSize 1
[OGL LOG][Proc: 0]p: init_precond: 4.479 [ms]
[OGL LOG][StoppingCriterion.H:237] Creating stopping criterion with minIter 1722 frequency 19
[OGL LOG][Proc: 0]p: generate_solver: 0.001 [ms]
[OGL LOG][Proc: 0]p: solve: 29615.4 [ms]
[OGL LOG][Proc: 0]p: copy_x_back: 17.485 [ms]
[OGL LOG][lduLduBase.H:330] 
Statistics:
	Time per iteration: 9559 [mu s]
	Time per residual norm calculation: 2585.000000 [mu s]
	Time per iteration and DOF: 0.149359 [ns]
	Retrieve results bandwidth 1.830000 [GByte/s]
[OGL LOG][Proc: 0]p: solve_multi_gpu: 30389.2 [ms]
BJcudaGKOCG:  Solving for p, Initial residual = 0.951069, Final residual = 8.63431e-05, No Iterations 3098
[INFO] SolveP: 30685.2 [ms]
time step continuity errors : sum local = 1.24029e-08, global = 6.82771e-22, cumulative = 4.23297e-21
[INFO] ContinuityError: 116.641 [ms]
[INFO] CorrectBoundary: 1.61 [ms]
[INFO] PISOStep: 32976.5 [ms]
[INFO] MatrixAssemblyPI: 1259.01 [ms]
[INFO] AdjustPhi: 66.283 [ms]
[INFO] ConstrainPressure: 0.003 [ms]
[INFO] MatrixAssemblyPII: 385.35 [ms]
[OGL LOG][Proc: 0]: global_index_init: 0.578 [ms]
[OGL LOG][Proc: 0]p_local_coeffs: call_update: 0 [ms]
[OGL LOG][Proc: 0]p_non_local_coeffs: call_update: 0 [ms]
[OGL LOG][Proc: 0]p: update_local_matrix_data: 259.641 [ms]
[OGL LOG][Proc: 0]p: update_non_local_matrix_data: 0.47 [ms]
[OGL LOG][Proc: 0]p: regenerate_distributed_matrix: 703.534 [ms]
[OGL LOG][Proc: 0]p_matrix: call_update: 705.125 [ms]
[OGL LOG][Proc: 0]p_rhs: call_update: 4.663 [ms]
[OGL LOG][Preconditioner.H:121] Generate preconditioner BJ MaxBlockSize 1
[OGL LOG][Proc: 0]p: init_precond: 2.653 [ms]
[OGL LOG][StoppingCriterion.H:237] Creating stopping criterion with minIter 1858 frequency 20
[OGL LOG][Proc: 0]p: generate_solver: 0.001 [ms]
[OGL LOG][Proc: 0]p: solve: 29415.6 [ms]
[OGL LOG][Proc: 0]p: copy_x_back: 17.697 [ms]
[OGL LOG][lduLduBase.H:330] 
Statistics:
	Time per iteration: 9547 [mu s]
	Time per residual norm calculation: 2588.000000 [mu s]
	Time per iteration and DOF: 0.149172 [ns]
	Retrieve results bandwidth 1.808000 [GByte/s]
[OGL LOG][Proc: 0]p: solve_multi_gpu: 30158.5 [ms]
BJcudaGKOCG:  Solving for p, Initial residual = 0.891079, Final residual = 9.13077e-05, No Iterations 3081
[INFO] SolveP: 30459.7 [ms]
time step continuity errors : sum local = 1.33231e-08, global = 8.69441e-22, cumulative = 5.10241e-21
[INFO] ContinuityError: 118.913 [ms]
[INFO] CorrectBoundary: 1.406 [ms]
[INFO] PISOStep: 32743.3 [ms]
[INFO] TimeStep: 75314.1 [ms]
ExecutionTime = 405.12 s  ClockTime = 409 s

Time = 0.000875

Courant Number mean: 0.0281639 max: 0.612289
[INFO] MatrixAssemblyU: 1119.34 [ms]
DILUPBiCGStab:  Solving for Ux, Initial residual = 0.0350306, Final residual = 0.00413884, No Iterations 5
DILUPBiCGStab:  Solving for Uy, Initial residual = 0.176129, Final residual = 0.0164156, No Iterations 5
DILUPBiCGStab:  Solving for Uz, Initial residual = 0.693325, Final residual = 0.0417461, No Iterations 5
[INFO] MomentumPredictor: 8333.61 [ms]
[INFO] MatrixAssemblyPI: 1265.6 [ms]
[INFO] AdjustPhi: 66.957 [ms]
[INFO] ConstrainPressure: 0.003 [ms]
[INFO] MatrixAssemblyPII: 389.723 [ms]
[OGL LOG][Proc: 0]: global_index_init: 0.593 [ms]
[OGL LOG][Proc: 0]p_local_coeffs: call_update: 0 [ms]
[OGL LOG][Proc: 0]p_non_local_coeffs: call_update: 0 [ms]
[OGL LOG][Proc: 0]p: update_local_matrix_data: 272.882 [ms]
[OGL LOG][Proc: 0]p: update_non_local_matrix_data: 0.465 [ms]
[OGL LOG][Proc: 0]p: regenerate_distributed_matrix: 702.606 [ms]
[OGL LOG][Proc: 0]p_matrix: call_update: 707.331 [ms]
[OGL LOG][Proc: 0]p_rhs: call_update: 5.02 [ms]
[OGL LOG][Preconditioner.H:121] Generate preconditioner BJ MaxBlockSize 1
[OGL LOG][Proc: 0]p: init_precond: 4.487 [ms]
[OGL LOG][StoppingCriterion.H:237] Creating stopping criterion with minIter 1848 frequency 20
[OGL LOG][Proc: 0]p: generate_solver: 0.001 [ms]
[OGL LOG][Proc: 0]p: solve: 29472.3 [ms]
[OGL LOG][Proc: 0]p: copy_x_back: 18.35 [ms]
[OGL LOG][lduLduBase.H:330] 
Statistics:
	Time per iteration: 9565 [mu s]
	Time per residual norm calculation: 2590.000000 [mu s]
	Time per iteration and DOF: 0.149453 [ns]
	Retrieve results bandwidth 1.743000 [GByte/s]
[OGL LOG][Proc: 0]p: solve_multi_gpu: 30213.6 [ms]
BJcudaGKOCG:  Solving for p, Initial residual = 0.962084, Final residual = 8.98157e-05, No Iterations 3081
[INFO] SolveP: 30528.2 [ms]
time step continuity errors : sum local = 1.46174e-08, global = 3.92833e-22, cumulative = 5.49525e-21
[INFO] ContinuityError: 113.616 [ms]
[INFO] CorrectBoundary: 3.443 [ms]
[INFO] PISOStep: 32811.8 [ms]
[INFO] MatrixAssemblyPI: 1270.05 [ms]
[INFO] AdjustPhi: 66.706 [ms]
[INFO] ConstrainPressure: 0.003 [ms]
[INFO] MatrixAssemblyPII: 383.178 [ms]
[OGL LOG][Proc: 0]: global_index_init: 0.018 [ms]
[OGL LOG][Proc: 0]p_local_coeffs: call_update: 0 [ms]
[OGL LOG][Proc: 0]p_non_local_coeffs: call_update: 0 [ms]
[OGL LOG][Proc: 0]p: update_local_matrix_data: 256.842 [ms]
[OGL LOG][Proc: 0]p: update_non_local_matrix_data: 0.481 [ms]
[OGL LOG][Proc: 0]p: regenerate_distributed_matrix: 700.93 [ms]
[OGL LOG][Proc: 0]p_matrix: call_update: 704.979 [ms]
[OGL LOG][Proc: 0]p_rhs: call_update: 5.185 [ms]
[OGL LOG][Preconditioner.H:121] Generate preconditioner BJ MaxBlockSize 1
[OGL LOG][Proc: 0]p: init_precond: 3.326 [ms]
[OGL LOG][StoppingCriterion.H:237] Creating stopping criterion with minIter 1848 frequency 20
[OGL LOG][Proc: 0]p: generate_solver: 0.001 [ms]
[OGL LOG][Proc: 0]p: solve: 29414.5 [ms]
[OGL LOG][Proc: 0]p: copy_x_back: 18.186 [ms]
[OGL LOG][lduLduBase.H:330] 
Statistics:
	Time per iteration: 9547 [mu s]
	Time per residual norm calculation: 2580.000000 [mu s]
	Time per iteration and DOF: 0.149172 [ns]
	Retrieve results bandwidth 1.759000 [GByte/s]
[OGL LOG][Proc: 0]p: solve_multi_gpu: 30160.5 [ms]
BJcudaGKOCG:  Solving for p, Initial residual = 0.917583, Final residual = 8.42712e-05, No Iterations 3081
[INFO] SolveP: 30458.5 [ms]
time step continuity errors : sum local = 1.36657e-08, global = 6.3184e-22, cumulative = 6.12709e-21
[INFO] ContinuityError: 121.713 [ms]
[INFO] CorrectBoundary: 1.115 [ms]
[INFO] PISOStep: 32752.5 [ms]
[INFO] TimeStep: 75143.1 [ms]
ExecutionTime = 480.14 s  ClockTime = 484 s

Time = 0.001

Courant Number mean: 0.0299119 max: 0.491013
[INFO] MatrixAssemblyU: 1121.44 [ms]
DILUPBiCGStab:  Solving for Ux, Initial residual = 0.0361337, Final residual = 0.00400319, No Iterations 5
DILUPBiCGStab:  Solving for Uy, Initial residual = 0.16969, Final residual = 0.0142256, No Iterations 5
DILUPBiCGStab:  Solving for Uz, Initial residual = 0.680332, Final residual = 0.0393336, No Iterations 5
[INFO] MomentumPredictor: 8341.58 [ms]
[INFO] MatrixAssemblyPI: 1269.06 [ms]
[INFO] AdjustPhi: 69.603 [ms]
[INFO] ConstrainPressure: 0.004 [ms]
[INFO] MatrixAssemblyPII: 391.291 [ms]
[OGL LOG][Proc: 0]: global_index_init: 0.599 [ms]
[OGL LOG][Proc: 0]p_local_coeffs: call_update: 0 [ms]
[OGL LOG][Proc: 0]p_non_local_coeffs: call_update: 0 [ms]
[OGL LOG][Proc: 0]p: update_local_matrix_data: 257.004 [ms]
[OGL LOG][Proc: 0]p: update_non_local_matrix_data: 0.472 [ms]
[OGL LOG][Proc: 0]p: regenerate_distributed_matrix: 702.275 [ms]
[OGL LOG][Proc: 0]p_matrix: call_update: 707.53 [ms]
[OGL LOG][Proc: 0]p_rhs: call_update: 4.477 [ms]
[OGL LOG][Preconditioner.H:121] Generate preconditioner BJ MaxBlockSize 1
[OGL LOG][Proc: 0]p: init_precond: 3.274 [ms]
[OGL LOG][StoppingCriterion.H:237] Creating stopping criterion with minIter 1848 frequency 20
[OGL LOG][Proc: 0]p: generate_solver: 0.001 [ms]
[OGL LOG][Proc: 0]p: solve: 29404.3 [ms]
[OGL LOG][Proc: 0]p: copy_x_back: 18.037 [ms]
[OGL LOG][lduLduBase.H:330] 
Statistics:
	Time per iteration: 9543 [mu s]
	Time per residual norm calculation: 2887.000000 [mu s]
	Time per iteration and DOF: 0.149109 [ns]
	Retrieve results bandwidth 1.774000 [GByte/s]
[OGL LOG][Proc: 0]p: solve_multi_gpu: 30155.5 [ms]
BJcudaGKOCG:  Solving for p, Initial residual = 0.960001, Final residual = 7.97291e-05, No Iterations 3081
[INFO] SolveP: 30452.7 [ms]
time step continuity errors : sum local = 1.49347e-08, global = 8.50574e-22, cumulative = 6.97766e-21
[INFO] ContinuityError: 118.367 [ms]
[INFO] CorrectBoundary: 2.174 [ms]
[INFO] PISOStep: 32753.5 [ms]
[INFO] MatrixAssemblyPI: 1260.82 [ms]
[INFO] AdjustPhi: 67.239 [ms]
[INFO] ConstrainPressure: 0.003 [ms]
[INFO] MatrixAssemblyPII: 385.09 [ms]
[OGL LOG][Proc: 0]: global_index_init: 0.27 [ms]
[OGL LOG][Proc: 0]p_local_coeffs: call_update: 0 [ms]
[OGL LOG][Proc: 0]p_non_local_coeffs: call_update: 0 [ms]
[OGL LOG][Proc: 0]p: update_local_matrix_data: 257.24 [ms]
[OGL LOG][Proc: 0]p: update_non_local_matrix_data: 0.477 [ms]
[OGL LOG][Proc: 0]p: regenerate_distributed_matrix: 700.339 [ms]
[OGL LOG][Proc: 0]p_matrix: call_update: 702.92 [ms]
[OGL LOG][Proc: 0]p_rhs: call_update: 4.829 [ms]
[OGL LOG][Preconditioner.H:121] Generate preconditioner BJ MaxBlockSize 1
[OGL LOG][Proc: 0]p: init_precond: 3.519 [ms]
[OGL LOG][StoppingCriterion.H:237] Creating stopping criterion with minIter 1848 frequency 20
[OGL LOG][Proc: 0]p: generate_solver: 0.001 [ms]
[OGL LOG][Proc: 0]p: solve: 29219.7 [ms]
[OGL LOG][Proc: 0]p: copy_x_back: 17.836 [ms]
[OGL LOG][lduLduBase.H:330] 
Statistics:
	Time per iteration: 9545 [mu s]
	Time per residual norm calculation: 2587.000000 [mu s]
	Time per iteration and DOF: 0.149141 [ns]
	Retrieve results bandwidth 1.794000 [GByte/s]
[OGL LOG][Proc: 0]p: solve_multi_gpu: 29965 [ms]
BJcudaGKOCG:  Solving for p, Initial residual = 0.898071, Final residual = 9.87223e-05, No Iterations 3061
[INFO] SolveP: 30263 [ms]
time step continuity errors : sum local = 1.87647e-08, global = 6.31323e-22, cumulative = 7.60898e-21
[INFO] ContinuityError: 118.612 [ms]
[INFO] CorrectBoundary: 2.513 [ms]
[INFO] PISOStep: 32545.6 [ms]
[INFO] TimeStep: 74888.2 [ms]
ExecutionTime = 554.91 s  ClockTime = 559 s

Time = 0.001125

Courant Number mean: 0.0317147 max: 0.695865
[INFO] MatrixAssemblyU: 1125.11 [ms]
DILUPBiCGStab:  Solving for Ux, Initial residual = 0.0373545, Final residual = 0.0037861, No Iterations 5
DILUPBiCGStab:  Solving for Uy, Initial residual = 0.186514, Final residual = 0.0146576, No Iterations 5
DILUPBiCGStab:  Solving for Uz, Initial residual = 0.691246, Final residual = 0.037522, No Iterations 5
[INFO] MomentumPredictor: 8326.57 [ms]
[INFO] MatrixAssemblyPI: 1265.79 [ms]
[INFO] AdjustPhi: 67.19 [ms]
[INFO] ConstrainPressure: 0.003 [ms]
[INFO] MatrixAssemblyPII: 388.497 [ms]
[OGL LOG][Proc: 0]: global_index_init: 0.641 [ms]
[OGL LOG][Proc: 0]p_local_coeffs: call_update: 0 [ms]
[OGL LOG][Proc: 0]p_non_local_coeffs: call_update: 0 [ms]
[OGL LOG][Proc: 0]p: update_local_matrix_data: 260.214 [ms]
[OGL LOG][Proc: 0]p: update_non_local_matrix_data: 0.473 [ms]
[OGL LOG][Proc: 0]p: regenerate_distributed_matrix: 698.957 [ms]
[OGL LOG][Proc: 0]p_matrix: call_update: 701.56 [ms]
[OGL LOG][Proc: 0]p_rhs: call_update: 7.51 [ms]
[OGL LOG][Preconditioner.H:121] Generate preconditioner BJ MaxBlockSize 1
[OGL LOG][Proc: 0]p: init_precond: 3.633 [ms]
[OGL LOG][StoppingCriterion.H:237] Creating stopping criterion with minIter 1836 frequency 20
[OGL LOG][Proc: 0]p: generate_solver: 0.001 [ms]
[OGL LOG][Proc: 0]p: solve: 29395.2 [ms]
[OGL LOG][Proc: 0]p: copy_x_back: 17.748 [ms]
[OGL LOG][lduLduBase.H:330] 
Statistics:
	Time per iteration: 9540 [mu s]
	Time per residual norm calculation: 2590.000000 [mu s]
	Time per iteration and DOF: 0.149062 [ns]
	Retrieve results bandwidth 1.803000 [GByte/s]
[OGL LOG][Proc: 0]p: solve_multi_gpu: 30139.3 [ms]
BJcudaGKOCG:  Solving for p, Initial residual = 0.967947, Final residual = 7.69506e-05, No Iterations 3081
[INFO] SolveP: 30441.3 [ms]
time step continuity errors : sum local = 1.65317e-08, global = -1.00512e-22, cumulative = 7.50847e-21
[INFO] ContinuityError: 116.203 [ms]
[INFO] CorrectBoundary: 3.622 [ms]
[INFO] PISOStep: 32722.4 [ms]
[INFO] MatrixAssemblyPI: 1270.66 [ms]
[INFO] AdjustPhi: 66.823 [ms]
[INFO] ConstrainPressure: 0.004 [ms]
[INFO] MatrixAssemblyPII: 385.919 [ms]
[OGL LOG][Proc: 0]: global_index_init: 0.35 [ms]
[OGL LOG][Proc: 0]p_local_coeffs: call_update: 0 [ms]
[OGL LOG][Proc: 0]p_non_local_coeffs: call_update: 0 [ms]
[OGL LOG][Proc: 0]p: update_local_matrix_data: 261.655 [ms]
[OGL LOG][Proc: 0]p: update_non_local_matrix_data: 0.494 [ms]
[OGL LOG][Proc: 0]p: regenerate_distributed_matrix: 697.901 [ms]
[OGL LOG][Proc: 0]p_matrix: call_update: 702.414 [ms]
[OGL LOG][Proc: 0]p_rhs: call_update: 5.439 [ms]
[OGL LOG][Preconditioner.H:121] Generate preconditioner BJ MaxBlockSize 1
[OGL LOG][Proc: 0]p: init_precond: 3.896 [ms]
[OGL LOG][StoppingCriterion.H:237] Creating stopping criterion with minIter 1848 frequency 20
[OGL LOG][Proc: 0]p: generate_solver: 0.001 [ms]
[OGL LOG][Proc: 0]p: solve: 29256 [ms]
[OGL LOG][Proc: 0]p: copy_x_back: 17.787 [ms]
[OGL LOG][lduLduBase.H:330] 
Statistics:
	Time per iteration: 9557 [mu s]
	Time per residual norm calculation: 2887.000000 [mu s]
	Time per iteration and DOF: 0.149328 [ns]
	Retrieve results bandwidth 1.799000 [GByte/s]
[OGL LOG][Proc: 0]p: solve_multi_gpu: 29991.5 [ms]
BJcudaGKOCG:  Solving for p, Initial residual = 0.918681, Final residual = 9.60986e-05, No Iterations 3061
[INFO] SolveP: 30293.8 [ms]
time step continuity errors : sum local = 2.06184e-08, global = 1.00842e-21, cumulative = 8.51689e-21
[INFO] ContinuityError: 118.262 [ms]
[INFO] CorrectBoundary: 1.401 [ms]
[INFO] PISOStep: 32589 [ms]
[INFO] TimeStep: 74890.2 [ms]
ExecutionTime = 629.67 s  ClockTime = 634 s

Time = 0.00125

Courant Number mean: 0.0331287 max: 0.507091
[INFO] MatrixAssemblyU: 1126.46 [ms]
DILUPBiCGStab:  Solving for Ux, Initial residual = 0.0407128, Final residual = 0.00385372, No Iterations 5
DILUPBiCGStab:  Solving for Uy, Initial residual = 0.185267, Final residual = 0.0129668, No Iterations 5
DILUPBiCGStab:  Solving for Uz, Initial residual = 0.691847, Final residual = 0.0365513, No Iterations 5
[INFO] MomentumPredictor: 8354.35 [ms]
[INFO] MatrixAssemblyPI: 1265.94 [ms]
[INFO] AdjustPhi: 75.769 [ms]
[INFO] ConstrainPressure: 0.003 [ms]
[INFO] MatrixAssemblyPII: 390.167 [ms]
[OGL LOG][Proc: 0]: global_index_init: 0.014 [ms]
[OGL LOG][Proc: 0]p_local_coeffs: call_update: 0 [ms]
[OGL LOG][Proc: 0]p_non_local_coeffs: call_update: 0 [ms]
[OGL LOG][Proc: 0]p: update_local_matrix_data: 266.234 [ms]
[OGL LOG][Proc: 0]p: update_non_local_matrix_data: 0.47 [ms]
[OGL LOG][Proc: 0]p: regenerate_distributed_matrix: 701.702 [ms]
[OGL LOG][Proc: 0]p_matrix: call_update: 705.165 [ms]
[OGL LOG][Proc: 0]p_rhs: call_update: 8.984 [ms]
[OGL LOG][Preconditioner.H:121] Generate preconditioner BJ MaxBlockSize 1
[OGL LOG][Proc: 0]p: init_precond: 4.782 [ms]
[OGL LOG][StoppingCriterion.H:237] Creating stopping criterion with minIter 1836 frequency 20
[OGL LOG][Proc: 0]p: generate_solver: 0.001 [ms]
[OGL LOG][Proc: 0]p: solve: 29479.3 [ms]
[OGL LOG][Proc: 0]p: copy_x_back: 18.18 [ms]
[OGL LOG][lduLduBase.H:330] 
Statistics:
	Time per iteration: 9568 [mu s]
	Time per residual norm calculation: 2889.000000 [mu s]
	Time per iteration and DOF: 0.149500 [ns]
	Retrieve results bandwidth 1.760000 [GByte/s]
[OGL LOG][Proc: 0]p: solve_multi_gpu: 30227.3 [ms]
BJcudaGKOCG:  Solving for p, Initial residual = 0.967295, Final residual = 7.76435e-05, No Iterations 3081
[INFO] SolveP: 30531.6 [ms]
time step continuity errors : sum local = 1.94184e-08, global = 8.47996e-22, cumulative = 9.36489e-21
[INFO] ContinuityError: 121.666 [ms]
[INFO] CorrectBoundary: 2.066 [ms]
[INFO] PISOStep: 32839.8 [ms]
[INFO] MatrixAssemblyPI: 1260.2 [ms]
[INFO] AdjustPhi: 66.457 [ms]
[INFO] ConstrainPressure: 0.004 [ms]
[INFO] MatrixAssemblyPII: 386.078 [ms]
[OGL LOG][Proc: 0]: global_index_init: 0.4 [ms]
[OGL LOG][Proc: 0]p_local_coeffs: call_update: 0 [ms]
[OGL LOG][Proc: 0]p_non_local_coeffs: call_update: 0 [ms]
[OGL LOG][Proc: 0]p: update_local_matrix_data: 264.762 [ms]
[OGL LOG][Proc: 0]p: update_non_local_matrix_data: 0.464 [ms]
[OGL LOG][Proc: 0]p: regenerate_distributed_matrix: 697.514 [ms]
[OGL LOG][Proc: 0]p_matrix: call_update: 699.782 [ms]
[OGL LOG][Proc: 0]p_rhs: call_update: 6.629 [ms]
[OGL LOG][Preconditioner.H:121] Generate preconditioner BJ MaxBlockSize 1
[OGL LOG][Proc: 0]p: init_precond: 3.471 [ms]
[OGL LOG][StoppingCriterion.H:237] Creating stopping criterion with minIter 1848 frequency 20
[OGL LOG][Proc: 0]p: generate_solver: 0.001 [ms]
[OGL LOG][Proc: 0]p: solve: 29222.7 [ms]
[OGL LOG][Proc: 0]p: copy_x_back: 18.182 [ms]
[OGL LOG][lduLduBase.H:330] 
Statistics:
	Time per iteration: 9546 [mu s]
	Time per residual norm calculation: 2581.000000 [mu s]
	Time per iteration and DOF: 0.149156 [ns]
	Retrieve results bandwidth 1.759000 [GByte/s]
[OGL LOG][Proc: 0]p: solve_multi_gpu: 29956.8 [ms]
BJcudaGKOCG:  Solving for p, Initial residual = 0.903737, Final residual = 9.3874e-05, No Iterations 3061
[INFO] SolveP: 30263.8 [ms]
time step continuity errors : sum local = 2.37917e-08, global = 7.30523e-22, cumulative = 1.00954e-20
[INFO] ContinuityError: 118.938 [ms]
[INFO] CorrectBoundary: 8.529 [ms]
[INFO] PISOStep: 32553.1 [ms]
[INFO] TimeStep: 74999.9 [ms]
ExecutionTime = 704.55 s  ClockTime = 709 s

Time = 0.001375

Courant Number mean: 0.0347271 max: 0.825399
[INFO] MatrixAssemblyU: 1121.36 [ms]
DILUPBiCGStab:  Solving for Ux, Initial residual = 0.0434366, Final residual = 0.00368412, No Iterations 5
DILUPBiCGStab:  Solving for Uy, Initial residual = 0.208897, Final residual = 0.0139916, No Iterations 5
DILUPBiCGStab:  Solving for Uz, Initial residual = 0.705326, Final residual = 0.0358464, No Iterations 5
[INFO] MomentumPredictor: 8381.93 [ms]
[INFO] MatrixAssemblyPI: 1265.82 [ms]
[INFO] AdjustPhi: 67.108 [ms]
[INFO] ConstrainPressure: 0.003 [ms]
[INFO] MatrixAssemblyPII: 390.868 [ms]
[OGL LOG][Proc: 0]: global_index_init: 0.417 [ms]
[OGL LOG][Proc: 0]p_local_coeffs: call_update: 0 [ms]
[OGL LOG][Proc: 0]p_non_local_coeffs: call_update: 0 [ms]
[OGL LOG][Proc: 0]p: update_local_matrix_data: 262.875 [ms]
[OGL LOG][Proc: 0]p: update_non_local_matrix_data: 0.473 [ms]
[OGL LOG][Proc: 0]p: regenerate_distributed_matrix: 702.501 [ms]
[OGL LOG][Proc: 0]p_matrix: call_update: 708.106 [ms]
[OGL LOG][Proc: 0]p_rhs: call_update: 4.562 [ms]
[OGL LOG][Preconditioner.H:121] Generate preconditioner BJ MaxBlockSize 1
[OGL LOG][Proc: 0]p: init_precond: 4.606 [ms]
[OGL LOG][StoppingCriterion.H:237] Creating stopping criterion with minIter 1836 frequency 20
[OGL LOG][Proc: 0]p: generate_solver: 0.001 [ms]
[OGL LOG][Proc: 0]p: solve: 29274.3 [ms]
[OGL LOG][Proc: 0]p: copy_x_back: 17.359 [ms]
[OGL LOG][lduLduBase.H:330] 
Statistics:
	Time per iteration: 9563 [mu s]
	Time per residual norm calculation: 2583.000000 [mu s]
	Time per iteration and DOF: 0.149422 [ns]
	Retrieve results bandwidth 1.843000 [GByte/s]
[OGL LOG][Proc: 0]p: solve_multi_gpu: 30016 [ms]
BJcudaGKOCG:  Solving for p, Initial residual = 0.972943, Final residual = 9.59396e-05, No Iterations 3061
[INFO] SolveP: 30319.3 [ms]
time step continuity errors : sum local = 2.78672e-08, global = 6.17348e-22, cumulative = 1.07128e-20
[INFO] ContinuityError: 116.032 [ms]
[INFO] CorrectBoundary: 11.533 [ms]
[INFO] PISOStep: 32612.8 [ms]
[INFO] MatrixAssemblyPI: 1260.62 [ms]
[INFO] AdjustPhi: 66.174 [ms]
[INFO] ConstrainPressure: 0.003 [ms]
[INFO] MatrixAssemblyPII: 384.683 [ms]
[OGL LOG][Proc: 0]: global_index_init: 0.178 [ms]
[OGL LOG][Proc: 0]p_local_coeffs: call_update: 0 [ms]
[OGL LOG][Proc: 0]p_non_local_coeffs: call_update: 0 [ms]
[OGL LOG][Proc: 0]p: update_local_matrix_data: 262.42 [ms]
[OGL LOG][Proc: 0]p: update_non_local_matrix_data: 0.475 [ms]
[OGL LOG][Proc: 0]p: regenerate_distributed_matrix: 702.789 [ms]
[OGL LOG][Proc: 0]p_matrix: call_update: 704.282 [ms]
[OGL LOG][Proc: 0]p_rhs: call_update: 5.032 [ms]
[OGL LOG][Preconditioner.H:121] Generate preconditioner BJ MaxBlockSize 1
[OGL LOG][Proc: 0]p: init_precond: 2.848 [ms]
[OGL LOG][StoppingCriterion.H:237] Creating stopping criterion with minIter 1836 frequency 20
[OGL LOG][Proc: 0]p: generate_solver: 0.001 [ms]
[OGL LOG][Proc: 0]p: solve: 29238.8 [ms]
[OGL LOG][Proc: 0]p: copy_x_back: 17.706 [ms]
[OGL LOG][lduLduBase.H:330] 
Statistics:
	Time per iteration: 9552 [mu s]
	Time per residual norm calculation: 2587.000000 [mu s]
	Time per iteration and DOF: 0.149250 [ns]
	Retrieve results bandwidth 1.807000 [GByte/s]
[OGL LOG][Proc: 0]p: solve_multi_gpu: 29976.6 [ms]
BJcudaGKOCG:  Solving for p, Initial residual = 0.919517, Final residual = 9.08115e-05, No Iterations 3061
[INFO] SolveP: 30279.7 [ms]
time step continuity errors : sum local = 2.6395e-08, global = 3.51681e-22, cumulative = 1.10644e-20
[INFO] ContinuityError: 120.257 [ms]
[INFO] CorrectBoundary: 1.474 [ms]
[INFO] PISOStep: 32564.7 [ms]
[INFO] TimeStep: 74807 [ms]
ExecutionTime = 779.23 s  ClockTime = 783 s

Time = 0.0015

Courant Number mean: 0.0359269 max: 0.59709
[INFO] MatrixAssemblyU: 1125.21 [ms]
DILUPBiCGStab:  Solving for Ux, Initial residual = 0.0488677, Final residual = 0.00389098, No Iterations 5
DILUPBiCGStab:  Solving for Uy, Initial residual = 0.213175, Final residual = 0.0128568, No Iterations 5
DILUPBiCGStab:  Solving for Uz, Initial residual = 0.70943, Final residual = 0.0355494, No Iterations 5
[INFO] MomentumPredictor: 8363.87 [ms]
[INFO] MatrixAssemblyPI: 1268.05 [ms]
[INFO] AdjustPhi: 67.672 [ms]
[INFO] ConstrainPressure: 0.003 [ms]
[INFO] MatrixAssemblyPII: 403.28 [ms]
[OGL LOG][Proc: 0]: global_index_init: 1.433 [ms]
[OGL LOG][Proc: 0]p_local_coeffs: call_update: 0 [ms]
[OGL LOG][Proc: 0]p_non_local_coeffs: call_update: 0 [ms]
[OGL LOG][Proc: 0]p: update_local_matrix_data: 262.836 [ms]
[OGL LOG][Proc: 0]p: update_non_local_matrix_data: 0.47 [ms]
[OGL LOG][Proc: 0]p: regenerate_distributed_matrix: 700.439 [ms]
[OGL LOG][Proc: 0]p_matrix: call_update: 705.367 [ms]
[OGL LOG][Proc: 0]p_rhs: call_update: 4.477 [ms]
[OGL LOG][Preconditioner.H:121] Generate preconditioner BJ MaxBlockSize 1
[OGL LOG][Proc: 0]p: init_precond: 4.563 [ms]
[OGL LOG][StoppingCriterion.H:237] Creating stopping criterion with minIter 1836 frequency 20
[OGL LOG][Proc: 0]p: generate_solver: 0.001 [ms]
[OGL LOG][Proc: 0]p: solve: 29280.5 [ms]
[OGL LOG][Proc: 0]p: copy_x_back: 18.197 [ms]
[OGL LOG][lduLduBase.H:330] 
Statistics:
	Time per iteration: 9565 [mu s]
	Time per residual norm calculation: 2884.000000 [mu s]
	Time per iteration and DOF: 0.149453 [ns]
	Retrieve results bandwidth 1.758000 [GByte/s]
[OGL LOG][Proc: 0]p: solve_multi_gpu: 30021.9 [ms]
BJcudaGKOCG:  Solving for p, Initial residual = 0.973186, Final residual = 9.73762e-05, No Iterations 3061
[INFO] SolveP: 30327.5 [ms]
time step continuity errors : sum local = 3.31777e-08, global = 7.49477e-22, cumulative = 1.18139e-20
[INFO] ContinuityError: 116.095 [ms]
[INFO] CorrectBoundary: 2.117 [ms]
[INFO] PISOStep: 32634.9 [ms]
[INFO] MatrixAssemblyPI: 1259.99 [ms]
[INFO] AdjustPhi: 65.875 [ms]
[INFO] ConstrainPressure: 0.003 [ms]
[INFO] MatrixAssemblyPII: 383.838 [ms]
[OGL LOG][Proc: 0]: global_index_init: 0.077 [ms]
[OGL LOG][Proc: 0]p_local_coeffs: call_update: 0 [ms]
[OGL LOG][Proc: 0]p_non_local_coeffs: call_update: 0 [ms]
[OGL LOG][Proc: 0]p: update_local_matrix_data: 265.556 [ms]
[OGL LOG][Proc: 0]p: update_non_local_matrix_data: 0.47 [ms]
[OGL LOG][Proc: 0]p: regenerate_distributed_matrix: 698.075 [ms]
[OGL LOG][Proc: 0]p_matrix: call_update: 701.492 [ms]
[OGL LOG][Proc: 0]p_rhs: call_update: 8.482 [ms]
[OGL LOG][Preconditioner.H:121] Generate preconditioner BJ MaxBlockSize 1
[OGL LOG][Proc: 0]p: init_precond: 3.659 [ms]
[OGL LOG][StoppingCriterion.H:237] Creating stopping criterion with minIter 1836 frequency 20
[OGL LOG][Proc: 0]p: generate_solver: 0.001 [ms]
[OGL LOG][Proc: 0]p: solve: 29184.2 [ms]
[OGL LOG][Proc: 0]p: copy_x_back: 18.207 [ms]
[OGL LOG][lduLduBase.H:330] 
Statistics:
	Time per iteration: 9534 [mu s]
	Time per residual norm calculation: 2880.000000 [mu s]
	Time per iteration and DOF: 0.148969 [ns]
	Retrieve results bandwidth 1.757000 [GByte/s]
[OGL LOG][Proc: 0]p: solve_multi_gpu: 29923.5 [ms]
BJcudaGKOCG:  Solving for p, Initial residual = 0.908639, Final residual = 9.07312e-05, No Iterations 3061
[INFO] SolveP: 30232 [ms]
time step continuity errors : sum local = 3.12881e-08, global = 4.31006e-22, cumulative = 1.22449e-20
[INFO] ContinuityError: 118.74 [ms]
[INFO] CorrectBoundary: 7.978 [ms]
[INFO] PISOStep: 32512.5 [ms]
[INFO] TimeStep: 74763.4 [ms]
ExecutionTime = 853.85 s  ClockTime = 858 s

Time = 0.001625

Courant Number mean: 0.0374212 max: 1.14728
[INFO] MatrixAssemblyU: 1118.31 [ms]
DILUPBiCGStab:  Solving for Ux, Initial residual = 0.0534591, Final residual = 0.00382698, No Iterations 5
DILUPBiCGStab:  Solving for Uy, Initial residual = 0.241504, Final residual = 0.0141283, No Iterations 5
DILUPBiCGStab:  Solving for Uz, Initial residual = 0.721775, Final residual = 0.0353266, No Iterations 5
[INFO] MomentumPredictor: 8364.46 [ms]
[INFO] MatrixAssemblyPI: 1267.07 [ms]
[INFO] AdjustPhi: 67.967 [ms]
[INFO] ConstrainPressure: 0.003 [ms]
[INFO] MatrixAssemblyPII: 389.902 [ms]
[OGL LOG][Proc: 0]: global_index_init: 0.354 [ms]
[OGL LOG][Proc: 0]p_local_coeffs: call_update: 0 [ms]
[OGL LOG][Proc: 0]p_non_local_coeffs: call_update: 0 [ms]
[OGL LOG][Proc: 0]p: update_local_matrix_data: 257.584 [ms]
[OGL LOG][Proc: 0]p: update_non_local_matrix_data: 0.49 [ms]
[OGL LOG][Proc: 0]p: regenerate_distributed_matrix: 702.47 [ms]
[OGL LOG][Proc: 0]p_matrix: call_update: 704.924 [ms]
[OGL LOG][Proc: 0]p_rhs: call_update: 7.985 [ms]
[OGL LOG][Preconditioner.H:121] Generate preconditioner BJ MaxBlockSize 1
[OGL LOG][Proc: 0]p: init_precond: 4.674 [ms]
[OGL LOG][StoppingCriterion.H:237] Creating stopping criterion with minIter 1836 frequency 20
[OGL LOG][Proc: 0]p: generate_solver: 0.001 [ms]
[OGL LOG][Proc: 0]p: solve: 29233.6 [ms]
[OGL LOG][Proc: 0]p: copy_x_back: 17.704 [ms]
[OGL LOG][lduLduBase.H:330] 
Statistics:
	Time per iteration: 9550 [mu s]
	Time per residual norm calculation: 2291.000000 [mu s]
	Time per iteration and DOF: 0.149219 [ns]
	Retrieve results bandwidth 1.807000 [GByte/s]
[OGL LOG][Proc: 0]p: solve_multi_gpu: 29983 [ms]
BJcudaGKOCG:  Solving for p, Initial residual = 0.976798, Final residual = 9.56534e-05, No Iterations 3061
[INFO] SolveP: 30280.9 [ms]
time step continuity errors : sum local = 3.82141e-08, global = 1.16397e-21, cumulative = 1.34089e-20
[INFO] ContinuityError: 116.975 [ms]
[INFO] CorrectBoundary: 2.053 [ms]
[INFO] PISOStep: 32574.8 [ms]
[INFO] MatrixAssemblyPI: 1255.45 [ms]
[INFO] AdjustPhi: 65.591 [ms]
[INFO] ConstrainPressure: 0.004 [ms]
[INFO] MatrixAssemblyPII: 383.803 [ms]
[OGL LOG][Proc: 0]: global_index_init: 0.287 [ms]
[OGL LOG][Proc: 0]p_local_coeffs: call_update: 0 [ms]
[OGL LOG][Proc: 0]p_non_local_coeffs: call_update: 0 [ms]
[OGL LOG][Proc: 0]p: update_local_matrix_data: 269.882 [ms]
[OGL LOG][Proc: 0]p: update_non_local_matrix_data: 0.451 [ms]
[OGL LOG][Proc: 0]p: regenerate_distributed_matrix: 701.343 [ms]
[OGL LOG][Proc: 0]p_matrix: call_update: 702.904 [ms]
[OGL LOG][Proc: 0]p_rhs: call_update: 5.159 [ms]
[OGL LOG][Preconditioner.H:121] Generate preconditioner BJ MaxBlockSize 1
[OGL LOG][Proc: 0]p: init_precond: 3.699 [ms]
[OGL LOG][StoppingCriterion.H:237] Creating stopping criterion with minIter 1836 frequency 17
[OGL LOG][Proc: 0]p: generate_solver: 0.001 [ms]
[OGL LOG][Proc: 0]p: solve: 29274.2 [ms]
[OGL LOG][Proc: 0]p: copy_x_back: 17.703 [ms]
[OGL LOG][lduLduBase.H:330] 
Statistics:
	Time per iteration: 9563 [mu s]
	Time per residual norm calculation: 2589.000000 [mu s]
	Time per iteration and DOF: 0.149422 [ns]
	Retrieve results bandwidth 1.807000 [GByte/s]
[OGL LOG][Proc: 0]p: solve_multi_gpu: 30009.5 [ms]
BJcudaGKOCG:  Solving for p, Initial residual = 0.920324, Final residual = 9.00078e-05, No Iterations 3061
[INFO] SolveP: 30319.8 [ms]
time step continuity errors : sum local = 3.60458e-08, global = 1.17728e-21, cumulative = 1.45862e-20
[INFO] ContinuityError: 122.328 [ms]
[INFO] CorrectBoundary: 1.408 [ms]
[INFO] PISOStep: 32600.6 [ms]
[INFO] TimeStep: 74783.7 [ms]
ExecutionTime = 928.52 s  ClockTime = 933 s

Time = 0.00175

Courant Number mean: 0.0384832 max: 1.02052
[INFO] MatrixAssemblyU: 1122.17 [ms]
DILUPBiCGStab:  Solving for Ux, Initial residual = 0.0614036, Final residual = 0.00413008, No Iterations 5
DILUPBiCGStab:  Solving for Uy, Initial residual = 0.25185, Final residual = 0.0135253, No Iterations 5
DILUPBiCGStab:  Solving for Uz, Initial residual = 0.726036, Final residual = 0.0351081, No Iterations 5
[INFO] MomentumPredictor: 8350.26 [ms]
[INFO] MatrixAssemblyPI: 1266.62 [ms]
[INFO] AdjustPhi: 68.298 [ms]
[INFO] ConstrainPressure: 0.004 [ms]
[INFO] MatrixAssemblyPII: 389.537 [ms]
[OGL LOG][Proc: 0]: global_index_init: 0.334 [ms]
[OGL LOG][Proc: 0]p_local_coeffs: call_update: 0 [ms]
[OGL LOG][Proc: 0]p_non_local_coeffs: call_update: 0 [ms]
[OGL LOG][Proc: 0]p: update_local_matrix_data: 282.966 [ms]
[OGL LOG][Proc: 0]p: update_non_local_matrix_data: 0.465 [ms]
[OGL LOG][Proc: 0]p: regenerate_distributed_matrix: 713.775 [ms]
[OGL LOG][Proc: 0]p_matrix: call_update: 715.501 [ms]
[OGL LOG][Proc: 0]p_rhs: call_update: 3.719 [ms]
[OGL LOG][Preconditioner.H:121] Generate preconditioner BJ MaxBlockSize 1
[OGL LOG][Proc: 0]p: init_precond: 3.786 [ms]
[OGL LOG][StoppingCriterion.H:237] Creating stopping criterion with minIter 1836 frequency 20
[OGL LOG][Proc: 0]p: generate_solver: 0.001 [ms]
[OGL LOG][Proc: 0]p: solve: 29311.1 [ms]
[OGL LOG][Proc: 0]p: copy_x_back: 18.438 [ms]
[OGL LOG][lduLduBase.H:330] 
Statistics:
	Time per iteration: 9575 [mu s]
	Time per residual norm calculation: 2889.000000 [mu s]
	Time per iteration and DOF: 0.149609 [ns]
	Retrieve results bandwidth 1.735000 [GByte/s]
[OGL LOG][Proc: 0]p: solve_multi_gpu: 30057 [ms]
BJcudaGKOCG:  Solving for p, Initial residual = 0.977478, Final residual = 9.92866e-05, No Iterations 3061
[INFO] SolveP: 30381.3 [ms]
time step continuity errors : sum local = 4.67638e-08, global = -2.61673e-22, cumulative = 1.43245e-20
[INFO] ContinuityError: 123.281 [ms]
[INFO] CorrectBoundary: 9.208 [ms]
[INFO] PISOStep: 32680.6 [ms]
[INFO] MatrixAssemblyPI: 1259.31 [ms]
[INFO] AdjustPhi: 65.761 [ms]
[INFO] ConstrainPressure: 0.003 [ms]
[INFO] MatrixAssemblyPII: 384.811 [ms]
[OGL LOG][Proc: 0]: global_index_init: 0.425 [ms]
[OGL LOG][Proc: 0]p_local_coeffs: call_update: 0 [ms]
[OGL LOG][Proc: 0]p_non_local_coeffs: call_update: 0 [ms]
[OGL LOG][Proc: 0]p: update_local_matrix_data: 264.572 [ms]
[OGL LOG][Proc: 0]p: update_non_local_matrix_data: 0.466 [ms]
[OGL LOG][Proc: 0]p: regenerate_distributed_matrix: 703.429 [ms]
[OGL LOG][Proc: 0]p_matrix: call_update: 705.083 [ms]
[OGL LOG][Proc: 0]p_rhs: call_update: 4.44 [ms]
[OGL LOG][Preconditioner.H:121] Generate preconditioner BJ MaxBlockSize 1
[OGL LOG][Proc: 0]p: init_precond: 3.578 [ms]
[OGL LOG][StoppingCriterion.H:237] Creating stopping criterion with minIter 1836 frequency 20
[OGL LOG][Proc: 0]p: generate_solver: 0.001 [ms]
[OGL LOG][Proc: 0]p: solve: 29214.6 [ms]
[OGL LOG][Proc: 0]p: copy_x_back: 18.252 [ms]
[OGL LOG][lduLduBase.H:330] 
Statistics:
	Time per iteration: 9544 [mu s]
	Time per residual norm calculation: 2567.000000 [mu s]
	Time per iteration and DOF: 0.149125 [ns]
	Retrieve results bandwidth 1.753000 [GByte/s]
[OGL LOG][Proc: 0]p: solve_multi_gpu: 29951.6 [ms]
BJcudaGKOCG:  Solving for p, Initial residual = 0.912747, Final residual = 9.25029e-05, No Iterations 3061
[INFO] SolveP: 30257.3 [ms]
time step continuity errors : sum local = 4.40487e-08, global = 1.24115e-21, cumulative = 1.55656e-20
[INFO] ContinuityError: 119.135 [ms]
[INFO] CorrectBoundary: 3.654 [ms]
[INFO] PISOStep: 32539.9 [ms]
[INFO] TimeStep: 74818.9 [ms]
ExecutionTime = 1003.21 s  ClockTime = 1008 s

Time = 0.001875

Courant Number mean: 0.0399466 max: 1.682
[INFO] MatrixAssemblyU: 1116.45 [ms]
DILUPBiCGStab:  Solving for Ux, Initial residual = 0.0683048, Final residual = 0.00421125, No Iterations 5
DILUPBiCGStab:  Solving for Uy, Initial residual = 0.283833, Final residual = 0.0148949, No Iterations 5
DILUPBiCGStab:  Solving for Uz, Initial residual = 0.734917, Final residual = 0.034922, No Iterations 5
[INFO] MomentumPredictor: 8356.04 [ms]
[INFO] MatrixAssemblyPI: 1259.23 [ms]
[INFO] AdjustPhi: 68.538 [ms]
[INFO] ConstrainPressure: 0.003 [ms]
[INFO] MatrixAssemblyPII: 390.047 [ms]
[OGL LOG][Proc: 0]: global_index_init: 0.707 [ms]
[OGL LOG][Proc: 0]p_local_coeffs: call_update: 0 [ms]
[OGL LOG][Proc: 0]p_non_local_coeffs: call_update: 0 [ms]
[OGL LOG][Proc: 0]p: update_local_matrix_data: 259.707 [ms]
[OGL LOG][Proc: 0]p: update_non_local_matrix_data: 0.471 [ms]
[OGL LOG][Proc: 0]p: regenerate_distributed_matrix: 703.751 [ms]
[OGL LOG][Proc: 0]p_matrix: call_update: 706.615 [ms]
[OGL LOG][Proc: 0]p_rhs: call_update: 4.214 [ms]
[OGL LOG][Preconditioner.H:121] Generate preconditioner BJ MaxBlockSize 1
[OGL LOG][Proc: 0]p: init_precond: 4.248 [ms]
[OGL LOG][StoppingCriterion.H:237] Creating stopping criterion with minIter 1836 frequency 20
[OGL LOG][Proc: 0]p: generate_solver: 0.001 [ms]
[OGL LOG][Proc: 0]p: solve: 29467.5 [ms]
[OGL LOG][Proc: 0]p: copy_x_back: 17.779 [ms]
[OGL LOG][lduLduBase.H:330] 
Statistics:
	Time per iteration: 9564 [mu s]
	Time per residual norm calculation: 2588.000000 [mu s]
	Time per iteration and DOF: 0.149438 [ns]
	Retrieve results bandwidth 1.799000 [GByte/s]
[OGL LOG][Proc: 0]p: solve_multi_gpu: 30219.1 [ms]
BJcudaGKOCG:  Solving for p, Initial residual = 0.979615, Final residual = 7.19074e-05, No Iterations 3081
[INFO] SolveP: 30519.5 [ms]
time step continuity errors : sum local = 3.99497e-08, global = 1.12989e-21, cumulative = 1.66955e-20
[INFO] ContinuityError: 118.92 [ms]
[INFO] CorrectBoundary: 2.056 [ms]
[INFO] PISOStep: 32805.9 [ms]
[INFO] MatrixAssemblyPI: 1260.2 [ms]
[INFO] AdjustPhi: 66.153 [ms]
[INFO] ConstrainPressure: 0.004 [ms]
[INFO] MatrixAssemblyPII: 385.243 [ms]
[OGL LOG][Proc: 0]: global_index_init: 0.515 [ms]
[OGL LOG][Proc: 0]p_local_coeffs: call_update: 0 [ms]
[OGL LOG][Proc: 0]p_non_local_coeffs: call_update: 0 [ms]
[OGL LOG][Proc: 0]p: update_local_matrix_data: 265.215 [ms]
[OGL LOG][Proc: 0]p: update_non_local_matrix_data: 0.457 [ms]
[OGL LOG][Proc: 0]p: regenerate_distributed_matrix: 701.97 [ms]
[OGL LOG][Proc: 0]p_matrix: call_update: 704.433 [ms]
[OGL LOG][Proc: 0]p_rhs: call_update: 4.722 [ms]
[OGL LOG][Preconditioner.H:121] Generate preconditioner BJ MaxBlockSize 1
[OGL LOG][Proc: 0]p: init_precond: 3.455 [ms]
[OGL LOG][StoppingCriterion.H:237] Creating stopping criterion with minIter 1848 frequency 20
[OGL LOG][Proc: 0]p: generate_solver: 0.001 [ms]
[OGL LOG][Proc: 0]p: solve: 29262.5 [ms]
[OGL LOG][Proc: 0]p: copy_x_back: 18.129 [ms]
[OGL LOG][lduLduBase.H:330] 
Statistics:
	Time per iteration: 9559 [mu s]
	Time per residual norm calculation: 2591.000000 [mu s]
	Time per iteration and DOF: 0.149359 [ns]
	Retrieve results bandwidth 1.765000 [GByte/s]
[OGL LOG][Proc: 0]p: solve_multi_gpu: 29999.6 [ms]
BJcudaGKOCG:  Solving for p, Initial residual = 0.920839, Final residual = 9.42524e-05, No Iterations 3061
[INFO] SolveP: 30305.7 [ms]
time step continuity errors : sum local = 5.2569e-08, global = 1.52912e-21, cumulative = 1.82247e-20
[INFO] ContinuityError: 118.611 [ms]
[INFO] CorrectBoundary: 5.617 [ms]
[INFO] PISOStep: 32588.4 [ms]
[INFO] TimeStep: 74987.7 [ms]
ExecutionTime = 1078.07 s  ClockTime = 1083 s

Time = 0.002

Courant Number mean: 0.040941 max: 1.71601
[INFO] MatrixAssemblyU: 1140.48 [ms]
DILUPBiCGStab:  Solving for Ux, Initial residual = 0.0796672, Final residual = 0.00463474, No Iterations 5
DILUPBiCGStab:  Solving for Uy, Initial residual = 0.300471, Final residual = 0.0147505, No Iterations 5
DILUPBiCGStab:  Solving for Uz, Initial residual = 0.738183, Final residual = 0.0346492, No Iterations 5
[INFO] MomentumPredictor: 8343.27 [ms]
[INFO] MatrixAssemblyPI: 1265.73 [ms]
[INFO] AdjustPhi: 67.634 [ms]
[INFO] ConstrainPressure: 0.004 [ms]
[INFO] MatrixAssemblyPII: 390.301 [ms]
[OGL LOG][Proc: 0]: global_index_init: 0.017 [ms]
[OGL LOG][Proc: 0]p_local_coeffs: call_update: 0 [ms]
[OGL LOG][Proc: 0]p_non_local_coeffs: call_update: 0 [ms]
[OGL LOG][Proc: 0]p: update_local_matrix_data: 257.87 [ms]
[OGL LOG][Proc: 0]p: update_non_local_matrix_data: 0.489 [ms]
[OGL LOG][Proc: 0]p: regenerate_distributed_matrix: 705.845 [ms]
[OGL LOG][Proc: 0]p_matrix: call_update: 710.979 [ms]
[OGL LOG][Proc: 0]p_rhs: call_update: 4.539 [ms]
[OGL LOG][Preconditioner.H:121] Generate preconditioner BJ MaxBlockSize 1
[OGL LOG][Proc: 0]p: init_precond: 4.012 [ms]
[OGL LOG][StoppingCriterion.H:237] Creating stopping criterion with minIter 1836 frequency 20
[OGL LOG][Proc: 0]p: generate_solver: 0.001 [ms]
[OGL LOG][Proc: 0]p: solve: 29478.2 [ms]
[OGL LOG][Proc: 0]p: copy_x_back: 17.292 [ms]
[OGL LOG][lduLduBase.H:330] 
Statistics:
	Time per iteration: 9567 [mu s]
	Time per residual norm calculation: 2582.000000 [mu s]
	Time per iteration and DOF: 0.149484 [ns]
	Retrieve results bandwidth 1.850000 [GByte/s]
[OGL LOG][Proc: 0]p: solve_multi_gpu: 30228.5 [ms]
BJcudaGKOCG:  Solving for p, Initial residual = 0.980733, Final residual = 7.52964e-05, No Iterations 3081
[INFO] SolveP: 30527.9 [ms]
time step continuity errors : sum local = 4.95031e-08, global = 1.559e-21, cumulative = 1.97837e-20
[INFO] ContinuityError: 119.416 [ms]
[INFO] CorrectBoundary: 11.847 [ms]
[INFO] PISOStep: 32822.8 [ms]
[INFO] MatrixAssemblyPI: 1259.21 [ms]
[INFO] AdjustPhi: 66.102 [ms]
[INFO] ConstrainPressure: 0.003 [ms]
[INFO] MatrixAssemblyPII: 382.011 [ms]
[OGL LOG][Proc: 0]: global_index_init: 0.152 [ms]
[OGL LOG][Proc: 0]p_local_coeffs: call_update: 0 [ms]
[OGL LOG][Proc: 0]p_non_local_coeffs: call_update: 0 [ms]
[OGL LOG][Proc: 0]p: update_local_matrix_data: 268.861 [ms]
[OGL LOG][Proc: 0]p: update_non_local_matrix_data: 0.751 [ms]
[OGL LOG][Proc: 0]p: regenerate_distributed_matrix: 699.595 [ms]
[OGL LOG][Proc: 0]p_matrix: call_update: 704.879 [ms]
[OGL LOG][Proc: 0]p_rhs: call_update: 6.217 [ms]
[OGL LOG][Preconditioner.H:121] Generate preconditioner BJ MaxBlockSize 1
[OGL LOG][Proc: 0]p: init_precond: 4.031 [ms]
[OGL LOG][StoppingCriterion.H:237] Creating stopping criterion with minIter 1848 frequency 20
[OGL LOG][Proc: 0]p: generate_solver: 0.002 [ms]
[OGL LOG][Proc: 0]p: solve: 29225.6 [ms]
[OGL LOG][Proc: 0]p: copy_x_back: 18.031 [ms]
[OGL LOG][lduLduBase.H:330] 
Statistics:
	Time per iteration: 9547 [mu s]
	Time per residual norm calculation: 2732.000000 [mu s]
	Time per iteration and DOF: 0.149172 [ns]
	Retrieve results bandwidth 1.774000 [GByte/s]
[OGL LOG][Proc: 0]p: solve_multi_gpu: 29965 [ms]
BJcudaGKOCG:  Solving for p, Initial residual = 0.915787, Final residual = 9.64337e-05, No Iterations 3061
[INFO] SolveP: 30275.2 [ms]
time step continuity errors : sum local = 6.40444e-08, global = 9.36989e-22, cumulative = 2.07206e-20
[INFO] ContinuityError: 119.198 [ms]
[INFO] CorrectBoundary: 2.364 [ms]
[INFO] PISOStep: 32555.5 [ms]
[INFO] TimeStep: 74988 [ms]
ExecutionTime = 1152.92 s  ClockTime = 1158 s

Time = 0.002125

Courant Number mean: 0.0424412 max: 2.54789
[INFO] MatrixAssemblyU: 1121.43 [ms]
DILUPBiCGStab:  Solving for Ux, Initial residual = 0.089552, Final residual = 0.0048853, No Iterations 5
DILUPBiCGStab:  Solving for Uy, Initial residual = 0.335412, Final residual = 0.0161884, No Iterations 5
DILUPBiCGStab:  Solving for Uz, Initial residual = 0.743951, Final residual = 0.0344903, No Iterations 5
[INFO] MomentumPredictor: 8341.42 [ms]
[INFO] MatrixAssemblyPI: 1264.6 [ms]
[INFO] AdjustPhi: 67.883 [ms]
[INFO] ConstrainPressure: 0.003 [ms]
[INFO] MatrixAssemblyPII: 389.849 [ms]
[OGL LOG][Proc: 0]: global_index_init: 0.459 [ms]
[OGL LOG][Proc: 0]p_local_coeffs: call_update: 0 [ms]
[OGL LOG][Proc: 0]p_non_local_coeffs: call_update: 0 [ms]
[OGL LOG][Proc: 0]p: update_local_matrix_data: 268.068 [ms]
[OGL LOG][Proc: 0]p: update_non_local_matrix_data: 0.477 [ms]
[OGL LOG][Proc: 0]p: regenerate_distributed_matrix: 701.633 [ms]
[OGL LOG][Proc: 0]p_matrix: call_update: 705.79 [ms]
[OGL LOG][Proc: 0]p_rhs: call_update: 4.763 [ms]
[OGL LOG][Preconditioner.H:121] Generate preconditioner BJ MaxBlockSize 1
[OGL LOG][Proc: 0]p: init_precond: 5.11 [ms]
[OGL LOG][StoppingCriterion.H:237] Creating stopping criterion with minIter 1836 frequency 20
[OGL LOG][Proc: 0]p: generate_solver: 0.001 [ms]
[OGL LOG][Proc: 0]p: solve: 29400.2 [ms]
[OGL LOG][Proc: 0]p: copy_x_back: 18.242 [ms]
[OGL LOG][lduLduBase.H:330] 
Statistics:
	Time per iteration: 9542 [mu s]
	Time per residual norm calculation: 2882.000000 [mu s]
	Time per iteration and DOF: 0.149094 [ns]
	Retrieve results bandwidth 1.754000 [GByte/s]
[OGL LOG][Proc: 0]p: solve_multi_gpu: 30141.6 [ms]
BJcudaGKOCG:  Solving for p, Initial residual = 0.981812, Final residual = 7.70988e-05, No Iterations 3081
[INFO] SolveP: 30450.8 [ms]
time step continuity errors : sum local = 6.0223e-08, global = 1.82004e-21, cumulative = 2.25407e-20
[INFO] ContinuityError: 119.073 [ms]
[INFO] CorrectBoundary: 1.957 [ms]
[INFO] PISOStep: 32741.7 [ms]
[INFO] MatrixAssemblyPI: 1261.37 [ms]
[INFO] AdjustPhi: 66.089 [ms]
[INFO] ConstrainPressure: 0.004 [ms]
[INFO] MatrixAssemblyPII: 382.781 [ms]
[OGL LOG][Proc: 0]: global_index_init: 0.436 [ms]
[OGL LOG][Proc: 0]p_local_coeffs: call_update: 0 [ms]
[OGL LOG][Proc: 0]p_non_local_coeffs: call_update: 0 [ms]
[OGL LOG][Proc: 0]p: update_local_matrix_data: 266.46 [ms]
[OGL LOG][Proc: 0]p: update_non_local_matrix_data: 0.463 [ms]
[OGL LOG][Proc: 0]p: regenerate_distributed_matrix: 698.277 [ms]
[OGL LOG][Proc: 0]p_matrix: call_update: 702.377 [ms]
[OGL LOG][Proc: 0]p_rhs: call_update: 5.444 [ms]
[OGL LOG][Preconditioner.H:121] Generate preconditioner BJ MaxBlockSize 1
[OGL LOG][Proc: 0]p: init_precond: 3.688 [ms]
[OGL LOG][StoppingCriterion.H:237] Creating stopping criterion with minIter 1848 frequency 20
[OGL LOG][Proc: 0]p: generate_solver: 0.001 [ms]
[OGL LOG][Proc: 0]p: solve: 29242.6 [ms]
[OGL LOG][Proc: 0]p: copy_x_back: 17.921 [ms]
[OGL LOG][lduLduBase.H:330] 
Statistics:
	Time per iteration: 9553 [mu s]
	Time per residual norm calculation: 2288.000000 [mu s]
	Time per iteration and DOF: 0.149266 [ns]
	Retrieve results bandwidth 1.785000 [GByte/s]
[OGL LOG][Proc: 0]p: solve_multi_gpu: 29979.1 [ms]
BJcudaGKOCG:  Solving for p, Initial residual = 0.920828, Final residual = 9.71079e-05, No Iterations 3061
[INFO] SolveP: 30286.7 [ms]
time step continuity errors : sum local = 7.62552e-08, global = 2.77971e-22, cumulative = 2.28187e-20
[INFO] ContinuityError: 120.014 [ms]
[INFO] CorrectBoundary: 7.92 [ms]
[INFO] PISOStep: 32570.4 [ms]
[INFO] TimeStep: 74895.5 [ms]
ExecutionTime = 1227.7 s  ClockTime = 1233 s

Time = 0.00225

Courant Number mean: 0.0434473 max: 2.85595
[INFO] MatrixAssemblyU: 1122.5 [ms]
DILUPBiCGStab:  Solving for Ux, Initial residual = 0.105827, Final residual = 0.00549865, No Iterations 5
DILUPBiCGStab:  Solving for Uy, Initial residual = 0.358291, Final residual = 0.016443, No Iterations 5
DILUPBiCGStab:  Solving for Uz, Initial residual = 0.74634, Final residual = 0.034268, No Iterations 5
[INFO] MomentumPredictor: 8382.02 [ms]
[INFO] MatrixAssemblyPI: 1265.16 [ms]
[INFO] AdjustPhi: 67.961 [ms]
[INFO] ConstrainPressure: 0.003 [ms]
[INFO] MatrixAssemblyPII: 389.584 [ms]
[OGL LOG][Proc: 0]: global_index_init: 0.265 [ms]
[OGL LOG][Proc: 0]p_local_coeffs: call_update: 0 [ms]
[OGL LOG][Proc: 0]p_non_local_coeffs: call_update: 0 [ms]
[OGL LOG][Proc: 0]p: update_local_matrix_data: 269.459 [ms]
[OGL LOG][Proc: 0]p: update_non_local_matrix_data: 0.486 [ms]
[OGL LOG][Proc: 0]p: regenerate_distributed_matrix: 710.073 [ms]
[OGL LOG][Proc: 0]p_matrix: call_update: 711.78 [ms]
[OGL LOG][Proc: 0]p_rhs: call_update: 4.004 [ms]
[OGL LOG][Preconditioner.H:121] Generate preconditioner BJ MaxBlockSize 1
[OGL LOG][Proc: 0]p: init_precond: 4.77 [ms]
[OGL LOG][StoppingCriterion.H:237] Creating stopping criterion with minIter 1836 frequency 17
[OGL LOG][Proc: 0]p: generate_solver: 0.001 [ms]
[OGL LOG][Proc: 0]p: solve: 29431.6 [ms]
[OGL LOG][Proc: 0]p: copy_x_back: 17.408 [ms]
[OGL LOG][lduLduBase.H:330] 
Statistics:
	Time per iteration: 9561 [mu s]
	Time per residual norm calculation: 2283.000000 [mu s]
	Time per iteration and DOF: 0.149391 [ns]
	Retrieve results bandwidth 1.838000 [GByte/s]
[OGL LOG][Proc: 0]p: solve_multi_gpu: 30179.2 [ms]
BJcudaGKOCG:  Solving for p, Initial residual = 0.983018, Final residual = 8.3899e-05, No Iterations 3078
[INFO] SolveP: 30489.8 [ms]
time step continuity errors : sum local = 7.8149e-08, global = 1.01228e-21, cumulative = 2.38309e-20
[INFO] ContinuityError: 110.878 [ms]
[INFO] CorrectBoundary: 10.902 [ms]
[INFO] PISOStep: 32785.8 [ms]
[INFO] MatrixAssemblyPI: 1260.12 [ms]
[INFO] AdjustPhi: 66.235 [ms]
[INFO] ConstrainPressure: 0.003 [ms]
[INFO] MatrixAssemblyPII: 383.272 [ms]
[OGL LOG][Proc: 0]: global_index_init: 0.301 [ms]
[OGL LOG][Proc: 0]p_local_coeffs: call_update: 0 [ms]
[OGL LOG][Proc: 0]p_non_local_coeffs: call_update: 0 [ms]
[OGL LOG][Proc: 0]p: update_local_matrix_data: 262.011 [ms]
[OGL LOG][Proc: 0]p: update_non_local_matrix_data: 0.47 [ms]
[OGL LOG][Proc: 0]p: regenerate_distributed_matrix: 701.386 [ms]
[OGL LOG][Proc: 0]p_matrix: call_update: 702.914 [ms]
[OGL LOG][Proc: 0]p_rhs: call_update: 4.72 [ms]
[OGL LOG][Preconditioner.H:121] Generate preconditioner BJ MaxBlockSize 1
[OGL LOG][Proc: 0]p: init_precond: 3.092 [ms]
[OGL LOG][StoppingCriterion.H:237] Creating stopping criterion with minIter 1846 frequency 17
[OGL LOG][Proc: 0]p: generate_solver: 0.001 [ms]
[OGL LOG][Proc: 0]p: solve: 29423.6 [ms]
[OGL LOG][Proc: 0]p: copy_x_back: 17.843 [ms]
[OGL LOG][lduLduBase.H:330] 
Statistics:
	Time per iteration: 9559 [mu s]
	Time per residual norm calculation: 2291.000000 [mu s]
	Time per iteration and DOF: 0.149359 [ns]
	Retrieve results bandwidth 1.793000 [GByte/s]
[OGL LOG][Proc: 0]p: solve_multi_gpu: 30159.3 [ms]
BJcudaGKOCG:  Solving for p, Initial residual = 0.917827, Final residual = 7.77337e-05, No Iterations 3078
[INFO] SolveP: 30462.2 [ms]
time step continuity errors : sum local = 7.3103e-08, global = 2.97307e-22, cumulative = 2.41282e-20
[INFO] ContinuityError: 120.246 [ms]
[INFO] CorrectBoundary: 1.338 [ms]
[INFO] PISOStep: 32745.9 [ms]
[INFO] TimeStep: 75162.3 [ms]
ExecutionTime = 1302.72 s  ClockTime = 1308 s

Time = 0.002375

Courant Number mean: 0.045067 max: 3.95906
[INFO] MatrixAssemblyU: 1125.28 [ms]
DILUPBiCGStab:  Solving for Ux, Initial residual = 0.119556, Final residual = 0.00593644, No Iterations 5
DILUPBiCGStab:  Solving for Uy, Initial residual = 0.394605, Final residual = 0.0179324, No Iterations 5
DILUPBiCGStab:  Solving for Uz, Initial residual = 0.750133, Final residual = 0.0341849, No Iterations 5
[INFO] MomentumPredictor: 8355 [ms]
[INFO] MatrixAssemblyPI: 1266.38 [ms]
[INFO] AdjustPhi: 67.769 [ms]
[INFO] ConstrainPressure: 0.003 [ms]
[INFO] MatrixAssemblyPII: 389.828 [ms]
[OGL LOG][Proc: 0]: global_index_init: 0.404 [ms]
[OGL LOG][Proc: 0]p_local_coeffs: call_update: 0 [ms]
[OGL LOG][Proc: 0]p_non_local_coeffs: call_update: 0 [ms]
[OGL LOG][Proc: 0]p: update_local_matrix_data: 265.653 [ms]
[OGL LOG][Proc: 0]p: update_non_local_matrix_data: 0.469 [ms]
[OGL LOG][Proc: 0]p: regenerate_distributed_matrix: 700.43 [ms]
[OGL LOG][Proc: 0]p_matrix: call_update: 703.599 [ms]
[OGL LOG][Proc: 0]p_rhs: call_update: 7.174 [ms]
[OGL LOG][Preconditioner.H:121] Generate preconditioner BJ MaxBlockSize 1
[OGL LOG][Proc: 0]p: init_precond: 4.206 [ms]
[OGL LOG][StoppingCriterion.H:237] Creating stopping criterion with minIter 1846 frequency 17
[OGL LOG][Proc: 0]p: generate_solver: 0.001 [ms]
[OGL LOG][Proc: 0]p: solve: 29415.1 [ms]
[OGL LOG][Proc: 0]p: copy_x_back: 18.331 [ms]
[OGL LOG][lduLduBase.H:330] 
Statistics:
	Time per iteration: 9556 [mu s]
	Time per residual norm calculation: 2888.000000 [mu s]
	Time per iteration and DOF: 0.149312 [ns]
	Retrieve results bandwidth 1.745000 [GByte/s]
[OGL LOG][Proc: 0]p: solve_multi_gpu: 30155.4 [ms]
BJcudaGKOCG:  Solving for p, Initial residual = 0.983459, Final residual = 8.64723e-05, No Iterations 3078
[INFO] SolveP: 30461.6 [ms]
time step continuity errors : sum local = 9.64292e-08, global = 9.45338e-22, cumulative = 2.50736e-20
[INFO] ContinuityError: 117.159 [ms]
[INFO] CorrectBoundary: 2.08 [ms]
[INFO] PISOStep: 32755.9 [ms]
[INFO] MatrixAssemblyPI: 1266.63 [ms]
[INFO] AdjustPhi: 67.041 [ms]
[INFO] ConstrainPressure: 0.003 [ms]
[INFO] MatrixAssemblyPII: 385.096 [ms]
[OGL LOG][Proc: 0]: global_index_init: 0.518 [ms]
[OGL LOG][Proc: 0]p_local_coeffs: call_update: 0 [ms]
[OGL LOG][Proc: 0]p_non_local_coeffs: call_update: 0 [ms]
[OGL LOG][Proc: 0]p: update_local_matrix_data: 269.506 [ms]
[OGL LOG][Proc: 0]p: update_non_local_matrix_data: 0.47 [ms]
[OGL LOG][Proc: 0]p: regenerate_distributed_matrix: 696.563 [ms]
[OGL LOG][Proc: 0]p_matrix: call_update: 700.82 [ms]
[OGL LOG][Proc: 0]p_rhs: call_update: 5.417 [ms]
[OGL LOG][Preconditioner.H:121] Generate preconditioner BJ MaxBlockSize 1
[OGL LOG][Proc: 0]p: init_precond: 3.703 [ms]
[OGL LOG][StoppingCriterion.H:237] Creating stopping criterion with minIter 1846 frequency 20
[OGL LOG][Proc: 0]p: generate_solver: 0.001 [ms]
[OGL LOG][Proc: 0]p: solve: 29250.3 [ms]
[OGL LOG][Proc: 0]p: copy_x_back: 18.395 [ms]
[OGL LOG][lduLduBase.H:330] 
Statistics:
	Time per iteration: 9555 [mu s]
	Time per residual norm calculation: 2865.000000 [mu s]
	Time per iteration and DOF: 0.149297 [ns]
	Retrieve results bandwidth 1.739000 [GByte/s]
[OGL LOG][Proc: 0]p: solve_multi_gpu: 29984.2 [ms]
BJcudaGKOCG:  Solving for p, Initial residual = 0.921042, Final residual = 9.96997e-05, No Iterations 3061
[INFO] SolveP: 30295.2 [ms]
time step continuity errors : sum local = 1.11891e-07, global = 3.65019e-22, cumulative = 2.54386e-20
[INFO] ContinuityError: 118.271 [ms]
[INFO] CorrectBoundary: 9.228 [ms]
[INFO] PISOStep: 32587.2 [ms]
[INFO] TimeStep: 74943.9 [ms]
ExecutionTime = 1377.54 s  ClockTime = 1383 s

Time = 0.0025

Courant Number mean: 0.0461921 max: 4.70352
[INFO] MatrixAssemblyU: 1118.32 [ms]
DILUPBiCGStab:  Solving for Ux, Initial residual = 0.142469, Final residual = 0.00681847, No Iterations 5
DILUPBiCGStab:  Solving for Uy, Initial residual = 0.422118, Final residual = 0.0185011, No Iterations 5
DILUPBiCGStab:  Solving for Uz, Initial residual = 0.751524, Final residual = 0.0339929, No Iterations 5
[INFO] MomentumPredictor: 8343.78 [ms]
[INFO] MatrixAssemblyPI: 1264.82 [ms]
[INFO] AdjustPhi: 67.374 [ms]
[INFO] ConstrainPressure: 0.003 [ms]
[INFO] MatrixAssemblyPII: 387.111 [ms]
[OGL LOG][Proc: 0]: global_index_init: 0.13 [ms]
[OGL LOG][Proc: 0]p_local_coeffs: call_update: 0 [ms]
[OGL LOG][Proc: 0]p_non_local_coeffs: call_update: 0 [ms]
[OGL LOG][Proc: 0]p: update_local_matrix_data: 259.467 [ms]
[OGL LOG][Proc: 0]p: update_non_local_matrix_data: 0.481 [ms]
[OGL LOG][Proc: 0]p: regenerate_distributed_matrix: 704.507 [ms]
[OGL LOG][Proc: 0]p_matrix: call_update: 706.755 [ms]
[OGL LOG][Proc: 0]p_rhs: call_update: 4.191 [ms]
[OGL LOG][Preconditioner.H:121] Generate preconditioner BJ MaxBlockSize 1
[OGL LOG][Proc: 0]p: init_precond: 4.395 [ms]
[OGL LOG][StoppingCriterion.H:237] Creating stopping criterion with minIter 1836 frequency 20
[OGL LOG][Proc: 0]p: generate_solver: 0.001 [ms]
[OGL LOG][Proc: 0]p: solve: 29445.2 [ms]
[OGL LOG][Proc: 0]p: copy_x_back: 12.992 [ms]
[OGL LOG][lduLduBase.H:330] 
Statistics:
	Time per iteration: 9557 [mu s]
	Time per residual norm calculation: 2571.000000 [mu s]
	Time per iteration and DOF: 0.149328 [ns]
	Retrieve results bandwidth 2.463000 [GByte/s]
[OGL LOG][Proc: 0]p: solve_multi_gpu: 30189.7 [ms]
BJcudaGKOCG:  Solving for p, Initial residual = 0.984336, Final residual = 8.33085e-05, No Iterations 3081
[INFO] SolveP: 30489.5 [ms]
time step continuity errors : sum local = 1.11544e-07, global = -2.46577e-22, cumulative = 2.5192e-20
[INFO] ContinuityError: 126.592 [ms]
[INFO] CorrectBoundary: 10.904 [ms]
[INFO] PISOStep: 32785.8 [ms]
[INFO] MatrixAssemblyPI: 1262.87 [ms]
[INFO] AdjustPhi: 66.866 [ms]
[INFO] ConstrainPressure: 0.003 [ms]
[INFO] MatrixAssemblyPII: 384.171 [ms]
[OGL LOG][Proc: 0]: global_index_init: 0.133 [ms]
[OGL LOG][Proc: 0]p_local_coeffs: call_update: 0 [ms]
[OGL LOG][Proc: 0]p_non_local_coeffs: call_update: 0 [ms]
[OGL LOG][Proc: 0]p: update_local_matrix_data: 267.223 [ms]
[OGL LOG][Proc: 0]p: update_non_local_matrix_data: 0.471 [ms]
[OGL LOG][Proc: 0]p: regenerate_distributed_matrix: 701.855 [ms]
[OGL LOG][Proc: 0]p_matrix: call_update: 703.399 [ms]
[OGL LOG][Proc: 0]p_rhs: call_update: 5.159 [ms]
[OGL LOG][Preconditioner.H:121] Generate preconditioner BJ MaxBlockSize 1
[OGL LOG][Proc: 0]p: init_precond: 3.838 [ms]
[OGL LOG][StoppingCriterion.H:237] Creating stopping criterion with minIter 1848 frequency 20
[OGL LOG][Proc: 0]p: generate_solver: 0.001 [ms]
[OGL LOG][Proc: 0]p: solve: 29406.1 [ms]
[OGL LOG][Proc: 0]p: copy_x_back: 17.768 [ms]
[OGL LOG][lduLduBase.H:330] 
Statistics:
	Time per iteration: 9544 [mu s]
	Time per residual norm calculation: 2586.000000 [mu s]
	Time per iteration and DOF: 0.149125 [ns]
	Retrieve results bandwidth 1.800000 [GByte/s]
[OGL LOG][Proc: 0]p: solve_multi_gpu: 30142.3 [ms]
BJcudaGKOCG:  Solving for p, Initial residual = 0.919176, Final residual = 7.70363e-05, No Iterations 3081
[INFO] SolveP: 30451 [ms]
time step continuity errors : sum local = 1.04113e-07, global = 1.93943e-21, cumulative = 2.71315e-20
[INFO] ContinuityError: 119.745 [ms]
[INFO] CorrectBoundary: 1.499 [ms]
[INFO] PISOStep: 32737.7 [ms]
[INFO] TimeStep: 75112 [ms]
ExecutionTime = 1452.51 s  ClockTime = 1458 s

End

Finalising parallel run
