/*---------------------------------------------------------------------------*\
| =========                 |                                                 |
| \\      /  F ield         | OpenFOAM: The Open Source CFD Toolbox           |
|  \\    /   O peration     | Version:  2306                                  |
|   \\  /    A nd           | Website:  www.openfoam.com                      |
|    \\/     M anipulation  |                                                 |
\*---------------------------------------------------------------------------*/
Build  : a6e826bd55-20230630 OPENFOAM=2306 version=v2306
Arch   : "LSB;label=32;scalar=64"
Exec   : icoFoam -parallel -case /tmp/lidDrivenCavity3D/workspace/e3e0fb8fd20de5204ff3b6182e93478b/case
Date   : Dec 09 2023
Time   : 10:02:20
Host   : nla-gpu2.ianm.kit.edu
PID    : 270910
I/O    : uncollated
Case   : /tmp/lidDrivenCavity3D/workspace/e3e0fb8fd20de5204ff3b6182e93478b/case
nProcs : 16
Hosts  :
(
    (nla-gpu2.ianm.kit.edu 16)
)
Pstream initialized with:
    floatTransfer      : false
    nProcsSimpleSum    : 0
    nonBlockingExchange: 0 (tuning: 0)
    exchange algorithm : -1
    commsType          : nonBlocking
    polling iterations : 0
trapFpe: Floating point exception trapping enabled (FOAM_SIGFPE).
fileModificationChecking : Monitoring run-time modified files using timeStampMaster (fileModificationSkew 5, maxFileModificationPolls 20)
allowSystemOperations : Allowing user-supplied system call operations

// * * * * * * * * * * * * * * * * * * * * * * * * * * * * * * * * * * * * * //
Create time

--> FOAM Warning : 
    From void* Foam::dlLibraryTable::openLibrary(const Foam::fileName&, bool)
    in file db/dynamicLibrary/dlLibraryTable/dlLibraryTable.C at line 188
    Could not load "libpetscFoam.so"
libpetscFoam.so: cannot open shared object file: No such file or directory
Create mesh for time = 0


PISO: Operating solver in PISO mode

Reading transportProperties

Reading field p

Reading field U

Reading/calculating face flux field phi


Starting time loop

Time = 0.00025

Courant Number mean: 8.24341e-18 max: 2.08167e-14
[INFO] MatrixAssemblyU: 70.419 [ms]
DILUPBiCGStab:  Solving for Ux, Initial residual = 1, Final residual = 0.00994539, No Iterations 5
DILUPBiCGStab:  Solving for Uy:  solution singularity
DILUPBiCGStab:  Solving for Uz:  solution singularity
[INFO] MomentumPredictor: 276.941 [ms]
[INFO] MatrixAssemblyPI: 69.03 [ms]
[INFO] AdjustPhi: 6.429 [ms]
[INFO] ConstrainPressure: 0.01 [ms]
[INFO] MatrixAssemblyPII: 20.062 [ms]
DICPCG:  Solving for p, Initial residual = 1, Final residual = 9.63592e-05, No Iterations 607
[INFO] SolveP: 6968.22 [ms]
time step continuity errors : sum local = 7.39714e-09, global = 1.43009e-22, cumulative = 1.43009e-22
[INFO] ContinuityError: 7.858 [ms]
[INFO] CorrectBoundary: 0.587 [ms]
[INFO] PISOStep: 7097.83 [ms]
[INFO] MatrixAssemblyPI: 67.108 [ms]
[INFO] AdjustPhi: 4.24 [ms]
[INFO] ConstrainPressure: 0.004 [ms]
[INFO] MatrixAssemblyPII: 20.674 [ms]
DICPCG:  Solving for p, Initial residual = 0.786386, Final residual = 9.68947e-05, No Iterations 603
[INFO] SolveP: 6896.08 [ms]
time step continuity errors : sum local = 9.29787e-09, global = 2.3342e-21, cumulative = 2.47721e-21
[INFO] ContinuityError: 7.267 [ms]
[INFO] CorrectBoundary: 0.317 [ms]
[INFO] PISOStep: 7021.45 [ms]
[INFO] TimeStep: 14477 [ms]
ExecutionTime = 14.96 s  ClockTime = 15 s

Time = 0.0005

Courant Number mean: 0.0159459 max: 0.412549
[INFO] MatrixAssemblyU: 60.813 [ms]
DILUPBiCGStab:  Solving for Ux, Initial residual = 0.129572, Final residual = 0.0054987, No Iterations 5
DILUPBiCGStab:  Solving for Uy, Initial residual = 0.42697, Final residual = 0.0140636, No Iterations 5
DILUPBiCGStab:  Solving for Uz, Initial residual = 0.987082, Final residual = 0.0342333, No Iterations 5
[INFO] MomentumPredictor: 489.735 [ms]
[INFO] MatrixAssemblyPI: 67.397 [ms]
[INFO] AdjustPhi: 5.266 [ms]
[INFO] ConstrainPressure: 0.005 [ms]
[INFO] MatrixAssemblyPII: 20.045 [ms]
DICPCG:  Solving for p, Initial residual = 0.825168, Final residual = 9.49301e-05, No Iterations 598
[INFO] SolveP: 6803.66 [ms]
time step continuity errors : sum local = 1.3984e-08, global = -1.34352e-22, cumulative = 2.34285e-21
[INFO] ContinuityError: 7.42 [ms]
[INFO] CorrectBoundary: 0.307 [ms]
[INFO] PISOStep: 6929.5 [ms]
[INFO] MatrixAssemblyPI: 66.556 [ms]
[INFO] AdjustPhi: 4.084 [ms]
[INFO] ConstrainPressure: 0.004 [ms]
[INFO] MatrixAssemblyPII: 20.755 [ms]
DICPCG:  Solving for p, Initial residual = 0.768319, Final residual = 9.74688e-05, No Iterations 596
[INFO] SolveP: 6779.51 [ms]
time step continuity errors : sum local = 1.46166e-08, global = 9.29253e-22, cumulative = 3.27211e-21
[INFO] ContinuityError: 7.244 [ms]
[INFO] CorrectBoundary: 0.365 [ms]
[INFO] PISOStep: 6902.99 [ms]
[INFO] TimeStep: 14391.5 [ms]
ExecutionTime = 29.28 s  ClockTime = 29 s

Time = 0.00075

Courant Number mean: 0.0243291 max: 0.472009
[INFO] MatrixAssemblyU: 60.852 [ms]
DILUPBiCGStab:  Solving for Ux, Initial residual = 0.0547792, Final residual = 0.00187256, No Iterations 5
DILUPBiCGStab:  Solving for Uy, Initial residual = 0.182203, Final residual = 0.00762454, No Iterations 5
DILUPBiCGStab:  Solving for Uz, Initial residual = 0.811017, Final residual = 0.025284, No Iterations 5
[INFO] MomentumPredictor: 490.151 [ms]
[INFO] MatrixAssemblyPI: 66.69 [ms]
[INFO] AdjustPhi: 5.655 [ms]
[INFO] ConstrainPressure: 0.004 [ms]
[INFO] MatrixAssemblyPII: 19.753 [ms]
DICPCG:  Solving for p, Initial residual = 0.849312, Final residual = 9.94142e-05, No Iterations 284
[INFO] SolveP: 3216.74 [ms]
time step continuity errors : sum local = 1.45844e-08, global = 9.47949e-22, cumulative = 4.22006e-21
[INFO] ContinuityError: 6.646 [ms]
[INFO] CorrectBoundary: 0.282 [ms]
[INFO] PISOStep: 3341.4 [ms]
[INFO] MatrixAssemblyPI: 67.257 [ms]
[INFO] AdjustPhi: 3.605 [ms]
[INFO] ConstrainPressure: 0.004 [ms]
[INFO] MatrixAssemblyPII: 20.317 [ms]
DICPCG:  Solving for p, Initial residual = 0.815757, Final residual = 9.97085e-05, No Iterations 283
[INFO] SolveP: 3216.51 [ms]
time step continuity errors : sum local = 1.34736e-08, global = 5.83311e-22, cumulative = 4.80337e-21
[INFO] ContinuityError: 6.86 [ms]
[INFO] CorrectBoundary: 0.396 [ms]
[INFO] PISOStep: 3338.95 [ms]
[INFO] TimeStep: 7239.53 [ms]
ExecutionTime = 36.48 s  ClockTime = 36 s

Time = 0.001

Courant Number mean: 0.0291952 max: 0.467752
[INFO] MatrixAssemblyU: 61.47 [ms]
DILUPBiCGStab:  Solving for Ux, Initial residual = 0.0346711, Final residual = 0.00124034, No Iterations 5
DILUPBiCGStab:  Solving for Uy, Initial residual = 0.129195, Final residual = 0.00473643, No Iterations 5
DILUPBiCGStab:  Solving for Uz, Initial residual = 0.614115, Final residual = 0.015651, No Iterations 5
[INFO] MomentumPredictor: 487.357 [ms]
[INFO] MatrixAssemblyPI: 67.415 [ms]
[INFO] AdjustPhi: 4.499 [ms]
[INFO] ConstrainPressure: 0.004 [ms]
[INFO] MatrixAssemblyPII: 20.003 [ms]
DICPCG:  Solving for p, Initial residual = 0.770649, Final residual = 9.83219e-05, No Iterations 283
[INFO] SolveP: 3249.66 [ms]
time step continuity errors : sum local = 1.33841e-08, global = -3.62346e-21, cumulative = 1.1799e-21
[INFO] ContinuityError: 7.049 [ms]
[INFO] CorrectBoundary: 0.663 [ms]
[INFO] PISOStep: 3373.38 [ms]
[INFO] MatrixAssemblyPI: 66.589 [ms]
[INFO] AdjustPhi: 4.093 [ms]
[INFO] ConstrainPressure: 0.004 [ms]
[INFO] MatrixAssemblyPII: 20.127 [ms]
DICPCG:  Solving for p, Initial residual = 0.707987, Final residual = 9.58695e-05, No Iterations 281
[INFO] SolveP: 3220.43 [ms]
time step continuity errors : sum local = 1.22693e-08, global = -2.0811e-21, cumulative = -9.01194e-22
[INFO] ContinuityError: 8.304 [ms]
[INFO] CorrectBoundary: 0.275 [ms]
[INFO] PISOStep: 3344.27 [ms]
[INFO] TimeStep: 7274.54 [ms]
ExecutionTime = 43.73 s  ClockTime = 43 s

Time = 0.00125

Courant Number mean: 0.0333378 max: 0.472927
[INFO] MatrixAssemblyU: 60.365 [ms]
DILUPBiCGStab:  Solving for Ux, Initial residual = 0.0271817, Final residual = 0.000904812, No Iterations 5
DILUPBiCGStab:  Solving for Uy, Initial residual = 0.0813135, Final residual = 0.00355913, No Iterations 5
DILUPBiCGStab:  Solving for Uz, Initial residual = 0.472211, Final residual = 0.0130714, No Iterations 5
[INFO] MomentumPredictor: 486.928 [ms]
[INFO] MatrixAssemblyPI: 67.789 [ms]
[INFO] AdjustPhi: 4.21 [ms]
[INFO] ConstrainPressure: 0.004 [ms]
[INFO] MatrixAssemblyPII: 19.937 [ms]
DICPCG:  Solving for p, Initial residual = 0.776302, Final residual = 9.69358e-05, No Iterations 580
[INFO] SolveP: 6603.4 [ms]
time step continuity errors : sum local = 9.81362e-09, global = -1.21897e-21, cumulative = -2.12016e-21
[INFO] ContinuityError: 7.027 [ms]
[INFO] CorrectBoundary: 0.337 [ms]
[INFO] PISOStep: 6727.19 [ms]
[INFO] MatrixAssemblyPI: 65.594 [ms]
[INFO] AdjustPhi: 3.779 [ms]
[INFO] ConstrainPressure: 0.004 [ms]
[INFO] MatrixAssemblyPII: 19.925 [ms]
DICPCG:  Solving for p, Initial residual = 0.725211, Final residual = 9.68461e-05, No Iterations 579
[INFO] SolveP: 6604.29 [ms]
time step continuity errors : sum local = 9.6753e-09, global = -1.6353e-22, cumulative = -2.28369e-21
[INFO] ContinuityError: 9.109 [ms]
[INFO] CorrectBoundary: 0.29 [ms]
[INFO] PISOStep: 6727.73 [ms]
[INFO] TimeStep: 14010.3 [ms]
ExecutionTime = 57.67 s  ClockTime = 57 s

Time = 0.0015

Courant Number mean: 0.0366387 max: 0.475558
[INFO] MatrixAssemblyU: 61.693 [ms]
DILUPBiCGStab:  Solving for Ux, Initial residual = 0.0204369, Final residual = 0.000644476, No Iterations 5
DILUPBiCGStab:  Solving for Uy, Initial residual = 0.0659056, Final residual = 0.00245191, No Iterations 5
DILUPBiCGStab:  Solving for Uz, Initial residual = 0.342315, Final residual = 0.00889109, No Iterations 5
[INFO] MomentumPredictor: 487.377 [ms]
[INFO] MatrixAssemblyPI: 67.648 [ms]
[INFO] AdjustPhi: 4.479 [ms]
[INFO] ConstrainPressure: 0.004 [ms]
[INFO] MatrixAssemblyPII: 19.973 [ms]
DICPCG:  Solving for p, Initial residual = 0.683501, Final residual = 9.96484e-05, No Iterations 575
[INFO] SolveP: 6555.6 [ms]
time step continuity errors : sum local = 9.2862e-09, global = -1.82981e-21, cumulative = -4.1135e-21
[INFO] ContinuityError: 6.938 [ms]
[INFO] CorrectBoundary: 0.289 [ms]
[INFO] PISOStep: 6679.56 [ms]
[INFO] MatrixAssemblyPI: 65.513 [ms]
[INFO] AdjustPhi: 4.768 [ms]
[INFO] ConstrainPressure: 0.004 [ms]
[INFO] MatrixAssemblyPII: 20.047 [ms]
DICPCG:  Solving for p, Initial residual = 0.623008, Final residual = 9.81971e-05, No Iterations 574
[INFO] SolveP: 6511.68 [ms]
time step continuity errors : sum local = 9.18417e-09, global = -1.08489e-21, cumulative = -5.19839e-21
[INFO] ContinuityError: 8.219 [ms]
[INFO] CorrectBoundary: 0.382 [ms]
[INFO] PISOStep: 6634.75 [ms]
[INFO] TimeStep: 13871.7 [ms]
ExecutionTime = 71.48 s  ClockTime = 71 s

Time = 0.00175

Courant Number mean: 0.0395542 max: 0.477505
[INFO] MatrixAssemblyU: 62.206 [ms]
DILUPBiCGStab:  Solving for Ux, Initial residual = 0.0174574, Final residual = 0.000513819, No Iterations 5
DILUPBiCGStab:  Solving for Uy, Initial residual = 0.0490116, Final residual = 0.00179512, No Iterations 5
DILUPBiCGStab:  Solving for Uz, Initial residual = 0.259546, Final residual = 0.00751212, No Iterations 5
[INFO] MomentumPredictor: 482.845 [ms]
[INFO] MatrixAssemblyPI: 67.586 [ms]
[INFO] AdjustPhi: 4.616 [ms]
[INFO] ConstrainPressure: 0.004 [ms]
[INFO] MatrixAssemblyPII: 19.916 [ms]
DICPCG:  Solving for p, Initial residual = 0.679448, Final residual = 9.84461e-05, No Iterations 571
[INFO] SolveP: 6510.48 [ms]
time step continuity errors : sum local = 7.66502e-09, global = -2.24104e-21, cumulative = -7.43943e-21
[INFO] ContinuityError: 7.712 [ms]
[INFO] CorrectBoundary: 0.4 [ms]
[INFO] PISOStep: 6634.72 [ms]
[INFO] MatrixAssemblyPI: 66.853 [ms]
[INFO] AdjustPhi: 4.108 [ms]
[INFO] ConstrainPressure: 0.004 [ms]
[INFO] MatrixAssemblyPII: 19.885 [ms]
DICPCG:  Solving for p, Initial residual = 0.620235, Final residual = 9.69447e-05, No Iterations 281
[INFO] SolveP: 3176.65 [ms]
time step continuity errors : sum local = 9.10651e-09, global = -2.39717e-21, cumulative = -9.8366e-21
[INFO] ContinuityError: 7.239 [ms]
[INFO] CorrectBoundary: 0.479 [ms]
[INFO] PISOStep: 3299.51 [ms]
[INFO] TimeStep: 10487.3 [ms]
ExecutionTime = 81.91 s  ClockTime = 82 s

Time = 0.002

Courant Number mean: 0.042079 max: 0.479209
[INFO] MatrixAssemblyU: 60.498 [ms]
DILUPBiCGStab:  Solving for Ux, Initial residual = 0.0142697, Final residual = 0.000393574, No Iterations 5
DILUPBiCGStab:  Solving for Uy, Initial residual = 0.041941, Final residual = 0.00138952, No Iterations 5
DILUPBiCGStab:  Solving for Uz, Initial residual = 0.210508, Final residual = 0.00662807, No Iterations 5
[INFO] MomentumPredictor: 484.766 [ms]
[INFO] MatrixAssemblyPI: 67.537 [ms]
[INFO] AdjustPhi: 3.929 [ms]
[INFO] ConstrainPressure: 0.004 [ms]
[INFO] MatrixAssemblyPII: 20.12 [ms]
DICPCG:  Solving for p, Initial residual = 0.588453, Final residual = 9.82319e-05, No Iterations 579
[INFO] SolveP: 6578.83 [ms]
time step continuity errors : sum local = 7.27907e-09, global = -2.0257e-21, cumulative = -1.18623e-20
[INFO] ContinuityError: 7.04 [ms]
[INFO] CorrectBoundary: 0.327 [ms]
[INFO] PISOStep: 6701.84 [ms]
[INFO] MatrixAssemblyPI: 65.527 [ms]
[INFO] AdjustPhi: 4.478 [ms]
[INFO] ConstrainPressure: 0.004 [ms]
[INFO] MatrixAssemblyPII: 19.886 [ms]
DICPCG:  Solving for p, Initial residual = 0.531143, Final residual = 9.96529e-05, No Iterations 575
[INFO] SolveP: 6564.19 [ms]
time step continuity errors : sum local = 7.36918e-09, global = 4.37779e-22, cumulative = -1.14245e-20
[INFO] ContinuityError: 7.057 [ms]
[INFO] CorrectBoundary: 0.261 [ms]
[INFO] PISOStep: 6686.93 [ms]
[INFO] TimeStep: 13942.2 [ms]
ExecutionTime = 95.79 s  ClockTime = 96 s

Time = 0.00225

Courant Number mean: 0.0443654 max: 0.480354
[INFO] MatrixAssemblyU: 60.439 [ms]
DILUPBiCGStab:  Solving for Ux, Initial residual = 0.012601, Final residual = 0.000326222, No Iterations 5
DILUPBiCGStab:  Solving for Uy, Initial residual = 0.03373, Final residual = 0.000984785, No Iterations 5
DILUPBiCGStab:  Solving for Uz, Initial residual = 0.169963, Final residual = 0.00581412, No Iterations 5
[INFO] MomentumPredictor: 483.257 [ms]
[INFO] MatrixAssemblyPI: 68.446 [ms]
[INFO] AdjustPhi: 3.612 [ms]
[INFO] ConstrainPressure: 0.004 [ms]
[INFO] MatrixAssemblyPII: 20.371 [ms]
DICPCG:  Solving for p, Initial residual = 0.57578, Final residual = 9.69368e-05, No Iterations 569
[INFO] SolveP: 6561.57 [ms]
time step continuity errors : sum local = 6.22223e-09, global = -3.31107e-21, cumulative = -1.47356e-20
[INFO] ContinuityError: 7.605 [ms]
[INFO] CorrectBoundary: 0.383 [ms]
[INFO] PISOStep: 6685.86 [ms]
[INFO] MatrixAssemblyPI: 66.243 [ms]
[INFO] AdjustPhi: 5.084 [ms]
[INFO] ConstrainPressure: 0.004 [ms]
[INFO] MatrixAssemblyPII: 20.427 [ms]
DICPCG:  Solving for p, Initial residual = 0.51528, Final residual = 9.93481e-05, No Iterations 568
[INFO] SolveP: 6450.86 [ms]
time step continuity errors : sum local = 6.37594e-09, global = -4.40399e-22, cumulative = -1.5176e-20
[INFO] ContinuityError: 7.185 [ms]
[INFO] CorrectBoundary: 0.505 [ms]
[INFO] PISOStep: 6574.04 [ms]
[INFO] TimeStep: 13811.8 [ms]
ExecutionTime = 109.53 s  ClockTime = 110 s

Time = 0.0025

Courant Number mean: 0.0464194 max: 0.481463
[INFO] MatrixAssemblyU: 61.533 [ms]
DILUPBiCGStab:  Solving for Ux, Initial residual = 0.0108374, Final residual = 0.000262461, No Iterations 5
DILUPBiCGStab:  Solving for Uy, Initial residual = 0.0295381, Final residual = 0.000805724, No Iterations 5
DILUPBiCGStab:  Solving for Uz, Initial residual = 0.134647, Final residual = 0.00459049, No Iterations 5
[INFO] MomentumPredictor: 484.195 [ms]
[INFO] MatrixAssemblyPI: 67.241 [ms]
[INFO] AdjustPhi: 4.624 [ms]
[INFO] ConstrainPressure: 0.005 [ms]
[INFO] MatrixAssemblyPII: 19.98 [ms]
DICPCG:  Solving for p, Initial residual = 0.499281, Final residual = 9.78171e-05, No Iterations 570
[INFO] SolveP: 6458 [ms]
time step continuity errors : sum local = 6.09543e-09, global = -2.11076e-21, cumulative = -1.72868e-20
[INFO] ContinuityError: 7.15 [ms]
[INFO] CorrectBoundary: 0.441 [ms]
[INFO] PISOStep: 6581.44 [ms]
[INFO] MatrixAssemblyPI: 65.63 [ms]
[INFO] AdjustPhi: 3.707 [ms]
[INFO] ConstrainPressure: 0.004 [ms]
[INFO] MatrixAssemblyPII: 19.868 [ms]
DICPCG:  Solving for p, Initial residual = 0.446813, Final residual = 9.91746e-05, No Iterations 569
[INFO] SolveP: 6477.65 [ms]
time step continuity errors : sum local = 6.15469e-09, global = -6.96602e-22, cumulative = -1.79834e-20
[INFO] ContinuityError: 7.382 [ms]
[INFO] CorrectBoundary: 0.321 [ms]
[INFO] PISOStep: 6599.57 [ms]
[INFO] TimeStep: 13735.1 [ms]
ExecutionTime = 123.2 s  ClockTime = 123 s

Time = 0.00275

Courant Number mean: 0.0483075 max: 0.482233
[INFO] MatrixAssemblyU: 60.926 [ms]
DILUPBiCGStab:  Solving for Ux, Initial residual = 0.00970502, Final residual = 0.000220572, No Iterations 5
DILUPBiCGStab:  Solving for Uy, Initial residual = 0.0250057, Final residual = 0.000585404, No Iterations 5
DILUPBiCGStab:  Solving for Uz, Initial residual = 0.112698, Final residual = 0.0043653, No Iterations 5
[INFO] MomentumPredictor: 485.027 [ms]
[INFO] MatrixAssemblyPI: 67.783 [ms]
[INFO] AdjustPhi: 3.827 [ms]
[INFO] ConstrainPressure: 0.004 [ms]
[INFO] MatrixAssemblyPII: 19.917 [ms]
DICPCG:  Solving for p, Initial residual = 0.475182, Final residual = 9.80149e-05, No Iterations 567
[INFO] SolveP: 6445.6 [ms]
time step continuity errors : sum local = 5.51905e-09, global = -2.22967e-21, cumulative = -2.0213e-20
[INFO] ContinuityError: 7.887 [ms]
[INFO] CorrectBoundary: 0.34 [ms]
[INFO] PISOStep: 6569.96 [ms]
[INFO] MatrixAssemblyPI: 66.354 [ms]
[INFO] AdjustPhi: 4.884 [ms]
[INFO] ConstrainPressure: 0.003 [ms]
[INFO] MatrixAssemblyPII: 20.305 [ms]
DICPCG:  Solving for p, Initial residual = 0.421192, Final residual = 9.18609e-05, No Iterations 567
[INFO] SolveP: 6476.12 [ms]
time step continuity errors : sum local = 5.17846e-09, global = -5.05919e-22, cumulative = -2.07189e-20
[INFO] ContinuityError: 7.457 [ms]
[INFO] CorrectBoundary: 0.423 [ms]
[INFO] PISOStep: 6599.51 [ms]
[INFO] TimeStep: 13723.9 [ms]
ExecutionTime = 136.86 s  ClockTime = 137 s

Time = 0.003

Courant Number mean: 0.0500405 max: 0.483024
[INFO] MatrixAssemblyU: 60.492 [ms]
DILUPBiCGStab:  Solving for Ux, Initial residual = 0.00861333, Final residual = 0.00018401, No Iterations 5
DILUPBiCGStab:  Solving for Uy, Initial residual = 0.0223296, Final residual = 0.000483523, No Iterations 5
DILUPBiCGStab:  Solving for Uz, Initial residual = 0.0937308, Final residual = 0.00366314, No Iterations 5
[INFO] MomentumPredictor: 485.042 [ms]
[INFO] MatrixAssemblyPI: 67.486 [ms]
[INFO] AdjustPhi: 4.128 [ms]
[INFO] ConstrainPressure: 0.005 [ms]
[INFO] MatrixAssemblyPII: 19.905 [ms]
DICPCG:  Solving for p, Initial residual = 0.417897, Final residual = 9.66039e-05, No Iterations 563
[INFO] SolveP: 6371.2 [ms]
time step continuity errors : sum local = 5.28434e-09, global = -3.23394e-21, cumulative = -2.39529e-20
[INFO] ContinuityError: 7.549 [ms]
[INFO] CorrectBoundary: 0.314 [ms]
[INFO] PISOStep: 6495.06 [ms]
[INFO] MatrixAssemblyPI: 65.464 [ms]
[INFO] AdjustPhi: 5.552 [ms]
[INFO] ConstrainPressure: 0.004 [ms]
[INFO] MatrixAssemblyPII: 19.886 [ms]
DICPCG:  Solving for p, Initial residual = 0.371487, Final residual = 9.98887e-05, No Iterations 565
[INFO] SolveP: 6432.41 [ms]
time step continuity errors : sum local = 5.44045e-09, global = -4.38876e-21, cumulative = -2.83416e-20
[INFO] ContinuityError: 7.086 [ms]
[INFO] CorrectBoundary: 0.417 [ms]
[INFO] PISOStep: 6554.81 [ms]
[INFO] TimeStep: 13603.6 [ms]
ExecutionTime = 150.4 s  ClockTime = 151 s

Time = 0.00325

Courant Number mean: 0.0516504 max: 0.483587
[INFO] MatrixAssemblyU: 60.452 [ms]
DILUPBiCGStab:  Solving for Ux, Initial residual = 0.00781586, Final residual = 0.000157159, No Iterations 5
DILUPBiCGStab:  Solving for Uy, Initial residual = 0.0195486, Final residual = 0.000373974, No Iterations 5
DILUPBiCGStab:  Solving for Uz, Initial residual = 0.0805166, Final residual = 0.0034531, No Iterations 5
[INFO] MomentumPredictor: 483.595 [ms]
[INFO] MatrixAssemblyPI: 67.595 [ms]
[INFO] AdjustPhi: 4.141 [ms]
[INFO] ConstrainPressure: 0.004 [ms]
[INFO] MatrixAssemblyPII: 19.973 [ms]
DICPCG:  Solving for p, Initial residual = 0.387321, Final residual = 9.67081e-05, No Iterations 562
[INFO] SolveP: 6375.79 [ms]
time step continuity errors : sum local = 4.94294e-09, global = -4.07958e-22, cumulative = -2.87496e-20
[INFO] ContinuityError: 7.14 [ms]
[INFO] CorrectBoundary: 0.385 [ms]
[INFO] PISOStep: 6500.19 [ms]
[INFO] MatrixAssemblyPI: 65.974 [ms]
[INFO] AdjustPhi: 4.823 [ms]
[INFO] ConstrainPressure: 0.004 [ms]
[INFO] MatrixAssemblyPII: 19.914 [ms]
DICPCG:  Solving for p, Initial residual = 0.341305, Final residual = 9.95455e-05, No Iterations 559
[INFO] SolveP: 6314.95 [ms]
time step continuity errors : sum local = 5.0949e-09, global = -2.44593e-21, cumulative = -3.11955e-20
[INFO] ContinuityError: 7.1 [ms]
[INFO] CorrectBoundary: 0.358 [ms]
[INFO] PISOStep: 6437.44 [ms]
[INFO] TimeStep: 13489.6 [ms]
ExecutionTime = 163.83 s  ClockTime = 164 s

Time = 0.0035

Courant Number mean: 0.0531455 max: 0.484182
[INFO] MatrixAssemblyU: 60.303 [ms]
DILUPBiCGStab:  Solving for Ux, Initial residual = 0.00708176, Final residual = 0.000134898, No Iterations 5
DILUPBiCGStab:  Solving for Uy, Initial residual = 0.0177206, Final residual = 0.0003087, No Iterations 5
DILUPBiCGStab:  Solving for Uz, Initial residual = 0.0688878, Final residual = 0.00295666, No Iterations 5
[INFO] MomentumPredictor: 493.338 [ms]
[INFO] MatrixAssemblyPI: 67.683 [ms]
[INFO] AdjustPhi: 4.1 [ms]
[INFO] ConstrainPressure: 0.005 [ms]
[INFO] MatrixAssemblyPII: 20.013 [ms]
DICPCG:  Solving for p, Initial residual = 0.345392, Final residual = 9.64889e-05, No Iterations 565
[INFO] SolveP: 6479.15 [ms]
time step continuity errors : sum local = 4.77187e-09, global = -2.75463e-21, cumulative = -3.39502e-20
[INFO] ContinuityError: 7.644 [ms]
[INFO] CorrectBoundary: 0.339 [ms]
[INFO] PISOStep: 6602.75 [ms]
[INFO] MatrixAssemblyPI: 66.998 [ms]
[INFO] AdjustPhi: 3.883 [ms]
[INFO] ConstrainPressure: 0.005 [ms]
[INFO] MatrixAssemblyPII: 20.645 [ms]
DICPCG:  Solving for p, Initial residual = 0.305952, Final residual = 9.87008e-05, No Iterations 564
[INFO] SolveP: 6413.02 [ms]
time step continuity errors : sum local = 4.86243e-09, global = -5.05402e-21, cumulative = -3.90042e-20
[INFO] ContinuityError: 7.773 [ms]
[INFO] CorrectBoundary: 0.386 [ms]
[INFO] PISOStep: 6536.74 [ms]
[INFO] TimeStep: 13701.5 [ms]
ExecutionTime = 177.47 s  ClockTime = 178 s

Time = 0.00375

Courant Number mean: 0.0545471 max: 0.484622
[INFO] MatrixAssemblyU: 60.773 [ms]
DILUPBiCGStab:  Solving for Ux, Initial residual = 0.00649279, Final residual = 0.000116872, No Iterations 5
DILUPBiCGStab:  Solving for Uy, Initial residual = 0.0158788, Final residual = 0.000257826, No Iterations 5
DILUPBiCGStab:  Solving for Uz, Initial residual = 0.0597804, Final residual = 0.00271904, No Iterations 5
[INFO] MomentumPredictor: 489.017 [ms]
[INFO] MatrixAssemblyPI: 67.512 [ms]
[INFO] AdjustPhi: 4.041 [ms]
[INFO] ConstrainPressure: 0.004 [ms]
[INFO] MatrixAssemblyPII: 20.107 [ms]
DICPCG:  Solving for p, Initial residual = 0.312973, Final residual = 9.93958e-05, No Iterations 557
[INFO] SolveP: 6323.49 [ms]
time step continuity errors : sum local = 4.71524e-09, global = -4.55776e-21, cumulative = -4.35619e-20
[INFO] ContinuityError: 7.022 [ms]
[INFO] CorrectBoundary: 0.32 [ms]
[INFO] PISOStep: 6446.39 [ms]
[INFO] MatrixAssemblyPI: 65.832 [ms]
[INFO] AdjustPhi: 4.224 [ms]
[INFO] ConstrainPressure: 0.004 [ms]
[INFO] MatrixAssemblyPII: 20.001 [ms]
DICPCG:  Solving for p, Initial residual = 0.275113, Final residual = 9.88376e-05, No Iterations 256
[INFO] SolveP: 2943.76 [ms]
time step continuity errors : sum local = 5.53484e-09, global = -3.70908e-21, cumulative = -4.7271e-20
[INFO] ContinuityError: 6.816 [ms]
[INFO] CorrectBoundary: 0.737 [ms]
[INFO] PISOStep: 3065.12 [ms]
[INFO] TimeStep: 10069.8 [ms]
ExecutionTime = 187.49 s  ClockTime = 188 s

Time = 0.004

Courant Number mean: 0.0558602 max: 0.485085
[INFO] MatrixAssemblyU: 60.988 [ms]
DILUPBiCGStab:  Solving for Ux, Initial residual = 0.00596024, Final residual = 0.000102627, No Iterations 5
DILUPBiCGStab:  Solving for Uy, Initial residual = 0.0146366, Final residual = 0.00021718, No Iterations 5
DILUPBiCGStab:  Solving for Uz, Initial residual = 0.0547539, Final residual = 0.00250841, No Iterations 5
[INFO] MomentumPredictor: 484.408 [ms]
[INFO] MatrixAssemblyPI: 67.613 [ms]
[INFO] AdjustPhi: 4.348 [ms]
[INFO] ConstrainPressure: 0.004 [ms]
[INFO] MatrixAssemblyPII: 20.009 [ms]
DICPCG:  Solving for p, Initial residual = 0.282523, Final residual = 9.57169e-05, No Iterations 580
[INFO] SolveP: 6604.74 [ms]
time step continuity errors : sum local = 4.37806e-09, global = -1.68788e-21, cumulative = -4.89589e-20
[INFO] ContinuityError: 7.353 [ms]
[INFO] CorrectBoundary: 0.344 [ms]
[INFO] PISOStep: 6728.82 [ms]
[INFO] MatrixAssemblyPI: 66.359 [ms]
[INFO] AdjustPhi: 4.021 [ms]
[INFO] ConstrainPressure: 0.004 [ms]
[INFO] MatrixAssemblyPII: 20.187 [ms]
DICPCG:  Solving for p, Initial residual = 0.249461, Final residual = 9.74469e-05, No Iterations 579
[INFO] SolveP: 6612.17 [ms]
time step continuity errors : sum local = 4.44424e-09, global = -2.96802e-21, cumulative = -5.19269e-20
[INFO] ContinuityError: 7.17 [ms]
[INFO] CorrectBoundary: 0.307 [ms]
[INFO] PISOStep: 6734.23 [ms]
[INFO] TimeStep: 14016.7 [ms]
ExecutionTime = 201.43 s  ClockTime = 202 s

Time = 0.00425

Courant Number mean: 0.0570985 max: 0.485441
[INFO] MatrixAssemblyU: 60.673 [ms]
DILUPBiCGStab:  Solving for Ux, Initial residual = 0.00553173, Final residual = 9.01753e-05, No Iterations 5
DILUPBiCGStab:  Solving for Uy, Initial residual = 0.0133038, Final residual = 0.000193778, No Iterations 5
DILUPBiCGStab:  Solving for Uz, Initial residual = 0.0485122, Final residual = 0.00220837, No Iterations 5
[INFO] MomentumPredictor: 497.367 [ms]
[INFO] MatrixAssemblyPI: 68.973 [ms]
[INFO] AdjustPhi: 3.984 [ms]
[INFO] ConstrainPressure: 0.005 [ms]
[INFO] MatrixAssemblyPII: 20.001 [ms]
DICPCG:  Solving for p, Initial residual = 0.252417, Final residual = 9.94096e-05, No Iterations 559
[INFO] SolveP: 6325.11 [ms]
time step continuity errors : sum local = 4.44539e-09, global = -5.37645e-22, cumulative = -5.24646e-20
[INFO] ContinuityError: 7.57 [ms]
[INFO] CorrectBoundary: 0.368 [ms]
[INFO] PISOStep: 6450.02 [ms]
[INFO] MatrixAssemblyPI: 65.512 [ms]
[INFO] AdjustPhi: 4.459 [ms]
[INFO] ConstrainPressure: 0.005 [ms]
[INFO] MatrixAssemblyPII: 19.991 [ms]
DICPCG:  Solving for p, Initial residual = 0.221341, Final residual = 9.99605e-05, No Iterations 558
[INFO] SolveP: 6352.14 [ms]
time step continuity errors : sum local = 4.47435e-09, global = -4.51071e-21, cumulative = -5.69753e-20
[INFO] ContinuityError: 7.636 [ms]
[INFO] CorrectBoundary: 0.3 [ms]
[INFO] PISOStep: 6474.89 [ms]
[INFO] TimeStep: 13491.3 [ms]
ExecutionTime = 214.87 s  ClockTime = 215 s

Time = 0.0045

Courant Number mean: 0.0582669 max: 0.485813
[INFO] MatrixAssemblyU: 60.452 [ms]
DILUPBiCGStab:  Solving for Ux, Initial residual = 0.00513528, Final residual = 8.05139e-05, No Iterations 5
DILUPBiCGStab:  Solving for Uy, Initial residual = 0.0123183, Final residual = 0.000167124, No Iterations 5
DILUPBiCGStab:  Solving for Uz, Initial residual = 0.041909, Final residual = 0.00187315, No Iterations 5
[INFO] MomentumPredictor: 484.966 [ms]
[INFO] MatrixAssemblyPI: 67.542 [ms]
[INFO] AdjustPhi: 4.408 [ms]
[INFO] ConstrainPressure: 0.004 [ms]
[INFO] MatrixAssemblyPII: 19.931 [ms]
DICPCG:  Solving for p, Initial residual = 0.229258, Final residual = 9.74813e-05, No Iterations 561
[INFO] SolveP: 6361.5 [ms]
time step continuity errors : sum local = 4.20116e-09, global = -4.19679e-21, cumulative = -6.11721e-20
[INFO] ContinuityError: 6.962 [ms]
[INFO] CorrectBoundary: 0.454 [ms]
[INFO] PISOStep: 6485.11 [ms]
[INFO] MatrixAssemblyPI: 65.61 [ms]
[INFO] AdjustPhi: 4.011 [ms]
[INFO] ConstrainPressure: 0.005 [ms]
[INFO] MatrixAssemblyPII: 19.851 [ms]
DICPCG:  Solving for p, Initial residual = 0.201841, Final residual = 9.70242e-05, No Iterations 561
[INFO] SolveP: 6352.6 [ms]
time step continuity errors : sum local = 4.17208e-09, global = -4.68986e-21, cumulative = -6.58619e-20
[INFO] ContinuityError: 7.459 [ms]
[INFO] CorrectBoundary: 0.396 [ms]
[INFO] PISOStep: 6474.5 [ms]
[INFO] TimeStep: 13513.4 [ms]
ExecutionTime = 228.32 s  ClockTime = 229 s

Time = 0.00475

Courant Number mean: 0.0593737 max: 0.486111
[INFO] MatrixAssemblyU: 60.836 [ms]
DILUPBiCGStab:  Solving for Ux, Initial residual = 0.00477994, Final residual = 7.1353e-05, No Iterations 5
DILUPBiCGStab:  Solving for Uy, Initial residual = 0.0113548, Final residual = 0.00015437, No Iterations 5
DILUPBiCGStab:  Solving for Uz, Initial residual = 0.0373699, Final residual = 0.0016684, No Iterations 5
[INFO] MomentumPredictor: 483.981 [ms]
[INFO] MatrixAssemblyPI: 67.651 [ms]
[INFO] AdjustPhi: 4.172 [ms]
[INFO] ConstrainPressure: 0.004 [ms]
[INFO] MatrixAssemblyPII: 20.096 [ms]
DICPCG:  Solving for p, Initial residual = 0.203197, Final residual = 9.53575e-05, No Iterations 556
[INFO] SolveP: 6373.06 [ms]
time step continuity errors : sum local = 4.06692e-09, global = -6.11989e-22, cumulative = -6.64739e-20
[INFO] ContinuityError: 7.122 [ms]
[INFO] CorrectBoundary: 0.37 [ms]
[INFO] PISOStep: 6496.59 [ms]
[INFO] MatrixAssemblyPI: 65.494 [ms]
[INFO] AdjustPhi: 4.121 [ms]
[INFO] ConstrainPressure: 0.004 [ms]
[INFO] MatrixAssemblyPII: 19.917 [ms]
DICPCG:  Solving for p, Initial residual = 0.177866, Final residual = 9.59598e-05, No Iterations 555
[INFO] SolveP: 6308.19 [ms]
time step continuity errors : sum local = 4.09473e-09, global = -4.08156e-21, cumulative = -7.05555e-20
[INFO] ContinuityError: 7.894 [ms]
[INFO] CorrectBoundary: 0.428 [ms]
[INFO] PISOStep: 6431.1 [ms]
[INFO] TimeStep: 13480.7 [ms]
ExecutionTime = 241.73 s  ClockTime = 242 s

Time = 0.005

Courant Number mean: 0.0604236 max: 0.486416
[INFO] MatrixAssemblyU: 60.482 [ms]
DILUPBiCGStab:  Solving for Ux, Initial residual = 0.00447756, Final residual = 6.45768e-05, No Iterations 5
DILUPBiCGStab:  Solving for Uy, Initial residual = 0.0106035, Final residual = 0.000136065, No Iterations 5
DILUPBiCGStab:  Solving for Uz, Initial residual = 0.0335235, Final residual = 0.00144081, No Iterations 5
[INFO] MomentumPredictor: 484.846 [ms]
[INFO] MatrixAssemblyPI: 67.644 [ms]
[INFO] AdjustPhi: 4.481 [ms]
[INFO] ConstrainPressure: 0.004 [ms]
[INFO] MatrixAssemblyPII: 20.154 [ms]
DICPCG:  Solving for p, Initial residual = 0.184581, Final residual = 9.36253e-05, No Iterations 558
[INFO] SolveP: 6338.94 [ms]
time step continuity errors : sum local = 3.85718e-09, global = -3.05906e-21, cumulative = -7.36145e-20
[INFO] ContinuityError: 7.544 [ms]
[INFO] CorrectBoundary: 0.398 [ms]
[INFO] PISOStep: 6463.25 [ms]
[INFO] MatrixAssemblyPI: 65.666 [ms]
[INFO] AdjustPhi: 5.548 [ms]
[INFO] ConstrainPressure: 0.004 [ms]
[INFO] MatrixAssemblyPII: 19.916 [ms]
DICPCG:  Solving for p, Initial residual = 0.162142, Final residual = 9.83658e-05, No Iterations 557
[INFO] SolveP: 6311.75 [ms]
time step continuity errors : sum local = 4.04594e-09, global = -1.50922e-21, cumulative = -7.51238e-20
[INFO] ContinuityError: 7.366 [ms]
[INFO] CorrectBoundary: 0.386 [ms]
[INFO] PISOStep: 6434.94 [ms]
[INFO] TimeStep: 13451.9 [ms]
ExecutionTime = 255.12 s  ClockTime = 256 s

End

Finalising parallel run
