/*---------------------------------------------------------------------------*\
| =========                 |                                                 |
| \\      /  F ield         | OpenFOAM: The Open Source CFD Toolbox           |
|  \\    /   O peration     | Version:  2306                                  |
|   \\  /    A nd           | Website:  www.openfoam.com                      |
|    \\/     M anipulation  |                                                 |
\*---------------------------------------------------------------------------*/
Build  : c423ebec-20231012 OPENFOAM=2306 version=v2306
Arch   : "LSB;label=32;scalar=64"
Exec   : simpleFoam -parallel -case /hkfs/work/workspace/scratch/eq4036-windsorbody_setup/workspace/4bb812e11020630259919c2b528a8fdc/case
Date   : Feb 16 2024
Time   : 14:53:04
Host   : hkn0707.localdomain
PID    : 600764
I/O    : uncollated
Case   : /hkfs/work/workspace/scratch/eq4036-windsorbody_setup/workspace/4bb812e11020630259919c2b528a8fdc/case
nProcs : 16
Hosts  :
(
    (hkn0707.localdomain 8)
    (hkn0709.localdomain 8)
)
Pstream initialized with:
    floatTransfer      : false
    nProcsSimpleSum    : 0
    nonBlockingExchange: 0 (tuning: 0)
    exchange algorithm : -1
    commsType          : nonBlocking
    polling iterations : 0
trapFpe: Floating point exception trapping enabled (FOAM_SIGFPE).
fileModificationChecking : Monitoring run-time modified files using timeStampMaster (fileModificationSkew 5, maxFileModificationPolls 20)
allowSystemOperations : Allowing user-supplied system call operations

// * * * * * * * * * * * * * * * * * * * * * * * * * * * * * * * * * * * * * //
Create time

--> FOAM Warning : 
    From void* Foam::dlLibraryTable::openLibrary(const Foam::fileName&, bool)
    in file db/dynamicLibrary/dlLibraryTable/dlLibraryTable.C at line 188
    Could not load "libpetscFoam.so"
libpetscFoam.so: cannot open shared object file: No such file or directory
Create mesh for time = 0


SIMPLE: convergence criteria
    field p	 tolerance 1e-08
    field U	 tolerance 1e-08
    field k	 tolerance 1e-08
    field omega	 tolerance 1e-08
    field nuTilda	 tolerance 1e-08

Reading field p

Reading field U

Reading/calculating face flux field phi

Selecting incompressible transport model Newtonian
Selecting turbulence model type RAS
Selecting RAS turbulence model SpalartAllmaras
Selecting patchDistMethod meshWave
ft2 term: inactive
RAS
{
    RASModel        SpalartAllmaras;
    turbulence      on;
    printCoeffs     on;
    sigmaNut        0.66666;
    kappa           0.41;
    Cb1             0.1355;
    Cb2             0.622;
    Cw2             0.3;
    Cw3             2;
    Cv1             7.1;
    Cs              0.3;
    ck              0.07000000000000001;
    ft2             false;
    Ct3             1.2;
    Ct4             0.5;
}

No MRF models present

Creating finite volume options from "system/fvOptions"

Selecting finite volume options type velocityDampingConstraint
    Source: velocityDamping
    - selecting all cells
    - selected 50457088 cell(s) with volume 222.6066441268596

Starting time loop

--> FOAM Warning : 
    From bool Foam::functionObjectList::read()
    in file db/functionObjects/functionObjectList/functionObjectList.C at line 1035
    Reading "system/controlDict" at line 2 to 41
    Entry 'lref' is not a dictionary
--> FOAM Warning : 
    From bool Foam::functionObjectList::read()
    in file db/functionObjects/functionObjectList/functionObjectList.C at line 1035
    Reading "system/controlDict" at line 2 to 41
    Entry 'Aref' is not a dictionary
--> FOAM Warning : 
    From bool Foam::functionObjectList::read()
    in file db/functionObjects/functionObjectList/functionObjectList.C at line 1035
    Reading "system/controlDict" at line 2 to 41
    Entry 'yawAngle' is not a dictionary
--> FOAM Warning : 
    From bool Foam::functionObjectList::read()
    in file db/functionObjects/functionObjectList/functionObjectList.C at line 1035
    Reading "system/controlDict" at line 2 to 41
    Entry 'lDomain' is not a dictionary
--> FOAM Warning : 
    From bool Foam::functionObjectList::read()
    in file db/functionObjects/functionObjectList/functionObjectList.C at line 1035
    Reading "system/controlDict" at line 2 to 41
    Entry 'bDomain' is not a dictionary
--> FOAM Warning : 
    From bool Foam::functionObjectList::read()
    in file db/functionObjects/functionObjectList/functionObjectList.C at line 1035
    Reading "system/controlDict" at line 2 to 41
    Entry 'hDomain' is not a dictionary
--> FOAM Warning : 
    From bool Foam::functionObjectList::read()
    in file db/functionObjects/functionObjectList/functionObjectList.C at line 1035
    Reading "system/controlDict" at line 2 to 41
    Entry 'xCenter' is not a dictionary
--> FOAM Warning : 
    From bool Foam::functionObjectList::read()
    in file db/functionObjects/functionObjectList/functionObjectList.C at line 1035
    Reading "system/controlDict" at line 2 to 41
    Entry 'yCenter' is not a dictionary
--> FOAM Warning : 
    From bool Foam::functionObjectList::read()
    in file db/functionObjects/functionObjectList/functionObjectList.C at line 1035
    Reading "system/controlDict" at line 2 to 41
    Entry 'zCenter' is not a dictionary
--> FOAM Warning : 
    From bool Foam::functionObjectList::read()
    in file db/functionObjects/functionObjectList/functionObjectList.C at line 1035
    Reading "system/controlDict" at line 2 to 41
    Entry 'inletPatch' is not a dictionary
--> FOAM Warning : 
    From bool Foam::functionObjectList::read()
    in file db/functionObjects/functionObjectList/functionObjectList.C at line 1035
    Reading "system/controlDict" at line 2 to 41
    Entry 'outletPatch' is not a dictionary
--> FOAM Warning : 
    From bool Foam::functionObjectList::read()
    in file db/functionObjects/functionObjectList/functionObjectList.C at line 1035
    Reading "system/controlDict" at line 2 to 41
    Entry 'wallPatches' is not a dictionary
--> FOAM Warning : 
    From bool Foam::functionObjectList::read()
    in file db/functionObjects/functionObjectList/functionObjectList.C at line 1035
    Reading "system/controlDict" at line 2 to 41
    Entry 'forcesWallPatches' is not a dictionary
--> FOAM Warning : 
    From bool Foam::functionObjectList::read()
    in file db/functionObjects/functionObjectList/functionObjectList.C at line 1035
    Reading "system/controlDict" at line 2 to 41
    Entry 'symmPatches' is not a dictionary
--> FOAM Warning : 
    From bool Foam::functionObjectList::read()
    in file db/functionObjects/functionObjectList/functionObjectList.C at line 1035
    Reading "system/controlDict" at line 2 to 41
    Entry 'Uinf' is not a dictionary
--> FOAM Warning : 
    From bool Foam::functionObjectList::read()
    in file db/functionObjects/functionObjectList/functionObjectList.C at line 1035
    Reading "system/controlDict" at line 2 to 41
    Entry 'UinfMag' is not a dictionary
--> FOAM Warning : 
    From bool Foam::functionObjectList::read()
    in file db/functionObjects/functionObjectList/functionObjectList.C at line 1035
    Reading "system/controlDict" at line 2 to 41
    Entry 'nu' is not a dictionary
--> FOAM Warning : 
    From bool Foam::functionObjectList::read()
    in file db/functionObjects/functionObjectList/functionObjectList.C at line 1035
    Reading "system/controlDict" at line 2 to 41
    Entry 'pref' is not a dictionary
--> FOAM Warning : 
    From bool Foam::functionObjectList::read()
    in file db/functionObjects/functionObjectList/functionObjectList.C at line 1035
    Reading "system/controlDict" at line 2 to 41
    Entry 'viscRatio' is not a dictionary
--> FOAM Warning : 
    From bool Foam::functionObjectList::read()
    in file db/functionObjects/functionObjectList/functionObjectList.C at line 1035
    Reading "system/controlDict" at line 2 to 41
    Entry 'Tu' is not a dictionary
--> FOAM Warning : 
    From bool Foam::functionObjectList::read()
    in file db/functionObjects/functionObjectList/functionObjectList.C at line 1035
    Reading "system/controlDict" at line 2 to 41
    Entry 'LESturbModel' is not a dictionary
--> FOAM Warning : 
    From bool Foam::functionObjectList::read()
    in file db/functionObjects/functionObjectList/functionObjectList.C at line 1035
    Reading "system/controlDict" at line 2 to 41
    Entry 'RASturbModel' is not a dictionary
--> FOAM Warning : 
    From bool Foam::functionObjectList::read()
    in file db/functionObjects/functionObjectList/functionObjectList.C at line 1035
    Reading "system/controlDict" at line 2 to 41
    Entry 'deltaTurb' is not a dictionary
--> FOAM Warning : 
    From bool Foam::functionObjectList::read()
    in file db/functionObjects/functionObjectList/functionObjectList.C at line 1035
    Reading "system/controlDict" at line 2 to 41
    Entry 'dt' is not a dictionary
--> FOAM Warning : 
    From bool Foam::functionObjectList::read()
    in file db/functionObjects/functionObjectList/functionObjectList.C at line 1035
    Reading "system/controlDict" at line 2 to 41
    Entry 'tAvg' is not a dictionary
--> FOAM Warning : 
    From bool Foam::functionObjectList::read()
    in file db/functionObjects/functionObjectList/functionObjectList.C at line 1035
    Reading "system/controlDict" at line 2 to 41
    Entry 'tEnd' is not a dictionary
--> FOAM Warning : 
    From bool Foam::functionObjectList::read()
    in file db/functionObjects/functionObjectList/functionObjectList.C at line 1035
    Reading "system/controlDict" at line 2 to 41
    Entry 'writeInterval_' is not a dictionary
--> FOAM Warning : 
    From bool Foam::functionObjectList::read()
    in file db/functionObjects/functionObjectList/functionObjectList.C at line 1035
    Reading "system/controlDict" at line 2 to 41
    Entry 'nCores' is not a dictionary
--> FOAM Warning : 
    From bool Foam::functionObjectList::read()
    in file db/functionObjects/functionObjectList/functionObjectList.C at line 1035
    Reading "system/controlDict" at line 2 to 41
    Entry 'interpScheme' is not a dictionary
--> FOAM Warning : 
    From bool Foam::functionObjectList::read()
    in file db/functionObjects/functionObjectList/functionObjectList.C at line 1035
    Reading "system/controlDict" at line 2 to 41
    Entry 'probeField' is not a dictionary
wallShearStress wallShearStress:
    processing wall patches: 
        Windsor_Body
        CFDWT_Floor
        Windsor_Pins
        Windsor_Base
        Windsor_Body_2
        CFDWT_Floor_2
        Windsor_Pins_2
        Windsor_Base_2
        Windsor_Body_3
        CFDWT_Floor_3
        Windsor_Pins_3
        Windsor_Base_3
        Windsor_Body_4
        CFDWT_Floor_4
        Windsor_Pins_4
        Windsor_Base_4
        Windsor_Body_5
        CFDWT_Floor_5
        Windsor_Pins_5
        Windsor_Base_5
        Windsor_Body_6
        CFDWT_Floor_6
        Windsor_Pins_6
        Windsor_Base_6
        Windsor_Body_7
        CFDWT_Floor_7
        Windsor_Pins_7
        Windsor_Base_7
        Windsor_Body_8
        CFDWT_Floor_8
        Windsor_Pins_8
        Windsor_Base_8

pressure calc_cp:
    Operating mode: staticCoeff
    Not including hydrostatic effects

forceCoeffs forceCoeffsAll:
    rho: rhoInf
    Freestream density (rhoInf) set to 1
    Not including porosity effects
    magUInf: 40
    lRef   : 0.6375
    Aref   : 0.1124
    rhoInf : 1
    Selecting all coefficients
    - Drag force: Cd
    - Drag force front: Cd(f)
    - Drag force rear: Cd(r)
    - Lift force: Cl
    - Lift force front: Cl(f)
    - Lift force rear: Cl(r)
    - Pitch moment: CmPitch
    - Roll moment: CmRoll
    - Yaw moment: CmYaw
    - Side force: Cs
    - Side force front: Cs(f)
    - Side force rear: Cs(r)


forceCoeffs dragCoeffBase:
    rho: rhoInf
    Freestream density (rhoInf) set to 1
    Not including porosity effects
    magUInf: 40
    lRef   : 0.6375
    Aref   : 0.1124
    rhoInf : 1
    Selecting coefficients:
    - Drag force: Cd


Time = 1

velocityDampingConstraint velocityDamping damped 0 (0%) of cells, with max limit 300
smoothSolver:  Solving for Ux, Initial residual = 0.999999999999069, Final residual = 0.08528990586388517, No Iterations 3
smoothSolver:  Solving for Uy, Initial residual = 1, Final residual = 0.06553297001815435, No Iterations 6
smoothSolver:  Solving for Uz, Initial residual = 1, Final residual = 0.01751052955542146, No Iterations 2
[OGL LOG][lduLduBase.H:119] Initialising OGL
	OGL commit:  e75313f+
	Branch: dev 
	Build type: Debug
	Ginkgo version: 1.8.0 ( develop)
	Ginkgo commit: sparse-communicator
	MPI is GPU aware: 1
	Forces host buffer based communication: 0
	CPU ranks per GPU: 1
	Matrix format: Coo
	End OGL_INFO
[OGL LOG][Proc: 0]: global_index_init: 0.063 [ms]
[OGL LOG][Proc: 0]p_local_cols: call_init: 1.158 [ms]
[OGL LOG][Proc: 0]p_local_rows: call_init: 0.594 [ms]
[OGL LOG][Proc: 0]p_local_ldu_map: call_init: 0.443 [ms]
[OGL LOG][Proc: 0]p_local_coeffs: call_init: 4.304 [ms]
[OGL LOG][Proc: 0]p_non_local_cols: call_init: 0.332 [ms]
[OGL LOG][Proc: 0]p_non_local_rows: call_init: 0.341 [ms]
[OGL LOG][Proc: 0]p_non_local_ldu_map: call_init: 8.162000000000001 [ms]
[OGL LOG][Proc: 0]p_non_local_coeffs: call_init: 0.622 [ms]
[OGL LOG][Proc: 0]p: init_local_sparsity_pattern: 144031.972 [ms]
[OGL LOG][Proc: 0]p: init_non_local_sparsity_pattern: 26328.056 [ms]
[OGL LOG][Proc: 0]p: update_local_matrix_data: 163.184 [ms]
[OGL LOG][Proc: 0]p: update_non_local_matrix_data: 2.242 [ms]
[OGL LOG][Proc: 0]device_partition: call_init: 0.335 [ms]
[OGL LOG][Proc: 0]p_matrix: call_init: 351.08 [ms]
[OGL LOG][Proc: 0]p_rhs: call_init: 6.418 [ms]
[OGL LOG][Proc: 0]p_solution: call_init: 4.921 [ms]
[OGL LOG][Preconditioner.H:346] Generate preconditioner Multigrid MaxLevels 9 MinCoarseRows 10 ZeroGuess 1 Cycle v
[OGL LOG][Proc: 0]p: init_precond: 945.277 [ms]
[OGL LOG][StoppingCriterion.H:239] Creating stopping criterion with minIter 0 frequency 1
[OGL LOG][Proc: 0]p: generate_solver: 0.034 [ms]
[OGL LOG][Proc: 0]p: solve: 3228.499 [ms]
[OGL LOG][Proc: 0]p: copy_x_back: 15.988 [ms]
[OGL LOG][lduLduBase.H:330] 
Statistics:
	Time per iteration: 25027 [mu s]
	Time per residual norm calculation: 1319.000000 [mu s]
	Time per iteration and DOF: 0.496006 [ns]
	Retrieve results bandwidth 1.881000 [GByte/s]
[OGL LOG][Proc: 0]p: solve_multi_gpu: 4815.67 [ms]
MultigridcudaGKOCG:  Solving for p, Initial residual = 1.000000000000713, Final residual = 0.009958551405375637, No Iterations 129
time step continuity errors : sum local = 0.003619148161763799, global = 0.0001000464075580009, cumulative = 0.0001000464075580009
smoothSolver:  Solving for nuTilda, Initial residual = 0.9999999954645097, Final residual = 0.05256115053107119, No Iterations 3
ExecutionTime = 233.66 s  ClockTime = 235 s

--> FOAM Warning : 
    From virtual bool Foam::functionObjects::fieldSelection::checkSelection()
    in file functionObjects/fieldSelections/fieldSelection/fieldSelection.C at line 166
    Field k not found
--> FOAM Warning : 
    From virtual bool Foam::functionObjects::fieldSelection::checkSelection()
    in file functionObjects/fieldSelections/fieldSelection/fieldSelection.C at line 166
    Field gammaInt not found
--> FOAM Warning : 
    From virtual bool Foam::functionObjects::fieldSelection::checkSelection()
    in file functionObjects/fieldSelections/fieldSelection/fieldSelection.C at line 166
    Field omega not found
--> FOAM Warning : 
    From virtual bool Foam::functionObjects::fieldSelection::checkSelection()
    in file functionObjects/fieldSelections/fieldSelection/fieldSelection.C at line 166
    Field ReThetat not found
--> FOAM Warning : 
    From virtual bool Foam::functionObjects::fieldSelection::checkSelection()
    in file functionObjects/fieldSelections/fieldSelection/fieldSelection.C at line 166
    Field epsilon not found
--> FOAM Warning : 
    From virtual bool Foam::functionObjects::solverFieldSelection::updateSelection()
    in file functionObjects/fieldSelections/solverFieldSelection/solverFieldSelection.C at line 85
    Valid solver fields are: 3(U nuTilda p)Time = 2

velocityDampingConstraint velocityDamping damped 0 (0%) of cells, with max limit 300
smoothSolver:  Solving for Ux, Initial residual = 0.4348538628260581, Final residual = 0.02789498486732426, No Iterations 5
smoothSolver:  Solving for Uy, Initial residual = 0.5803796849090259, Final residual = 0.03750615000022047, No Iterations 5
smoothSolver:  Solving for Uz, Initial residual = 0.5439321030126576, Final residual = 0.05439082519191642, No Iterations 4
[OGL LOG][Proc: 0]: global_index_init: 0.018 [ms]
[OGL LOG][Proc: 0]p_local_coeffs: call_update: 0.002 [ms]
[OGL LOG][Proc: 0]p_non_local_coeffs: call_update: 0 [ms]
[OGL LOG][Proc: 0]p: update_local_matrix_data: 153.435 [ms]
[OGL LOG][Proc: 0]p: update_non_local_matrix_data: 2.164 [ms]
[OGL LOG][Proc: 0]p_matrix: call_update: 4.841 [ms]
[OGL LOG][Proc: 0]p_rhs: call_update: 9.241 [ms]
[OGL LOG][Preconditioner.H:346] Generate preconditioner Multigrid MaxLevels 9 MinCoarseRows 10 ZeroGuess 1 Cycle v
[OGL LOG][Proc: 0]p: init_precond: 858.771 [ms]
[OGL LOG][StoppingCriterion.H:239] Creating stopping criterion with minIter 77 frequency 1
[OGL LOG][Proc: 0]p: generate_solver: 0.008999999999999999 [ms]
[OGL LOG][Proc: 0]p: solve: 1968.925 [ms]
[OGL LOG][Proc: 0]p: copy_x_back: 11.507 [ms]
[OGL LOG][lduLduBase.H:330] 
Statistics:
	Time per iteration: 25242 [mu s]
	Time per residual norm calculation: 1316.000000 [mu s]
	Time per iteration and DOF: 0.500267 [ns]
	Retrieve results bandwidth 2.614000 [GByte/s]
[OGL LOG][Proc: 0]p: solve_multi_gpu: 2909.617 [ms]
MultigridcudaGKOCG:  Solving for p, Initial residual = 0.4312800948806363, Final residual = 0.003240192715979901, No Iterations 78
time step continuity errors : sum local = 0.0706429614214362, global = 0.01348401166940127, cumulative = 0.01358405807695927
smoothSolver:  Solving for nuTilda, Initial residual = 0.2988539750985222, Final residual = 0.0199495387958766, No Iterations 2
ExecutionTime = 253.9 s  ClockTime = 255 s

Time = 3

velocityDampingConstraint velocityDamping damped 36774 (0.07000000000000001%) of cells, with max limit 300
smoothSolver:  Solving for Ux, Initial residual = 0.291400163769398, Final residual = 0.01835239255212777, No Iterations 2
smoothSolver:  Solving for Uy, Initial residual = 0.2825226075682406, Final residual = 0.02601682401372032, No Iterations 4
smoothSolver:  Solving for Uz, Initial residual = 0.2582936666244171, Final residual = 0.0225434491274617, No Iterations 4
[OGL LOG][Proc: 0]: global_index_init: 0.02 [ms]
[OGL LOG][Proc: 0]p_local_coeffs: call_update: 0 [ms]
[OGL LOG][Proc: 0]p_non_local_coeffs: call_update: 0 [ms]
[OGL LOG][Proc: 0]p: update_local_matrix_data: 154.639 [ms]
[OGL LOG][Proc: 0]p: update_non_local_matrix_data: 2.171 [ms]
[OGL LOG][Proc: 0]p_matrix: call_update: 4.569 [ms]
[OGL LOG][Proc: 0]p_rhs: call_update: 9.458 [ms]
[OGL LOG][Preconditioner.H:346] Generate preconditioner Multigrid MaxLevels 9 MinCoarseRows 10 ZeroGuess 1 Cycle v
[OGL LOG][Proc: 0]p: init_precond: 846.434 [ms]
[OGL LOG][StoppingCriterion.H:239] Creating stopping criterion with minIter 46 frequency 1
[OGL LOG][Proc: 0]p: generate_solver: 0.008999999999999999 [ms]
[OGL LOG][Proc: 0]p: solve: 2560.992 [ms]
[OGL LOG][Proc: 0]p: copy_x_back: 11.662 [ms]
[OGL LOG][lduLduBase.H:330] 
Statistics:
	Time per iteration: 24864 [mu s]
	Time per residual norm calculation: 1310.000000 [mu s]
	Time per iteration and DOF: 0.492775 [ns]
	Retrieve results bandwidth 2.579000 [GByte/s]
[OGL LOG][Proc: 0]p: solve_multi_gpu: 3487.313 [ms]
MultigridcudaGKOCG:  Solving for p, Initial residual = 0.3685715034665076, Final residual = 0.003390684296425609, No Iterations 103
time step continuity errors : sum local = 0.01984995619883919, global = 0.0002510368498227035, cumulative = 0.01383509492678198
smoothSolver:  Solving for nuTilda, Initial residual = 0.3315490800555986, Final residual = 0.02757111988613389, No Iterations 1
ExecutionTime = 274.21 s  ClockTime = 275 s

Time = 4

velocityDampingConstraint velocityDamping damped 409 (0%) of cells, with max limit 300
smoothSolver:  Solving for Ux, Initial residual = 0.0366829546973597, Final residual = 0.002925963009360082, No Iterations 4
smoothSolver:  Solving for Uy, Initial residual = 0.05354821131913728, Final residual = 0.004652339922002814, No Iterations 4
smoothSolver:  Solving for Uz, Initial residual = 0.05004578937566459, Final residual = 0.004451201841389556, No Iterations 4
[OGL LOG][Proc: 0]: global_index_init: 0.021 [ms]
[OGL LOG][Proc: 0]p_local_coeffs: call_update: 0 [ms]
[OGL LOG][Proc: 0]p_non_local_coeffs: call_update: 0 [ms]
[OGL LOG][Proc: 0]p: update_local_matrix_data: 152.883 [ms]
[OGL LOG][Proc: 0]p: update_non_local_matrix_data: 2.18 [ms]
[OGL LOG][Proc: 0]p_matrix: call_update: 4.788 [ms]
[OGL LOG][Proc: 0]p_rhs: call_update: 8.805999999999999 [ms]
[OGL LOG][Preconditioner.H:346] Generate preconditioner Multigrid MaxLevels 9 MinCoarseRows 10 ZeroGuess 1 Cycle v
[OGL LOG][Proc: 0]p: init_precond: 878.298 [ms]
[OGL LOG][StoppingCriterion.H:239] Creating stopping criterion with minIter 61 frequency 1
[OGL LOG][Proc: 0]p: generate_solver: 0.008999999999999999 [ms]
[OGL LOG][Proc: 0]p: solve: 1533.377 [ms]
[OGL LOG][Proc: 0]p: copy_x_back: 11.456 [ms]
[OGL LOG][lduLduBase.H:330] 
Statistics:
	Time per iteration: 24731 [mu s]
	Time per residual norm calculation: 1456.000000 [mu s]
	Time per iteration and DOF: 0.490139 [ns]
	Retrieve results bandwidth 2.625000 [GByte/s]
[OGL LOG][Proc: 0]p: solve_multi_gpu: 2492.54 [ms]
MultigridcudaGKOCG:  Solving for p, Initial residual = 0.4992982901094124, Final residual = 0.002267869386389763, No Iterations 62
time step continuity errors : sum local = 0.02075921954582579, global = -0.003238361573592838, cumulative = 0.01059673335318914
smoothSolver:  Solving for nuTilda, Initial residual = 0.1525694172127234, Final residual = 0.006653476805977599, No Iterations 3
ExecutionTime = 293.85 s  ClockTime = 295 s

Time = 5

velocityDampingConstraint velocityDamping damped 10976 (0.02%) of cells, with max limit 300
smoothSolver:  Solving for Ux, Initial residual = 0.1843809012123507, Final residual = 0.01568993604786451, No Iterations 3
smoothSolver:  Solving for Uy, Initial residual = 0.2613215818376151, Final residual = 0.02120520112011608, No Iterations 4
smoothSolver:  Solving for Uz, Initial residual = 0.2207908661673985, Final residual = 0.0169809434765313, No Iterations 4
[OGL LOG][Proc: 0]: global_index_init: 0.021 [ms]
[OGL LOG][Proc: 0]p_local_coeffs: call_update: 0 [ms]
[OGL LOG][Proc: 0]p_non_local_coeffs: call_update: 0 [ms]
[OGL LOG][Proc: 0]p: update_local_matrix_data: 153.866 [ms]
[OGL LOG][Proc: 0]p: update_non_local_matrix_data: 2.174 [ms]
[OGL LOG][Proc: 0]p_matrix: call_update: 5.045 [ms]
[OGL LOG][Proc: 0]p_rhs: call_update: 9.127000000000001 [ms]
[OGL LOG][Preconditioner.H:346] Generate preconditioner Multigrid MaxLevels 9 MinCoarseRows 10 ZeroGuess 1 Cycle v
[OGL LOG][Proc: 0]p: init_precond: 881.457 [ms]
[OGL LOG][StoppingCriterion.H:239] Creating stopping criterion with minIter 37 frequency 1
[OGL LOG][Proc: 0]p: generate_solver: 0.008999999999999999 [ms]
[OGL LOG][Proc: 0]p: solve: 2377.939 [ms]
[OGL LOG][Proc: 0]p: copy_x_back: 15.578 [ms]
[OGL LOG][lduLduBase.H:330] 
Statistics:
	Time per iteration: 24264 [mu s]
	Time per residual norm calculation: 1314.000000 [mu s]
	Time per iteration and DOF: 0.480884 [ns]
	Retrieve results bandwidth 1.931000 [GByte/s]
[OGL LOG][Proc: 0]p: solve_multi_gpu: 3343.89 [ms]
MultigridcudaGKOCG:  Solving for p, Initial residual = 0.3584893626699004, Final residual = 0.00326703887074353, No Iterations 98
time step continuity errors : sum local = 0.02714648092820523, global = -0.0004802210612264956, cumulative = 0.01011651229196264
smoothSolver:  Solving for nuTilda, Initial residual = 0.1178820811673292, Final residual = 0.0104061516208328, No Iterations 2
ExecutionTime = 314.26 s  ClockTime = 316 s

Time = 6

velocityDampingConstraint velocityDamping damped 899 (0%) of cells, with max limit 300
smoothSolver:  Solving for Ux, Initial residual = 0.1367229723689001, Final residual = 0.01276770975598699, No Iterations 4
smoothSolver:  Solving for Uy, Initial residual = 0.2515774372428838, Final residual = 0.0251002572455431, No Iterations 4
smoothSolver:  Solving for Uz, Initial residual = 0.2045642556136541, Final residual = 0.01955690381505285, No Iterations 4
[OGL LOG][Proc: 0]: global_index_init: 0.019 [ms]
[OGL LOG][Proc: 0]p_local_coeffs: call_update: 0 [ms]
[OGL LOG][Proc: 0]p_non_local_coeffs: call_update: 0 [ms]
[OGL LOG][Proc: 0]p: update_local_matrix_data: 154.484 [ms]
[OGL LOG][Proc: 0]p: update_non_local_matrix_data: 2.118 [ms]
[OGL LOG][Proc: 0]p_matrix: call_update: 4.905 [ms]
[OGL LOG][Proc: 0]p_rhs: call_update: 9.342000000000001 [ms]
[OGL LOG][Preconditioner.H:346] Generate preconditioner Multigrid MaxLevels 9 MinCoarseRows 10 ZeroGuess 1 Cycle v
[OGL LOG][Proc: 0]p: init_precond: 847.809 [ms]
[OGL LOG][StoppingCriterion.H:239] Creating stopping criterion with minIter 58 frequency 1
[OGL LOG][Proc: 0]p: generate_solver: 0.008999999999999999 [ms]
[OGL LOG][Proc: 0]p: solve: 2578.677 [ms]
[OGL LOG][Proc: 0]p: copy_x_back: 11.577 [ms]
[OGL LOG][lduLduBase.H:330] 
Statistics:
	Time per iteration: 26584 [mu s]
	Time per residual norm calculation: 1308.000000 [mu s]
	Time per iteration and DOF: 0.526864 [ns]
	Retrieve results bandwidth 2.598000 [GByte/s]
[OGL LOG][Proc: 0]p: solve_multi_gpu: 3506.778 [ms]
MultigridcudaGKOCG:  Solving for p, Initial residual = 0.377984370600819, Final residual = 0.003588036417631141, No Iterations 97
time step continuity errors : sum local = 0.02765568856001652, global = -0.0008101326292749255, cumulative = 0.009306379662687717
smoothSolver:  Solving for nuTilda, Initial residual = 0.07907574539122902, Final residual = 0.00494402156888144, No Iterations 3
ExecutionTime = 334.87 s  ClockTime = 336 s

Time = 7

velocityDampingConstraint velocityDamping damped 3593 (0.01%) of cells, with max limit 300
smoothSolver:  Solving for Ux, Initial residual = 0.09787633239843696, Final residual = 0.006073555358675928, No Iterations 4
smoothSolver:  Solving for Uy, Initial residual = 0.1073338657121422, Final residual = 0.008044100421457786, No Iterations 4
smoothSolver:  Solving for Uz, Initial residual = 0.1025559775407521, Final residual = 0.007676850849900623, No Iterations 4
[OGL LOG][Proc: 0]: global_index_init: 0.673 [ms]
[OGL LOG][Proc: 0]p_local_coeffs: call_update: 0 [ms]
[OGL LOG][Proc: 0]p_non_local_coeffs: call_update: 0 [ms]
[OGL LOG][Proc: 0]p: update_local_matrix_data: 152.923 [ms]
[OGL LOG][Proc: 0]p: update_non_local_matrix_data: 2.14 [ms]
[OGL LOG][Proc: 0]p_matrix: call_update: 4.863 [ms]
[OGL LOG][Proc: 0]p_rhs: call_update: 4.015 [ms]
[OGL LOG][Preconditioner.H:346] Generate preconditioner Multigrid MaxLevels 9 MinCoarseRows 10 ZeroGuess 1 Cycle v
[OGL LOG][Proc: 0]p: init_precond: 855.009 [ms]
[OGL LOG][StoppingCriterion.H:239] Creating stopping criterion with minIter 58 frequency 1
[OGL LOG][Proc: 0]p: generate_solver: 0.008999999999999999 [ms]
[OGL LOG][Proc: 0]p: solve: 1992.029 [ms]
[OGL LOG][Proc: 0]p: copy_x_back: 15.979 [ms]
[OGL LOG][lduLduBase.H:330] 
Statistics:
	Time per iteration: 24900 [mu s]
	Time per residual norm calculation: 1309.000000 [mu s]
	Time per iteration and DOF: 0.493489 [ns]
	Retrieve results bandwidth 1.882000 [GByte/s]
[OGL LOG][Proc: 0]p: solve_multi_gpu: 2922.483 [ms]
MultigridcudaGKOCG:  Solving for p, Initial residual = 0.3815983549720142, Final residual = 0.003717921092943744, No Iterations 80
time step continuity errors : sum local = 0.02003033387604621, global = 0.00143972070327743, cumulative = 0.01074610036596515
smoothSolver:  Solving for nuTilda, Initial residual = 0.06375272203732509, Final residual = 0.003967092949050065, No Iterations 3
ExecutionTime = 354.87 s  ClockTime = 356 s

Time = 8

velocityDampingConstraint velocityDamping damped 3856 (0.01%) of cells, with max limit 300
smoothSolver:  Solving for Ux, Initial residual = 0.1249679104436696, Final residual = 0.009635606347512302, No Iterations 4
smoothSolver:  Solving for Uy, Initial residual = 0.1775544311123911, Final residual = 0.01566943469096022, No Iterations 4
smoothSolver:  Solving for Uz, Initial residual = 0.1707821046767962, Final residual = 0.01496368725284605, No Iterations 4
[OGL LOG][Proc: 0]: global_index_init: 0.023 [ms]
[OGL LOG][Proc: 0]p_local_coeffs: call_update: 0 [ms]
[OGL LOG][Proc: 0]p_non_local_coeffs: call_update: 0 [ms]
[OGL LOG][Proc: 0]p: update_local_matrix_data: 154.936 [ms]
[OGL LOG][Proc: 0]p: update_non_local_matrix_data: 2.11 [ms]
[OGL LOG][Proc: 0]p_matrix: call_update: 5.014 [ms]
[OGL LOG][Proc: 0]p_rhs: call_update: 8.704000000000001 [ms]
[OGL LOG][Preconditioner.H:346] Generate preconditioner Multigrid MaxLevels 9 MinCoarseRows 10 ZeroGuess 1 Cycle v
[OGL LOG][Proc: 0]p: init_precond: 849.785 [ms]
[OGL LOG][StoppingCriterion.H:239] Creating stopping criterion with minIter 48 frequency 1
[OGL LOG][Proc: 0]p: generate_solver: 0.008999999999999999 [ms]
[OGL LOG][Proc: 0]p: solve: 2409.998 [ms]
[OGL LOG][Proc: 0]p: copy_x_back: 11.616 [ms]
[OGL LOG][lduLduBase.H:330] 
Statistics:
	Time per iteration: 24591 [mu s]
	Time per residual norm calculation: 1308.000000 [mu s]
	Time per iteration and DOF: 0.487365 [ns]
	Retrieve results bandwidth 2.589000 [GByte/s]
[OGL LOG][Proc: 0]p: solve_multi_gpu: 3338.314 [ms]
MultigridcudaGKOCG:  Solving for p, Initial residual = 0.2815784818395541, Final residual = 0.002606180135400108, No Iterations 98
time step continuity errors : sum local = 0.01813093731790219, global = 0.0002972544785907254, cumulative = 0.01104335484455587
smoothSolver:  Solving for nuTilda, Initial residual = 0.04902756110395413, Final residual = 0.003797379399178828, No Iterations 3
ExecutionTime = 375.5 s  ClockTime = 377 s

Time = 9

velocityDampingConstraint velocityDamping damped 165 (0%) of cells, with max limit 300
smoothSolver:  Solving for Ux, Initial residual = 0.0708966447198241, Final residual = 0.005902904693859095, No Iterations 4
smoothSolver:  Solving for Uy, Initial residual = 0.1106641550984823, Final residual = 0.01030164413228059, No Iterations 4
smoothSolver:  Solving for Uz, Initial residual = 0.1039758208798738, Final residual = 0.009420149793673012, No Iterations 4
[OGL LOG][Proc: 0]: global_index_init: 0.024 [ms]
[OGL LOG][Proc: 0]p_local_coeffs: call_update: 0 [ms]
[OGL LOG][Proc: 0]p_non_local_coeffs: call_update: 0 [ms]
[OGL LOG][Proc: 0]p: update_local_matrix_data: 163.501 [ms]
[OGL LOG][Proc: 0]p: update_non_local_matrix_data: 2.133 [ms]
[OGL LOG][Proc: 0]p_matrix: call_update: 7.648 [ms]
[OGL LOG][Proc: 0]p_rhs: call_update: 9.039 [ms]
[OGL LOG][Preconditioner.H:346] Generate preconditioner Multigrid MaxLevels 9 MinCoarseRows 10 ZeroGuess 1 Cycle v
[OGL LOG][Proc: 0]p: init_precond: 1011.801 [ms]
[OGL LOG][StoppingCriterion.H:239] Creating stopping criterion with minIter 58 frequency 1
[OGL LOG][Proc: 0]p: generate_solver: 0.01 [ms]
[OGL LOG][Proc: 0]p: solve: 1592.43 [ms]
[OGL LOG][Proc: 0]p: copy_x_back: 15.58 [ms]
[OGL LOG][lduLduBase.H:330] 
Statistics:
	Time per iteration: 25276 [mu s]
	Time per residual norm calculation: 1142.000000 [mu s]
	Time per iteration and DOF: 0.500941 [ns]
	Retrieve results bandwidth 1.930000 [GByte/s]
[OGL LOG][Proc: 0]p: solve_multi_gpu: 2680.189 [ms]
MultigridcudaGKOCG:  Solving for p, Initial residual = 0.3196123455776766, Final residual = 0.003183106707910082, No Iterations 63
time step continuity errors : sum local = 0.02095530940936956, global = 0.003539388201094759, cumulative = 0.01458274304565063
smoothSolver:  Solving for nuTilda, Initial residual = 0.04227471688846471, Final residual = 0.003177201580384341, No Iterations 3
ExecutionTime = 395.22 s  ClockTime = 397 s

Time = 10

velocityDampingConstraint velocityDamping damped 345 (0%) of cells, with max limit 300
smoothSolver:  Solving for Ux, Initial residual = 0.02884303220881768, Final residual = 0.002066422338331601, No Iterations 4
smoothSolver:  Solving for Uy, Initial residual = 0.06060967795986894, Final residual = 0.004497288302135495, No Iterations 4
smoothSolver:  Solving for Uz, Initial residual = 0.05964763460695958, Final residual = 0.00454707097104862, No Iterations 4
[OGL LOG][Proc: 0]: global_index_init: 0.02 [ms]
[OGL LOG][Proc: 0]p_local_coeffs: call_update: 0 [ms]
[OGL LOG][Proc: 0]p_non_local_coeffs: call_update: 0 [ms]
[OGL LOG][Proc: 0]p: update_local_matrix_data: 153.209 [ms]
[OGL LOG][Proc: 0]p: update_non_local_matrix_data: 2.212 [ms]
[OGL LOG][Proc: 0]p_matrix: call_update: 4.944 [ms]
[OGL LOG][Proc: 0]p_rhs: call_update: 9.039 [ms]
[OGL LOG][Preconditioner.H:346] Generate preconditioner Multigrid MaxLevels 9 MinCoarseRows 10 ZeroGuess 1 Cycle v
[OGL LOG][Proc: 0]p: init_precond: 918.953 [ms]
[OGL LOG][StoppingCriterion.H:239] Creating stopping criterion with minIter 37 frequency 1
[OGL LOG][Proc: 0]p: generate_solver: 0.008999999999999999 [ms]
[OGL LOG][Proc: 0]p: solve: 999.3819999999999 [ms]
[OGL LOG][Proc: 0]p: copy_x_back: 11.303 [ms]
[OGL LOG][lduLduBase.H:330] 
Statistics:
	Time per iteration: 26299 [mu s]
	Time per residual norm calculation: 1311.000000 [mu s]
	Time per iteration and DOF: 0.521215 [ns]
	Retrieve results bandwidth 2.661000 [GByte/s]
[OGL LOG][Proc: 0]p: solve_multi_gpu: 1998.528 [ms]
MultigridcudaGKOCG:  Solving for p, Initial residual = 0.3734185349154812, Final residual = 0.002829385981482111, No Iterations 38
time step continuity errors : sum local = 0.01336238497439441, global = 0.0008623366626461913, cumulative = 0.01544507970829682
smoothSolver:  Solving for nuTilda, Initial residual = 0.03547994798392357, Final residual = 0.002974675463099163, No Iterations 3
ExecutionTime = 414.29 s  ClockTime = 416 s

Time = 11

velocityDampingConstraint velocityDamping damped 1462 (0%) of cells, with max limit 300
smoothSolver:  Solving for Ux, Initial residual = 0.04096853658056977, Final residual = 0.003197255674377083, No Iterations 4
smoothSolver:  Solving for Uy, Initial residual = 0.1047644046720472, Final residual = 0.008997944452273003, No Iterations 4
smoothSolver:  Solving for Uz, Initial residual = 0.09834284778996726, Final residual = 0.008520756001710877, No Iterations 4
[OGL LOG][Proc: 0]: global_index_init: 0.269 [ms]
[OGL LOG][Proc: 0]p_local_coeffs: call_update: 0 [ms]
[OGL LOG][Proc: 0]p_non_local_coeffs: call_update: 0 [ms]
[OGL LOG][Proc: 0]p: update_local_matrix_data: 153.839 [ms]
[OGL LOG][Proc: 0]p: update_non_local_matrix_data: 2.149 [ms]
[OGL LOG][Proc: 0]p_matrix: call_update: 5.083 [ms]
[OGL LOG][Proc: 0]p_rhs: call_update: 8.779999999999999 [ms]
[OGL LOG][Preconditioner.H:346] Generate preconditioner Multigrid MaxLevels 9 MinCoarseRows 10 ZeroGuess 1 Cycle v
[OGL LOG][Proc: 0]p: init_precond: 879.487 [ms]
[OGL LOG][StoppingCriterion.H:239] Creating stopping criterion with minIter 22 frequency 1
[OGL LOG][Proc: 0]p: generate_solver: 0.01 [ms]
[OGL LOG][Proc: 0]p: solve: 2347.556 [ms]
[OGL LOG][Proc: 0]p: copy_x_back: 15.652 [ms]
[OGL LOG][lduLduBase.H:330] 
Statistics:
	Time per iteration: 24453 [mu s]
	Time per residual norm calculation: 1290.000000 [mu s]
	Time per iteration and DOF: 0.484630 [ns]
	Retrieve results bandwidth 1.921000 [GByte/s]
[OGL LOG][Proc: 0]p: solve_multi_gpu: 3308.85 [ms]
MultigridcudaGKOCG:  Solving for p, Initial residual = 0.3875323252443134, Final residual = 0.003594570879402973, No Iterations 96
time step continuity errors : sum local = 0.01568032815659644, global = -0.0002826331340898993, cumulative = 0.01516244657420692
smoothSolver:  Solving for nuTilda, Initial residual = 0.03222197690006429, Final residual = 0.002586072243693522, No Iterations 3
ExecutionTime = 434.49 s  ClockTime = 436 s

Time = 12

velocityDampingConstraint velocityDamping damped 122 (0%) of cells, with max limit 300
smoothSolver:  Solving for Ux, Initial residual = 0.03965693397114771, Final residual = 0.003433138997577526, No Iterations 4
smoothSolver:  Solving for Uy, Initial residual = 0.08238983130263051, Final residual = 0.007210356555237933, No Iterations 4
smoothSolver:  Solving for Uz, Initial residual = 0.08046539511690205, Final residual = 0.006821290599748799, No Iterations 4
[OGL LOG][Proc: 0]: global_index_init: 0.021 [ms]
[OGL LOG][Proc: 0]p_local_coeffs: call_update: 0 [ms]
[OGL LOG][Proc: 0]p_non_local_coeffs: call_update: 0 [ms]
[OGL LOG][Proc: 0]p: update_local_matrix_data: 152.699 [ms]
[OGL LOG][Proc: 0]p: update_non_local_matrix_data: 2.21 [ms]
[OGL LOG][Proc: 0]p_matrix: call_update: 4.81 [ms]
[OGL LOG][Proc: 0]p_rhs: call_update: 8.972 [ms]
[OGL LOG][Preconditioner.H:346] Generate preconditioner Multigrid MaxLevels 9 MinCoarseRows 10 ZeroGuess 1 Cycle v
[OGL LOG][Proc: 0]p: init_precond: 1036.393 [ms]
[OGL LOG][StoppingCriterion.H:239] Creating stopping criterion with minIter 57 frequency 1
[OGL LOG][Proc: 0]p: generate_solver: 0.008999999999999999 [ms]
[OGL LOG][Proc: 0]p: solve: 2375.38 [ms]
[OGL LOG][Proc: 0]p: copy_x_back: 11.459 [ms]
[OGL LOG][lduLduBase.H:330] 
Statistics:
	Time per iteration: 25819 [mu s]
	Time per residual norm calculation: 1313.000000 [mu s]
	Time per iteration and DOF: 0.511702 [ns]
	Retrieve results bandwidth 2.625000 [GByte/s]
[OGL LOG][Proc: 0]p: solve_multi_gpu: 3493.229 [ms]
MultigridcudaGKOCG:  Solving for p, Initial residual = 0.4370794113120487, Final residual = 0.004224085323911002, No Iterations 92
time step continuity errors : sum local = 0.01478223895684511, global = -0.0006969223339401999, cumulative = 0.01446552424026672
smoothSolver:  Solving for nuTilda, Initial residual = 0.02867032059052615, Final residual = 0.002527425594186918, No Iterations 3
ExecutionTime = 454.81 s  ClockTime = 457 s

Time = 13

velocityDampingConstraint velocityDamping damped 122 (0%) of cells, with max limit 300
smoothSolver:  Solving for Ux, Initial residual = 0.0298931124485907, Final residual = 0.002400684204108339, No Iterations 4
smoothSolver:  Solving for Uy, Initial residual = 0.05855861732699761, Final residual = 0.004692519261056889, No Iterations 4
smoothSolver:  Solving for Uz, Initial residual = 0.06025507312369884, Final residual = 0.004680708589246489, No Iterations 4
[OGL LOG][Proc: 0]: global_index_init: 0.549 [ms]
[OGL LOG][Proc: 0]p_local_coeffs: call_update: 0 [ms]
[OGL LOG][Proc: 0]p_non_local_coeffs: call_update: 0 [ms]
[OGL LOG][Proc: 0]p: update_local_matrix_data: 154.216 [ms]
[OGL LOG][Proc: 0]p: update_non_local_matrix_data: 2.138 [ms]
[OGL LOG][Proc: 0]p_matrix: call_update: 4.883 [ms]
[OGL LOG][Proc: 0]p_rhs: call_update: 8.855 [ms]
[OGL LOG][Preconditioner.H:346] Generate preconditioner Multigrid MaxLevels 9 MinCoarseRows 10 ZeroGuess 1 Cycle v
[OGL LOG][Proc: 0]p: init_precond: 871.268 [ms]
[OGL LOG][StoppingCriterion.H:239] Creating stopping criterion with minIter 55 frequency 1
[OGL LOG][Proc: 0]p: generate_solver: 0.01 [ms]
[OGL LOG][Proc: 0]p: solve: 1380.451 [ms]
[OGL LOG][Proc: 0]p: copy_x_back: 11.869 [ms]
[OGL LOG][lduLduBase.H:330] 
Statistics:
	Time per iteration: 24650 [mu s]
	Time per residual norm calculation: 1316.000000 [mu s]
	Time per iteration and DOF: 0.488534 [ns]
	Retrieve results bandwidth 2.534000 [GByte/s]
[OGL LOG][Proc: 0]p: solve_multi_gpu: 2329.933 [ms]
MultigridcudaGKOCG:  Solving for p, Initial residual = 0.4542006617405016, Final residual = 0.003000190163387586, No Iterations 56
time step continuity errors : sum local = 0.009168693514481496, global = 0.002145502954087848, cumulative = 0.01661102719435457
smoothSolver:  Solving for nuTilda, Initial residual = 0.02778598712202563, Final residual = 0.00234265112528658, No Iterations 3
ExecutionTime = 474.24 s  ClockTime = 476 s

Time = 14

velocityDampingConstraint velocityDamping damped 376 (0%) of cells, with max limit 300
smoothSolver:  Solving for Ux, Initial residual = 0.03771849203138657, Final residual = 0.002988105086039588, No Iterations 4
smoothSolver:  Solving for Uy, Initial residual = 0.07058633652297619, Final residual = 0.006185456819535482, No Iterations 4
smoothSolver:  Solving for Uz, Initial residual = 0.0675730276345589, Final residual = 0.005869329433159691, No Iterations 4
[OGL LOG][Proc: 0]: global_index_init: 0.031 [ms]
[OGL LOG][Proc: 0]p_local_coeffs: call_update: 0 [ms]
[OGL LOG][Proc: 0]p_non_local_coeffs: call_update: 0 [ms]
[OGL LOG][Proc: 0]p: update_local_matrix_data: 153.914 [ms]
[OGL LOG][Proc: 0]p: update_non_local_matrix_data: 2.196 [ms]
[OGL LOG][Proc: 0]p_matrix: call_update: 5.045 [ms]
[OGL LOG][Proc: 0]p_rhs: call_update: 8.987 [ms]
[OGL LOG][Preconditioner.H:346] Generate preconditioner Multigrid MaxLevels 9 MinCoarseRows 10 ZeroGuess 1 Cycle v
[OGL LOG][Proc: 0]p: init_precond: 840.848 [ms]
[OGL LOG][StoppingCriterion.H:239] Creating stopping criterion with minIter 33 frequency 1
[OGL LOG][Proc: 0]p: generate_solver: 0.008999999999999999 [ms]
[OGL LOG][Proc: 0]p: solve: 2310.034 [ms]
[OGL LOG][Proc: 0]p: copy_x_back: 11.495 [ms]
[OGL LOG][lduLduBase.H:330] 
Statistics:
	Time per iteration: 24574 [mu s]
	Time per residual norm calculation: 1309.000000 [mu s]
	Time per iteration and DOF: 0.487028 [ns]
	Retrieve results bandwidth 2.616000 [GByte/s]
[OGL LOG][Proc: 0]p: solve_multi_gpu: 3230.517 [ms]
MultigridcudaGKOCG:  Solving for p, Initial residual = 0.4304777471277538, Final residual = 0.004283285410006941, No Iterations 94
time step continuity errors : sum local = 0.01117026486748971, global = 0.0002160461673094787, cumulative = 0.01682707336166405
smoothSolver:  Solving for nuTilda, Initial residual = 0.02584772625543964, Final residual = 0.002367803638677684, No Iterations 3
ExecutionTime = 494.39 s  ClockTime = 497 s

Time = 15

velocityDampingConstraint velocityDamping damped 76 (0%) of cells, with max limit 300
smoothSolver:  Solving for Ux, Initial residual = 0.02772563651578502, Final residual = 0.002296387239525714, No Iterations 4
smoothSolver:  Solving for Uy, Initial residual = 0.0491260046648383, Final residual = 0.004205279785694125, No Iterations 4
smoothSolver:  Solving for Uz, Initial residual = 0.0478154356922569, Final residual = 0.004019119891932963, No Iterations 4
[OGL LOG][Proc: 0]: global_index_init: 0.019 [ms]
[OGL LOG][Proc: 0]p_local_coeffs: call_update: 0 [ms]
[OGL LOG][Proc: 0]p_non_local_coeffs: call_update: 0 [ms]
[OGL LOG][Proc: 0]p: update_local_matrix_data: 153.729 [ms]
[OGL LOG][Proc: 0]p: update_non_local_matrix_data: 2.126 [ms]
[OGL LOG][Proc: 0]p_matrix: call_update: 4.495 [ms]
[OGL LOG][Proc: 0]p_rhs: call_update: 8.07 [ms]
[OGL LOG][Preconditioner.H:346] Generate preconditioner Multigrid MaxLevels 9 MinCoarseRows 10 ZeroGuess 1 Cycle v
[OGL LOG][Proc: 0]p: init_precond: 990.506 [ms]
[OGL LOG][StoppingCriterion.H:239] Creating stopping criterion with minIter 56 frequency 1
[OGL LOG][Proc: 0]p: generate_solver: 0.008999999999999999 [ms]
[OGL LOG][Proc: 0]p: solve: 1580.655 [ms]
[OGL LOG][Proc: 0]p: copy_x_back: 11.436 [ms]
[OGL LOG][lduLduBase.H:330] 
Statistics:
	Time per iteration: 27730 [mu s]
	Time per residual norm calculation: 1309.000000 [mu s]
	Time per iteration and DOF: 0.549576 [ns]
	Retrieve results bandwidth 2.630000 [GByte/s]
[OGL LOG][Proc: 0]p: solve_multi_gpu: 2646.54 [ms]
MultigridcudaGKOCG:  Solving for p, Initial residual = 0.2597457806289454, Final residual = 0.00210213353656186, No Iterations 57
time step continuity errors : sum local = 0.008148286404780259, global = 0.001099997718794349, cumulative = 0.0179270710804584
smoothSolver:  Solving for nuTilda, Initial residual = 0.0257875351673088, Final residual = 0.002212679992582368, No Iterations 3
ExecutionTime = 513.55 s  ClockTime = 516 s

Time = 16

velocityDampingConstraint velocityDamping damped 4 (0%) of cells, with max limit 300
smoothSolver:  Solving for Ux, Initial residual = 0.01828918324168161, Final residual = 0.001364673212121863, No Iterations 4
smoothSolver:  Solving for Uy, Initial residual = 0.03816429597502499, Final residual = 0.002876115601317094, No Iterations 4
smoothSolver:  Solving for Uz, Initial residual = 0.04232826582502419, Final residual = 0.003303146090175731, No Iterations 4
[OGL LOG][Proc: 0]: global_index_init: 0.143 [ms]
[OGL LOG][Proc: 0]p_local_coeffs: call_update: 0 [ms]
[OGL LOG][Proc: 0]p_non_local_coeffs: call_update: 0 [ms]
[OGL LOG][Proc: 0]p: update_local_matrix_data: 151.069 [ms]
[OGL LOG][Proc: 0]p: update_non_local_matrix_data: 2.158 [ms]
[OGL LOG][Proc: 0]p_matrix: call_update: 4.85 [ms]
[OGL LOG][Proc: 0]p_rhs: call_update: 9.159000000000001 [ms]
[OGL LOG][Preconditioner.H:346] Generate preconditioner Multigrid MaxLevels 9 MinCoarseRows 10 ZeroGuess 1 Cycle v
[OGL LOG][Proc: 0]p: init_precond: 844.807 [ms]
[OGL LOG][StoppingCriterion.H:239] Creating stopping criterion with minIter 34 frequency 1
[OGL LOG][Proc: 0]p: generate_solver: 0.008999999999999999 [ms]
[OGL LOG][Proc: 0]p: solve: 949.353 [ms]
[OGL LOG][Proc: 0]p: copy_x_back: 11.562 [ms]
[OGL LOG][lduLduBase.H:330] 
Statistics:
	Time per iteration: 27124 [mu s]
	Time per residual norm calculation: 1311.000000 [mu s]
	Time per iteration and DOF: 0.537566 [ns]
	Retrieve results bandwidth 2.601000 [GByte/s]
[OGL LOG][Proc: 0]p: solve_multi_gpu: 1876.742 [ms]
MultigridcudaGKOCG:  Solving for p, Initial residual = 0.3868598785187747, Final residual = 0.003406813808962233, No Iterations 35
time step continuity errors : sum local = 0.00895730502223189, global = -0.001374355443596376, cumulative = 0.01655271563686202
smoothSolver:  Solving for nuTilda, Initial residual = 0.02366437901190881, Final residual = 0.00223224691461768, No Iterations 3
ExecutionTime = 532.33 s  ClockTime = 535 s

Time = 17

velocityDampingConstraint velocityDamping damped 30 (0%) of cells, with max limit 300
smoothSolver:  Solving for Ux, Initial residual = 0.01756404160287548, Final residual = 0.001207261503922783, No Iterations 4
smoothSolver:  Solving for Uy, Initial residual = 0.04460850849810083, Final residual = 0.003629399449189858, No Iterations 4
smoothSolver:  Solving for Uz, Initial residual = 0.04628622883724072, Final residual = 0.003847832915466187, No Iterations 4
[OGL LOG][Proc: 0]: global_index_init: 0.028 [ms]
[OGL LOG][Proc: 0]p_local_coeffs: call_update: 0 [ms]
[OGL LOG][Proc: 0]p_non_local_coeffs: call_update: 0 [ms]
[OGL LOG][Proc: 0]p: update_local_matrix_data: 152.831 [ms]
[OGL LOG][Proc: 0]p: update_non_local_matrix_data: 2.2 [ms]
[OGL LOG][Proc: 0]p_matrix: call_update: 4.565 [ms]
[OGL LOG][Proc: 0]p_rhs: call_update: 7.765 [ms]
[OGL LOG][Preconditioner.H:346] Generate preconditioner Multigrid MaxLevels 9 MinCoarseRows 10 ZeroGuess 1 Cycle v
[OGL LOG][Proc: 0]p: init_precond: 859.004 [ms]
[OGL LOG][StoppingCriterion.H:239] Creating stopping criterion with minIter 21 frequency 1
[OGL LOG][Proc: 0]p: generate_solver: 0.01 [ms]
[OGL LOG][Proc: 0]p: solve: 2237.93 [ms]
[OGL LOG][Proc: 0]p: copy_x_back: 11.861 [ms]
[OGL LOG][lduLduBase.H:330] 
Statistics:
	Time per iteration: 24325 [mu s]
	Time per residual norm calculation: 1305.000000 [mu s]
	Time per iteration and DOF: 0.482093 [ns]
	Retrieve results bandwidth 2.536000 [GByte/s]
[OGL LOG][Proc: 0]p: solve_multi_gpu: 3172.242 [ms]
MultigridcudaGKOCG:  Solving for p, Initial residual = 0.3558473980128549, Final residual = 0.003434605151833737, No Iterations 92
time step continuity errors : sum local = 0.008648998722947264, global = -0.0001836373246788657, cumulative = 0.01636907831218316
smoothSolver:  Solving for nuTilda, Initial residual = 0.02478694898591329, Final residual = 0.002075815978293204, No Iterations 3
ExecutionTime = 552.3 s  ClockTime = 555 s

Time = 18

velocityDampingConstraint velocityDamping damped 96 (0%) of cells, with max limit 300
smoothSolver:  Solving for Ux, Initial residual = 0.01478105890505595, Final residual = 0.001244744132420481, No Iterations 4
smoothSolver:  Solving for Uy, Initial residual = 0.03728538306875959, Final residual = 0.003059031829646571, No Iterations 4
smoothSolver:  Solving for Uz, Initial residual = 0.03806047542617236, Final residual = 0.003102439828291852, No Iterations 4
[OGL LOG][Proc: 0]: global_index_init: 0.4 [ms]
[OGL LOG][Proc: 0]p_local_coeffs: call_update: 0 [ms]
[OGL LOG][Proc: 0]p_non_local_coeffs: call_update: 0 [ms]
[OGL LOG][Proc: 0]p: update_local_matrix_data: 155.343 [ms]
[OGL LOG][Proc: 0]p: update_non_local_matrix_data: 2.216 [ms]
[OGL LOG][Proc: 0]p_matrix: call_update: 4.903 [ms]
[OGL LOG][Proc: 0]p_rhs: call_update: 9.135 [ms]
[OGL LOG][Preconditioner.H:346] Generate preconditioner Multigrid MaxLevels 9 MinCoarseRows 10 ZeroGuess 1 Cycle v
[OGL LOG][Proc: 0]p: init_precond: 848.237 [ms]
[OGL LOG][StoppingCriterion.H:239] Creating stopping criterion with minIter 55 frequency 1
[OGL LOG][Proc: 0]p: generate_solver: 0.008999999999999999 [ms]
[OGL LOG][Proc: 0]p: solve: 1378.295 [ms]
[OGL LOG][Proc: 0]p: copy_x_back: 11.236 [ms]
[OGL LOG][lduLduBase.H:330] 
Statistics:
	Time per iteration: 24612 [mu s]
	Time per residual norm calculation: 1462.000000 [mu s]
	Time per iteration and DOF: 0.487781 [ns]
	Retrieve results bandwidth 2.677000 [GByte/s]
[OGL LOG][Proc: 0]p: solve_multi_gpu: 2300.66 [ms]
MultigridcudaGKOCG:  Solving for p, Initial residual = 0.2975713782358907, Final residual = 0.002020210485425723, No Iterations 56
time step continuity errors : sum local = 0.005260594204513979, global = -0.0007014475052830961, cumulative = 0.01566763080690006
smoothSolver:  Solving for nuTilda, Initial residual = 0.02208028775991306, Final residual = 0.002116407190641692, No Iterations 3
ExecutionTime = 571.45 s  ClockTime = 574 s

Time = 19

velocityDampingConstraint velocityDamping damped 3 (0%) of cells, with max limit 300
smoothSolver:  Solving for Ux, Initial residual = 0.01506675676039596, Final residual = 0.001312690766829723, No Iterations 4
smoothSolver:  Solving for Uy, Initial residual = 0.03535309091352145, Final residual = 0.002987824781988424, No Iterations 4
smoothSolver:  Solving for Uz, Initial residual = 0.03533161459055198, Final residual = 0.002934063515654778, No Iterations 4
[OGL LOG][Proc: 0]: global_index_init: 0.025 [ms]
[OGL LOG][Proc: 0]p_local_coeffs: call_update: 0 [ms]
[OGL LOG][Proc: 0]p_non_local_coeffs: call_update: 0 [ms]
[OGL LOG][Proc: 0]p: update_local_matrix_data: 153.427 [ms]
[OGL LOG][Proc: 0]p: update_non_local_matrix_data: 2.204 [ms]
[OGL LOG][Proc: 0]p_matrix: call_update: 4.41 [ms]
[OGL LOG][Proc: 0]p_rhs: call_update: 8.619999999999999 [ms]
[OGL LOG][Preconditioner.H:346] Generate preconditioner Multigrid MaxLevels 9 MinCoarseRows 10 ZeroGuess 1 Cycle v
[OGL LOG][Proc: 0]p: init_precond: 896.345 [ms]
[OGL LOG][StoppingCriterion.H:239] Creating stopping criterion with minIter 33 frequency 1
[OGL LOG][Proc: 0]p: generate_solver: 0.008999999999999999 [ms]
[OGL LOG][Proc: 0]p: solve: 1989.429 [ms]
[OGL LOG][Proc: 0]p: copy_x_back: 11.616 [ms]
[OGL LOG][lduLduBase.H:330] 
Statistics:
	Time per iteration: 24261 [mu s]
	Time per residual norm calculation: 1310.000000 [mu s]
	Time per iteration and DOF: 0.480824 [ns]
	Retrieve results bandwidth 2.589000 [GByte/s]
[OGL LOG][Proc: 0]p: solve_multi_gpu: 2962.174 [ms]
MultigridcudaGKOCG:  Solving for p, Initial residual = 0.3765440319598357, Final residual = 0.003623872942885031, No Iterations 82
time step continuity errors : sum local = 0.006914676587869028, global = 0.0005886941284974014, cumulative = 0.01625632493539746
smoothSolver:  Solving for nuTilda, Initial residual = 0.02557106602109261, Final residual = 0.001976287575030562, No Iterations 3
ExecutionTime = 591.1900000000001 s  ClockTime = 594 s

Time = 20

velocityDampingConstraint velocityDamping damped 3 (0%) of cells, with max limit 300
smoothSolver:  Solving for Ux, Initial residual = 0.01539314196454736, Final residual = 0.001281966510352824, No Iterations 4
smoothSolver:  Solving for Uy, Initial residual = 0.03398290123825134, Final residual = 0.002992401768768002, No Iterations 4
smoothSolver:  Solving for Uz, Initial residual = 0.03317453284881164, Final residual = 0.002861965455014207, No Iterations 4
[OGL LOG][Proc: 0]: global_index_init: 0.022 [ms]
[OGL LOG][Proc: 0]p_local_coeffs: call_update: 0 [ms]
[OGL LOG][Proc: 0]p_non_local_coeffs: call_update: 0 [ms]
[OGL LOG][Proc: 0]p: update_local_matrix_data: 154.023 [ms]
[OGL LOG][Proc: 0]p: update_non_local_matrix_data: 2.159 [ms]
[OGL LOG][Proc: 0]p_matrix: call_update: 4.769 [ms]
[OGL LOG][Proc: 0]p_rhs: call_update: 8.112 [ms]
[OGL LOG][Preconditioner.H:346] Generate preconditioner Multigrid MaxLevels 9 MinCoarseRows 10 ZeroGuess 1 Cycle v
[OGL LOG][Proc: 0]p: init_precond: 848.559 [ms]
[OGL LOG][StoppingCriterion.H:239] Creating stopping criterion with minIter 49 frequency 1
[OGL LOG][Proc: 0]p: generate_solver: 0.008999999999999999 [ms]
[OGL LOG][Proc: 0]p: solve: 2178.18 [ms]
[OGL LOG][Proc: 0]p: copy_x_back: 12.218 [ms]
[OGL LOG][lduLduBase.H:330] 
Statistics:
	Time per iteration: 23936 [mu s]
	Time per residual norm calculation: 1454.000000 [mu s]
	Time per iteration and DOF: 0.474383 [ns]
	Retrieve results bandwidth 2.462000 [GByte/s]
[OGL LOG][Proc: 0]p: solve_multi_gpu: 3106.559 [ms]
MultigridcudaGKOCG:  Solving for p, Initial residual = 0.3830041154618953, Final residual = 0.00362657413999794, No Iterations 91
time step continuity errors : sum local = 0.005858645187072646, global = 0.0001555238585338588, cumulative = 0.01641184879393132
smoothSolver:  Solving for nuTilda, Initial residual = 0.0210236419665261, Final residual = 0.002055122900282225, No Iterations 3
ExecutionTime = 611.0700000000001 s  ClockTime = 614 s

Time = 21

velocityDampingConstraint velocityDamping damped 56 (0%) of cells, with max limit 300
smoothSolver:  Solving for Ux, Initial residual = 0.01211157929515865, Final residual = 0.001038680960438192, No Iterations 4
smoothSolver:  Solving for Uy, Initial residual = 0.02593092265384886, Final residual = 0.00225214551099411, No Iterations 4
smoothSolver:  Solving for Uz, Initial residual = 0.02697726562709498, Final residual = 0.002232642216265134, No Iterations 4
[OGL LOG][Proc: 0]: global_index_init: 0.026 [ms]
[OGL LOG][Proc: 0]p_local_coeffs: call_update: 0 [ms]
[OGL LOG][Proc: 0]p_non_local_coeffs: call_update: 0 [ms]
[OGL LOG][Proc: 0]p: update_local_matrix_data: 138.931 [ms]
[OGL LOG][Proc: 0]p: update_non_local_matrix_data: 2.259 [ms]
[OGL LOG][Proc: 0]p_matrix: call_update: 5.049 [ms]
[OGL LOG][Proc: 0]p_rhs: call_update: 8.387 [ms]
[OGL LOG][Preconditioner.H:346] Generate preconditioner Multigrid MaxLevels 9 MinCoarseRows 10 ZeroGuess 1 Cycle v
[OGL LOG][Proc: 0]p: init_precond: 916.002 [ms]
[OGL LOG][StoppingCriterion.H:239] Creating stopping criterion with minIter 54 frequency 1
[OGL LOG][Proc: 0]p: generate_solver: 0.01 [ms]
[OGL LOG][Proc: 0]p: solve: 1348.854 [ms]
[OGL LOG][Proc: 0]p: copy_x_back: 11.628 [ms]
[OGL LOG][lduLduBase.H:330] 
Statistics:
	Time per iteration: 24524 [mu s]
	Time per residual norm calculation: 1305.000000 [mu s]
	Time per iteration and DOF: 0.486037 [ns]
	Retrieve results bandwidth 2.587000 [GByte/s]
[OGL LOG][Proc: 0]p: solve_multi_gpu: 2354.309 [ms]
MultigridcudaGKOCG:  Solving for p, Initial residual = 0.2310156531905358, Final residual = 0.001504939594297551, No Iterations 55
time step continuity errors : sum local = 0.003355737490922374, global = 0.000503036457857788, cumulative = 0.01691488525178911
smoothSolver:  Solving for nuTilda, Initial residual = 0.02888412665115417, Final residual = 0.001906369501357021, No Iterations 3
ExecutionTime = 630.02 s  ClockTime = 633 s

Time = 22

velocityDampingConstraint velocityDamping damped 7 (0%) of cells, with max limit 300
smoothSolver:  Solving for Ux, Initial residual = 0.0100435100778489, Final residual = 0.0008280748913208752, No Iterations 4
smoothSolver:  Solving for Uy, Initial residual = 0.0249427867906951, Final residual = 0.002022579576641478, No Iterations 4
smoothSolver:  Solving for Uz, Initial residual = 0.02706738502589691, Final residual = 0.002196965282503532, No Iterations 4
[OGL LOG][Proc: 0]: global_index_init: 0.426 [ms]
[OGL LOG][Proc: 0]p_local_coeffs: call_update: 0 [ms]
[OGL LOG][Proc: 0]p_non_local_coeffs: call_update: 0 [ms]
[OGL LOG][Proc: 0]p: update_local_matrix_data: 156.225 [ms]
[OGL LOG][Proc: 0]p: update_non_local_matrix_data: 2.262 [ms]
[OGL LOG][Proc: 0]p_matrix: call_update: 4.88 [ms]
[OGL LOG][Proc: 0]p_rhs: call_update: 9.946999999999999 [ms]
[OGL LOG][Preconditioner.H:346] Generate preconditioner Multigrid MaxLevels 9 MinCoarseRows 10 ZeroGuess 1 Cycle v
[OGL LOG][Proc: 0]p: init_precond: 839.678 [ms]
[OGL LOG][StoppingCriterion.H:239] Creating stopping criterion with minIter 33 frequency 1
[OGL LOG][Proc: 0]p: generate_solver: 0.008999999999999999 [ms]
[OGL LOG][Proc: 0]p: solve: 974.441 [ms]
[OGL LOG][Proc: 0]p: copy_x_back: 11.765 [ms]
[OGL LOG][lduLduBase.H:330] 
Statistics:
	Time per iteration: 27067 [mu s]
	Time per residual norm calculation: 1313.000000 [mu s]
	Time per iteration and DOF: 0.536436 [ns]
	Retrieve results bandwidth 2.556000 [GByte/s]
[OGL LOG][Proc: 0]p: solve_multi_gpu: 1892.832 [ms]
MultigridcudaGKOCG:  Solving for p, Initial residual = 0.2632248458180307, Final residual = 0.002451318209765971, No Iterations 36
time step continuity errors : sum local = 0.00456630401787419, global = -0.001046928737138367, cumulative = 0.01586795651465074
smoothSolver:  Solving for nuTilda, Initial residual = 0.02000713980277926, Final residual = 0.001993485174427442, No Iterations 3
ExecutionTime = 648.6 s  ClockTime = 651 s

Time = 23

velocityDampingConstraint velocityDamping damped 0 (0%) of cells, with max limit 300
smoothSolver:  Solving for Ux, Initial residual = 0.009787834842149424, Final residual = 0.0007550331808805614, No Iterations 4
smoothSolver:  Solving for Uy, Initial residual = 0.02597564052488119, Final residual = 0.002155568525738615, No Iterations 4
smoothSolver:  Solving for Uz, Initial residual = 0.02678665028776616, Final residual = 0.002231538307577166, No Iterations 4
[OGL LOG][Proc: 0]: global_index_init: 0.021 [ms]
[OGL LOG][Proc: 0]p_local_coeffs: call_update: 0 [ms]
[OGL LOG][Proc: 0]p_non_local_coeffs: call_update: 0 [ms]
[OGL LOG][Proc: 0]p: update_local_matrix_data: 151.33 [ms]
[OGL LOG][Proc: 0]p: update_non_local_matrix_data: 2.221 [ms]
[OGL LOG][Proc: 0]p_matrix: call_update: 4.395 [ms]
[OGL LOG][Proc: 0]p_rhs: call_update: 8.300000000000001 [ms]
[OGL LOG][Preconditioner.H:346] Generate preconditioner Multigrid MaxLevels 9 MinCoarseRows 10 ZeroGuess 1 Cycle v
[OGL LOG][Proc: 0]p: init_precond: 853.402 [ms]
[OGL LOG][StoppingCriterion.H:239] Creating stopping criterion with minIter 21 frequency 1
[OGL LOG][Proc: 0]p: generate_solver: 0.008 [ms]
[OGL LOG][Proc: 0]p: solve: 2201.602 [ms]
[OGL LOG][Proc: 0]p: copy_x_back: 11.599 [ms]
[OGL LOG][lduLduBase.H:330] 
Statistics:
	Time per iteration: 24462 [mu s]
	Time per residual norm calculation: 1016.000000 [mu s]
	Time per iteration and DOF: 0.484808 [ns]
	Retrieve results bandwidth 2.593000 [GByte/s]
[OGL LOG][Proc: 0]p: solve_multi_gpu: 3133.037 [ms]
MultigridcudaGKOCG:  Solving for p, Initial residual = 0.241831820089295, Final residual = 0.002233165325064385, No Iterations 90
time step continuity errors : sum local = 0.004038624953348352, global = -0.000106386336930301, cumulative = 0.01576157017772045
smoothSolver:  Solving for nuTilda, Initial residual = 0.03180784005809256, Final residual = 0.001829228573524423, No Iterations 3
ExecutionTime = 668.38 s  ClockTime = 671 s

Time = 24

velocityDampingConstraint velocityDamping damped 0 (0%) of cells, with max limit 300
smoothSolver:  Solving for Ux, Initial residual = 0.008628368706581816, Final residual = 0.000755221372203425, No Iterations 4
smoothSolver:  Solving for Uy, Initial residual = 0.02402722670500919, Final residual = 0.002078017095936514, No Iterations 4
smoothSolver:  Solving for Uz, Initial residual = 0.02446682993403645, Final residual = 0.002082695948647692, No Iterations 4
[OGL LOG][Proc: 0]: global_index_init: 0.406 [ms]
[OGL LOG][Proc: 0]p_local_coeffs: call_update: 0 [ms]
[OGL LOG][Proc: 0]p_non_local_coeffs: call_update: 0 [ms]
[OGL LOG][Proc: 0]p: update_local_matrix_data: 154.232 [ms]
[OGL LOG][Proc: 0]p: update_non_local_matrix_data: 2.16 [ms]
[OGL LOG][Proc: 0]p_matrix: call_update: 4.772 [ms]
[OGL LOG][Proc: 0]p_rhs: call_update: 9.833 [ms]
[OGL LOG][Preconditioner.H:346] Generate preconditioner Multigrid MaxLevels 9 MinCoarseRows 10 ZeroGuess 1 Cycle v
[OGL LOG][Proc: 0]p: init_precond: 908.466 [ms]
[OGL LOG][StoppingCriterion.H:239] Creating stopping criterion with minIter 54 frequency 1
[OGL LOG][Proc: 0]p: generate_solver: 0.008999999999999999 [ms]
[OGL LOG][Proc: 0]p: solve: 1351.099 [ms]
[OGL LOG][Proc: 0]p: copy_x_back: 11.629 [ms]
[OGL LOG][lduLduBase.H:330] 
Statistics:
	Time per iteration: 24565 [mu s]
	Time per residual norm calculation: 1461.000000 [mu s]
	Time per iteration and DOF: 0.486849 [ns]
	Retrieve results bandwidth 2.586000 [GByte/s]
[OGL LOG][Proc: 0]p: solve_multi_gpu: 2339.085 [ms]
MultigridcudaGKOCG:  Solving for p, Initial residual = 0.2664362947856191, Final residual = 0.001160431327752624, No Iterations 55
time step continuity errors : sum local = 0.001698809177160898, global = -0.0002064451264787028, cumulative = 0.01555512505124174
smoothSolver:  Solving for nuTilda, Initial residual = 0.01877013527444667, Final residual = 0.001094251001917777, No Iterations 4
ExecutionTime = 687.6 s  ClockTime = 690 s

Time = 25

velocityDampingConstraint velocityDamping damped 3 (0%) of cells, with max limit 300
smoothSolver:  Solving for Ux, Initial residual = 0.009014657930987869, Final residual = 0.0007968746213424345, No Iterations 4
smoothSolver:  Solving for Uy, Initial residual = 0.0233052977162203, Final residual = 0.002061223877220671, No Iterations 4
smoothSolver:  Solving for Uz, Initial residual = 0.02366190021040919, Final residual = 0.002055475632460045, No Iterations 4
[OGL LOG][Proc: 0]: global_index_init: 0.02 [ms]
[OGL LOG][Proc: 0]p_local_coeffs: call_update: 0 [ms]
[OGL LOG][Proc: 0]p_non_local_coeffs: call_update: 0 [ms]
[OGL LOG][Proc: 0]p: update_local_matrix_data: 153.628 [ms]
[OGL LOG][Proc: 0]p: update_non_local_matrix_data: 2.196 [ms]
[OGL LOG][Proc: 0]p_matrix: call_update: 5.107 [ms]
[OGL LOG][Proc: 0]p_rhs: call_update: 8.737 [ms]
[OGL LOG][Preconditioner.H:346] Generate preconditioner Multigrid MaxLevels 9 MinCoarseRows 10 ZeroGuess 1 Cycle v
[OGL LOG][Proc: 0]p: init_precond: 864.636 [ms]
[OGL LOG][StoppingCriterion.H:239] Creating stopping criterion with minIter 33 frequency 1
[OGL LOG][Proc: 0]p: generate_solver: 0.008999999999999999 [ms]
[OGL LOG][Proc: 0]p: solve: 1973.818 [ms]
[OGL LOG][Proc: 0]p: copy_x_back: 11.883 [ms]
[OGL LOG][lduLduBase.H:330] 
Statistics:
	Time per iteration: 24368 [mu s]
	Time per residual norm calculation: 1309.000000 [mu s]
	Time per iteration and DOF: 0.482945 [ns]
	Retrieve results bandwidth 2.531000 [GByte/s]
[OGL LOG][Proc: 0]p: solve_multi_gpu: 2918.416 [ms]
MultigridcudaGKOCG:  Solving for p, Initial residual = 0.2786367673701681, Final residual = 0.002742005292928602, No Iterations 81
time step continuity errors : sum local = 0.003451598642179493, global = 0.0002603662456701567, cumulative = 0.0158154912969119
smoothSolver:  Solving for nuTilda, Initial residual = 0.0318545284792614, Final residual = 0.001752710607582929, No Iterations 3
ExecutionTime = 707.42 s  ClockTime = 710 s

Time = 26

velocityDampingConstraint velocityDamping damped 0 (0%) of cells, with max limit 300
smoothSolver:  Solving for Ux, Initial residual = 0.008707399597288563, Final residual = 0.0007704484926168736, No Iterations 4
smoothSolver:  Solving for Uy, Initial residual = 0.02137178337676372, Final residual = 0.001931562595541567, No Iterations 4
smoothSolver:  Solving for Uz, Initial residual = 0.02145990189316027, Final residual = 0.001887061197348709, No Iterations 4
[OGL LOG][Proc: 0]: global_index_init: 0.155 [ms]
[OGL LOG][Proc: 0]p_local_coeffs: call_update: 0 [ms]
[OGL LOG][Proc: 0]p_non_local_coeffs: call_update: 0 [ms]
[OGL LOG][Proc: 0]p: update_local_matrix_data: 151.669 [ms]
[OGL LOG][Proc: 0]p: update_non_local_matrix_data: 2.093 [ms]
[OGL LOG][Proc: 0]p_matrix: call_update: 4.699 [ms]
[OGL LOG][Proc: 0]p_rhs: call_update: 9.159000000000001 [ms]
[OGL LOG][Preconditioner.H:346] Generate preconditioner Multigrid MaxLevels 9 MinCoarseRows 10 ZeroGuess 1 Cycle v
[OGL LOG][Proc: 0]p: init_precond: 832.706 [ms]
[OGL LOG][StoppingCriterion.H:239] Creating stopping criterion with minIter 48 frequency 1
[OGL LOG][Proc: 0]p: generate_solver: 0.008999999999999999 [ms]
[OGL LOG][Proc: 0]p: solve: 2144.604 [ms]
[OGL LOG][Proc: 0]p: copy_x_back: 11.774 [ms]
[OGL LOG][lduLduBase.H:330] 
Statistics:
	Time per iteration: 24096 [mu s]
	Time per residual norm calculation: 1311.000000 [mu s]
	Time per iteration and DOF: 0.477554 [ns]
	Retrieve results bandwidth 2.554000 [GByte/s]
[OGL LOG][Proc: 0]p: solve_multi_gpu: 3057.252 [ms]
MultigridcudaGKOCG:  Solving for p, Initial residual = 0.28597240346073, Final residual = 0.002657977492782521, No Iterations 89
time step continuity errors : sum local = 0.002808276396062257, global = 9.045227408786674e-05, cumulative = 0.01590594357099977
smoothSolver:  Solving for nuTilda, Initial residual = 0.01742305598639835, Final residual = 0.001056348490742719, No Iterations 4
ExecutionTime = 727.1799999999999 s  ClockTime = 730 s

Time = 27

velocityDampingConstraint velocityDamping damped 0 (0%) of cells, with max limit 300
smoothSolver:  Solving for Ux, Initial residual = 0.007544012426881247, Final residual = 0.0006624926442438265, No Iterations 4
smoothSolver:  Solving for Uy, Initial residual = 0.01911974160713091, Final residual = 0.001740865982789919, No Iterations 4
smoothSolver:  Solving for Uz, Initial residual = 0.01945702877794673, Final residual = 0.001692950189863571, No Iterations 4
[OGL LOG][Proc: 0]: global_index_init: 0.024 [ms]
[OGL LOG][Proc: 0]p_local_coeffs: call_update: 0 [ms]
[OGL LOG][Proc: 0]p_non_local_coeffs: call_update: 0 [ms]
[OGL LOG][Proc: 0]p: update_local_matrix_data: 154.184 [ms]
[OGL LOG][Proc: 0]p: update_non_local_matrix_data: 2.48 [ms]
[OGL LOG][Proc: 0]p_matrix: call_update: 4.374 [ms]
[OGL LOG][Proc: 0]p_rhs: call_update: 8.727 [ms]
[OGL LOG][Preconditioner.H:346] Generate preconditioner Multigrid MaxLevels 9 MinCoarseRows 10 ZeroGuess 1 Cycle v
[OGL LOG][Proc: 0]p: init_precond: 858.9829999999999 [ms]
[OGL LOG][StoppingCriterion.H:239] Creating stopping criterion with minIter 53 frequency 1
[OGL LOG][Proc: 0]p: generate_solver: 0.008999999999999999 [ms]
[OGL LOG][Proc: 0]p: solve: 1325.992 [ms]
[OGL LOG][Proc: 0]p: copy_x_back: 11.565 [ms]
[OGL LOG][lduLduBase.H:330] 
Statistics:
	Time per iteration: 24555 [mu s]
	Time per residual norm calculation: 1312.000000 [mu s]
	Time per iteration and DOF: 0.486651 [ns]
	Retrieve results bandwidth 2.601000 [GByte/s]
[OGL LOG][Proc: 0]p: solve_multi_gpu: 2269.948 [ms]
MultigridcudaGKOCG:  Solving for p, Initial residual = 0.1829515992612686, Final residual = 0.0007321670998287638, No Iterations 54
time step continuity errors : sum local = 0.001069367553581643, global = 6.986449336940179e-05, cumulative = 0.01597580806436917
smoothSolver:  Solving for nuTilda, Initial residual = 0.03074064688588018, Final residual = 0.001682056820086593, No Iterations 3
ExecutionTime = 746.2 s  ClockTime = 749 s

Time = 28

velocityDampingConstraint velocityDamping damped 0 (0%) of cells, with max limit 300
smoothSolver:  Solving for Ux, Initial residual = 0.006874384943342099, Final residual = 0.0005951470800309755, No Iterations 4
smoothSolver:  Solving for Uy, Initial residual = 0.01921598120381733, Final residual = 0.001718840639514822, No Iterations 4
smoothSolver:  Solving for Uz, Initial residual = 0.01945940421484811, Final residual = 0.001696398752368953, No Iterations 4
[OGL LOG][Proc: 0]: global_index_init: 0.019 [ms]
[OGL LOG][Proc: 0]p_local_coeffs: call_update: 0 [ms]
[OGL LOG][Proc: 0]p_non_local_coeffs: call_update: 0 [ms]
[OGL LOG][Proc: 0]p: update_local_matrix_data: 153.984 [ms]
[OGL LOG][Proc: 0]p: update_non_local_matrix_data: 2.107 [ms]
[OGL LOG][Proc: 0]p_matrix: call_update: 4.96 [ms]
[OGL LOG][Proc: 0]p_rhs: call_update: 9.082000000000001 [ms]
[OGL LOG][Preconditioner.H:346] Generate preconditioner Multigrid MaxLevels 9 MinCoarseRows 10 ZeroGuess 1 Cycle v
[OGL LOG][Proc: 0]p: init_precond: 856.622 [ms]
[OGL LOG][StoppingCriterion.H:239] Creating stopping criterion with minIter 32 frequency 1
[OGL LOG][Proc: 0]p: generate_solver: 0.008999999999999999 [ms]
[OGL LOG][Proc: 0]p: solve: 1763.809 [ms]
[OGL LOG][Proc: 0]p: copy_x_back: 12.198 [ms]
[OGL LOG][lduLduBase.H:330] 
Statistics:
	Time per iteration: 24497 [mu s]
	Time per residual norm calculation: 1157.000000 [mu s]
	Time per iteration and DOF: 0.485502 [ns]
	Retrieve results bandwidth 2.466000 [GByte/s]
[OGL LOG][Proc: 0]p: solve_multi_gpu: 2701.087 [ms]
MultigridcudaGKOCG:  Solving for p, Initial residual = 0.1803728272545365, Final residual = 0.001774243610588485, No Iterations 72
time step continuity errors : sum local = 0.002382661071996651, global = -0.000182763819132036, cumulative = 0.01579304424523713
smoothSolver:  Solving for nuTilda, Initial residual = 0.01607966040427793, Final residual = 0.0010122881134005, No Iterations 4
ExecutionTime = 765.78 s  ClockTime = 769 s

Time = 29

velocityDampingConstraint velocityDamping damped 0 (0%) of cells, with max limit 300
smoothSolver:  Solving for Ux, Initial residual = 0.006637681772959072, Final residual = 0.000575070176614056, No Iterations 4
smoothSolver:  Solving for Uy, Initial residual = 0.01923428886053386, Final residual = 0.00173259937153412, No Iterations 4
smoothSolver:  Solving for Uz, Initial residual = 0.01939725791222882, Final residual = 0.001692912590343869, No Iterations 4
[OGL LOG][Proc: 0]: global_index_init: 0.019 [ms]
[OGL LOG][Proc: 0]p_local_coeffs: call_update: 0 [ms]
[OGL LOG][Proc: 0]p_non_local_coeffs: call_update: 0 [ms]
[OGL LOG][Proc: 0]p: update_local_matrix_data: 149.454 [ms]
[OGL LOG][Proc: 0]p: update_non_local_matrix_data: 2.212 [ms]
[OGL LOG][Proc: 0]p_matrix: call_update: 4.46 [ms]
[OGL LOG][Proc: 0]p_rhs: call_update: 8.06 [ms]
[OGL LOG][Preconditioner.H:346] Generate preconditioner Multigrid MaxLevels 9 MinCoarseRows 10 ZeroGuess 1 Cycle v
[OGL LOG][Proc: 0]p: init_precond: 841.3150000000001 [ms]
[OGL LOG][StoppingCriterion.H:239] Creating stopping criterion with minIter 43 frequency 1
[OGL LOG][Proc: 0]p: generate_solver: 0.008999999999999999 [ms]
[OGL LOG][Proc: 0]p: solve: 2177.798 [ms]
[OGL LOG][Proc: 0]p: copy_x_back: 11.565 [ms]
[OGL LOG][lduLduBase.H:330] 
Statistics:
	Time per iteration: 24469 [mu s]
	Time per residual norm calculation: 1304.000000 [mu s]
	Time per iteration and DOF: 0.484947 [ns]
	Retrieve results bandwidth 2.601000 [GByte/s]
[OGL LOG][Proc: 0]p: solve_multi_gpu: 3104.953 [ms]
MultigridcudaGKOCG:  Solving for p, Initial residual = 0.214311850585527, Final residual = 0.002142683340635625, No Iterations 89
time step continuity errors : sum local = 0.002185990387448529, global = -5.35174554368313e-05, cumulative = 0.0157395267898003
smoothSolver:  Solving for nuTilda, Initial residual = 0.02864348172895162, Final residual = 0.001611763447331969, No Iterations 3
ExecutionTime = 785.45 s  ClockTime = 788 s

Time = 30

velocityDampingConstraint velocityDamping damped 0 (0%) of cells, with max limit 300
smoothSolver:  Solving for Ux, Initial residual = 0.006400548765540779, Final residual = 0.0005710443191533048, No Iterations 4
smoothSolver:  Solving for Uy, Initial residual = 0.01867835253100923, Final residual = 0.001702207732725436, No Iterations 4
smoothSolver:  Solving for Uz, Initial residual = 0.01894288303559634, Final residual = 0.00164969817674247, No Iterations 4
[OGL LOG][Proc: 0]: global_index_init: 0.02 [ms]
[OGL LOG][Proc: 0]p_local_coeffs: call_update: 0 [ms]
[OGL LOG][Proc: 0]p_non_local_coeffs: call_update: 0 [ms]
[OGL LOG][Proc: 0]p: update_local_matrix_data: 150.562 [ms]
[OGL LOG][Proc: 0]p: update_non_local_matrix_data: 2.21 [ms]
[OGL LOG][Proc: 0]p_matrix: call_update: 4.639 [ms]
[OGL LOG][Proc: 0]p_rhs: call_update: 8.868 [ms]
[OGL LOG][Preconditioner.H:346] Generate preconditioner Multigrid MaxLevels 9 MinCoarseRows 10 ZeroGuess 1 Cycle v
[OGL LOG][Proc: 0]p: init_precond: 858.949 [ms]
[OGL LOG][StoppingCriterion.H:239] Creating stopping criterion with minIter 53 frequency 1
[OGL LOG][Proc: 0]p: generate_solver: 0.008999999999999999 [ms]
[OGL LOG][Proc: 0]p: solve: 1342.353 [ms]
[OGL LOG][Proc: 0]p: copy_x_back: 13.346 [ms]
[OGL LOG][lduLduBase.H:330] 
Statistics:
	Time per iteration: 24858 [mu s]
	Time per residual norm calculation: 1308.000000 [mu s]
	Time per iteration and DOF: 0.492656 [ns]
	Retrieve results bandwidth 2.254000 [GByte/s]
[OGL LOG][Proc: 0]p: solve_multi_gpu: 2286.49 [ms]
MultigridcudaGKOCG:  Solving for p, Initial residual = 0.2646008542343775, Final residual = 0.001241465615350608, No Iterations 54
time step continuity errors : sum local = 0.0009217818492108278, global = -1.440693043415609e-05, cumulative = 0.01572511985936615
smoothSolver:  Solving for nuTilda, Initial residual = 0.0149046201415601, Final residual = 0.0009681543194768249, No Iterations 4
ExecutionTime = 804.52 s  ClockTime = 808 s

Time = 31

velocityDampingConstraint velocityDamping damped 0 (0%) of cells, with max limit 300
smoothSolver:  Solving for Ux, Initial residual = 0.006409354320129348, Final residual = 0.0005676545598151142, No Iterations 4
smoothSolver:  Solving for Uy, Initial residual = 0.01796760804700401, Final residual = 0.00164513706542019, No Iterations 4
smoothSolver:  Solving for Uz, Initial residual = 0.018175310850718, Final residual = 0.001608059576891301, No Iterations 4
[OGL LOG][Proc: 0]: global_index_init: 0.317 [ms]
[OGL LOG][Proc: 0]p_local_coeffs: call_update: 0 [ms]
[OGL LOG][Proc: 0]p_non_local_coeffs: call_update: 0 [ms]
[OGL LOG][Proc: 0]p: update_local_matrix_data: 153.596 [ms]
[OGL LOG][Proc: 0]p: update_non_local_matrix_data: 2.311 [ms]
[OGL LOG][Proc: 0]p_matrix: call_update: 5.022 [ms]
[OGL LOG][Proc: 0]p_rhs: call_update: 4.403 [ms]
[OGL LOG][Preconditioner.H:346] Generate preconditioner Multigrid MaxLevels 9 MinCoarseRows 10 ZeroGuess 1 Cycle v
[OGL LOG][Proc: 0]p: init_precond: 855.655 [ms]
[OGL LOG][StoppingCriterion.H:239] Creating stopping criterion with minIter 32 frequency 1
[OGL LOG][Proc: 0]p: generate_solver: 0.008999999999999999 [ms]
[OGL LOG][Proc: 0]p: solve: 1726.247 [ms]
[OGL LOG][Proc: 0]p: copy_x_back: 11.464 [ms]
[OGL LOG][lduLduBase.H:330] 
Statistics:
	Time per iteration: 24660 [mu s]
	Time per residual norm calculation: 1308.000000 [mu s]
	Time per iteration and DOF: 0.488732 [ns]
	Retrieve results bandwidth 2.624000 [GByte/s]
[OGL LOG][Proc: 0]p: solve_multi_gpu: 2653.663 [ms]
MultigridcudaGKOCG:  Solving for p, Initial residual = 0.2571498995067965, Final residual = 0.002434514856142678, No Iterations 70
time step continuity errors : sum local = 0.001683315952911275, global = 9.312194749493875e-05, cumulative = 0.01581824180686109
smoothSolver:  Solving for nuTilda, Initial residual = 0.0267017965255594, Final residual = 0.001547707548928253, No Iterations 3
ExecutionTime = 824.03 s  ClockTime = 827 s

Time = 32

velocityDampingConstraint velocityDamping damped 0 (0%) of cells, with max limit 300
smoothSolver:  Solving for Ux, Initial residual = 0.00622576304214237, Final residual = 0.0005491666545444487, No Iterations 4
smoothSolver:  Solving for Uy, Initial residual = 0.01710299724577004, Final residual = 0.001559664447651776, No Iterations 4
smoothSolver:  Solving for Uz, Initial residual = 0.01705651311921324, Final residual = 0.001538077763139329, No Iterations 4
[OGL LOG][Proc: 0]: global_index_init: 0.027 [ms]
[OGL LOG][Proc: 0]p_local_coeffs: call_update: 0 [ms]
[OGL LOG][Proc: 0]p_non_local_coeffs: call_update: 0 [ms]
[OGL LOG][Proc: 0]p: update_local_matrix_data: 153.711 [ms]
[OGL LOG][Proc: 0]p: update_non_local_matrix_data: 2.201 [ms]
[OGL LOG][Proc: 0]p_matrix: call_update: 4.675 [ms]
[OGL LOG][Proc: 0]p_rhs: call_update: 8.353 [ms]
[OGL LOG][Preconditioner.H:346] Generate preconditioner Multigrid MaxLevels 9 MinCoarseRows 10 ZeroGuess 1 Cycle v
[OGL LOG][Proc: 0]p: init_precond: 1021.202 [ms]
[OGL LOG][StoppingCriterion.H:239] Creating stopping criterion with minIter 42 frequency 1
[OGL LOG][Proc: 0]p: generate_solver: 0.008999999999999999 [ms]
[OGL LOG][Proc: 0]p: solve: 2254.768 [ms]
[OGL LOG][Proc: 0]p: copy_x_back: 12.16 [ms]
[OGL LOG][lduLduBase.H:330] 
Statistics:
	Time per iteration: 24777 [mu s]
	Time per residual norm calculation: 1445.000000 [mu s]
	Time per iteration and DOF: 0.491051 [ns]
	Retrieve results bandwidth 2.473000 [GByte/s]
[OGL LOG][Proc: 0]p: solve_multi_gpu: 3355.102 [ms]
MultigridcudaGKOCG:  Solving for p, Initial residual = 0.1864315203624194, Final residual = 0.001835399457176014, No Iterations 91
time step continuity errors : sum local = 0.00159530799400262, global = 1.171730706143199e-05, cumulative = 0.01582995911392252
smoothSolver:  Solving for nuTilda, Initial residual = 0.01392026974563733, Final residual = 0.0009275556211987413, No Iterations 4
ExecutionTime = 843.96 s  ClockTime = 847 s

Time = 33

velocityDampingConstraint velocityDamping damped 0 (0%) of cells, with max limit 300
smoothSolver:  Solving for Ux, Initial residual = 0.005834611868140792, Final residual = 0.000511956736738763, No Iterations 4
smoothSolver:  Solving for Uy, Initial residual = 0.01643472273982151, Final residual = 0.001498732488368669, No Iterations 4
smoothSolver:  Solving for Uz, Initial residual = 0.01640507846754882, Final residual = 0.00148164577998986, No Iterations 4
[OGL LOG][Proc: 0]: global_index_init: 0.137 [ms]
[OGL LOG][Proc: 0]p_local_coeffs: call_update: 0 [ms]
[OGL LOG][Proc: 0]p_non_local_coeffs: call_update: 0 [ms]
[OGL LOG][Proc: 0]p: update_local_matrix_data: 150.763 [ms]
[OGL LOG][Proc: 0]p: update_non_local_matrix_data: 2.208 [ms]
[OGL LOG][Proc: 0]p_matrix: call_update: 4.769 [ms]
[OGL LOG][Proc: 0]p_rhs: call_update: 4.024 [ms]
[OGL LOG][Preconditioner.H:346] Generate preconditioner Multigrid MaxLevels 9 MinCoarseRows 10 ZeroGuess 1 Cycle v
[OGL LOG][Proc: 0]p: init_precond: 857.253 [ms]
[OGL LOG][StoppingCriterion.H:239] Creating stopping criterion with minIter 54 frequency 1
[OGL LOG][Proc: 0]p: generate_solver: 0.008999999999999999 [ms]
[OGL LOG][Proc: 0]p: solve: 1365.127 [ms]
[OGL LOG][Proc: 0]p: copy_x_back: 11.498 [ms]
[OGL LOG][lduLduBase.H:330] 
Statistics:
	Time per iteration: 24820 [mu s]
	Time per residual norm calculation: 1306.000000 [mu s]
	Time per iteration and DOF: 0.491903 [ns]
	Retrieve results bandwidth 2.616000 [GByte/s]
[OGL LOG][Proc: 0]p: solve_multi_gpu: 2297.122 [ms]
MultigridcudaGKOCG:  Solving for p, Initial residual = 0.1431679408097931, Final residual = 0.0005207847873038739, No Iterations 55
time step continuity errors : sum local = 0.0005373821159079594, global = 3.579078137654171e-06, cumulative = 0.01583353819206017
smoothSolver:  Solving for nuTilda, Initial residual = 0.02500881988310492, Final residual = 0.001487195995433328, No Iterations 3
ExecutionTime = 862.85 s  ClockTime = 866 s


    From virtual bool Foam::regIOobject::readIfModified()
    in file db/regIOobject/regIOobjectRead.C at line 271
        Re-reading object fvSolution from file "/hkfs/work/workspace/scratch/eq4036-windsorbody_setup/workspace/4bb812e11020630259919c2b528a8fdc/case/system/fvSolution"
Time = 34

velocityDampingConstraint velocityDamping damped 0 (0%) of cells, with max limit 300
smoothSolver:  Solving for Ux, Initial residual = 0.005467514516699522, Final residual = 0.000484384773832032, No Iterations 4
smoothSolver:  Solving for Uy, Initial residual = 0.01633458191596162, Final residual = 0.001492669116311122, No Iterations 4
[...]
ExecutionTime = 1938.49 s  ClockTime = 1945 s

Time = 91

velocityDampingConstraint velocityDamping damped 0 (0%) of cells, with max limit 300
smoothSolver:  Solving for Ux, Initial residual = 0.002833644292101361, Final residual = 0.0002779386169112416, No Iterations 4
smoothSolver:  Solving for Uy, Initial residual = 0.01199112465210292, Final residual = 0.001189459419838675, No Iterations 4
smoothSolver:  Solving for Uz, Initial residual = 0.0131580089157771, Final residual = 0.001310514697901304, No Iterations 4
[OGL LOG][Proc: 0]: global_index_init: 0.494 [ms]
[OGL LOG][Proc: 0]p_local_coeffs: call_update: 0 [ms]
[OGL LOG][Proc: 0]p_non_local_coeffs: call_update: 0 [ms]
[OGL LOG][Proc: 0]p: update_local_matrix_data: 155.35 [ms]
[OGL LOG][Proc: 0]p: update_non_local_matrix_data: 2.229 [ms]
[OGL LOG][Proc: 0]p_matrix: call_update: 4.84 [ms]
[OGL LOG][Proc: 0]p_rhs: call_update: 4.171 [ms]
[OGL LOG][Preconditioner.H:346] Generate preconditioner Multigrid MaxLevels 9 MinCoarseRows 10 ZeroGuess 1 Cycle v
[OGL LOG][Proc: 0]p: init_precond: 883.231 [ms]
[OGL LOG][StoppingCriterion.H:239] Creating stopping criterion with minIter 37 frequency 1
[OGL LOG][Proc: 0]p: generate_solver: 0.012 [ms]
[OGL LOG][Proc: 0]p: solve: 989.2089999999999 [ms]
[OGL LOG][Proc: 0]p: copy_x_back: 11.754 [ms]
[OGL LOG][lduLduBase.H:330] 
Statistics:
	Time per iteration: 26031 [mu s]
	Time per residual norm calculation: 1309.000000 [mu s]
	Time per iteration and DOF: 0.515904 [ns]
	Retrieve results bandwidth 2.559000 [GByte/s]
[OGL LOG][Proc: 0]p: solve_multi_gpu: 1942.223 [ms]
MultigridcudaGKOCG:  Solving for p, Initial residual = 0.04520818216840474, Final residual = 0.0001968693229034081, No Iterations 38
time step continuity errors : sum local = 0.0001486089035878133, global = 1.562390766946196e-05, cumulative = 0.01588474241367747
smoothSolver:  Solving for nuTilda, Initial residual = 0.009509888514470387, Final residual = 0.0008343889677586225, No Iterations 3
ExecutionTime = 1957.03 s  ClockTime = 1963 s

Time = 92

velocityDampingConstraint velocityDamping damped 0 (0%) of cells, with max limit 300
smoothSolver:  Solving for Ux, Initial residual = 0.002798231307489297, Final residual = 0.0002760068724268366, No Iterations 4
smoothSolver:  Solving for Uy, Initial residual = 0.01200512036238972, Final residual = 0.001192397435941056, No Iterations 4
smoothSolver:  Solving for Uz, Initial residual = 0.01316006030850702, Final residual = 0.001310380430683964, No Iterations 4
[OGL LOG][Proc: 0]: global_index_init: 0.021 [ms]
[OGL LOG][Proc: 0]p_local_coeffs: call_update: 0 [ms]
[OGL LOG][Proc: 0]p_non_local_coeffs: call_update: 0 [ms]
[OGL LOG][Proc: 0]p: update_local_matrix_data: 153.783 [ms]
[OGL LOG][Proc: 0]p: update_non_local_matrix_data: 2.242 [ms]
[OGL LOG][Proc: 0]p_matrix: call_update: 4.868 [ms]
[OGL LOG][Proc: 0]p_rhs: call_update: 9.606 [ms]
[OGL LOG][Preconditioner.H:346] Generate preconditioner Multigrid MaxLevels 9 MinCoarseRows 10 ZeroGuess 1 Cycle v
[OGL LOG][Proc: 0]p: init_precond: 887.152 [ms]
[OGL LOG][StoppingCriterion.H:239] Creating stopping criterion with minIter 22 frequency 1
[OGL LOG][Proc: 0]p: generate_solver: 0.011 [ms]
[OGL LOG][Proc: 0]p: solve: 686.494 [ms]
[OGL LOG][Proc: 0]p: copy_x_back: 12.044 [ms]
[OGL LOG][lduLduBase.H:330] 
Statistics:
	Time per iteration: 29847 [mu s]
	Time per residual norm calculation: 1319.000000 [mu s]
	Time per iteration and DOF: 0.591532 [ns]
	Retrieve results bandwidth 2.497000 [GByte/s]
[OGL LOG][Proc: 0]p: solve_multi_gpu: 1654.405 [ms]
MultigridcudaGKOCG:  Solving for p, Initial residual = 0.04481800009749762, Final residual = 0.000225155798527038, No Iterations 23
time step continuity errors : sum local = 0.0001696962282165094, global = -3.589585909349858e-05, cumulative = 0.01584884655458397
smoothSolver:  Solving for nuTilda, Initial residual = 0.006401115512030494, Final residual = 0.0004757544835172089, No Iterations 4
ExecutionTime = 1975.28 s  ClockTime = 1982 s

Time = 93

velocityDampingConstraint velocityDamping damped 0 (0%) of cells, with max limit 300
smoothSolver:  Solving for Ux, Initial residual = 0.002809054038090282, Final residual = 0.0002752898093505428, No Iterations 4
smoothSolver:  Solving for Uy, Initial residual = 0.01201047520917594, Final residual = 0.001194298559862625, No Iterations 4
smoothSolver:  Solving for Uz, Initial residual = 0.01314138637088347, Final residual = 0.001307800704754829, No Iterations 4
[OGL LOG][Proc: 0]: global_index_init: 0.026 [ms]
[OGL LOG][Proc: 0]p_local_coeffs: call_update: 0 [ms]
[OGL LOG][Proc: 0]p_non_local_coeffs: call_update: 0 [ms]
[OGL LOG][Proc: 0]p: update_local_matrix_data: 153.92 [ms]
[OGL LOG][Proc: 0]p: update_non_local_matrix_data: 2.159 [ms]
[OGL LOG][Proc: 0]p_matrix: call_update: 4.516 [ms]
[OGL LOG][Proc: 0]p_rhs: call_update: 7.883 [ms]
[OGL LOG][Preconditioner.H:346] Generate preconditioner Multigrid MaxLevels 9 MinCoarseRows 10 ZeroGuess 1 Cycle v
[OGL LOG][Proc: 0]p: init_precond: 837.562 [ms]
[OGL LOG][StoppingCriterion.H:239] Creating stopping criterion with minIter 13 frequency 1
[OGL LOG][Proc: 0]p: generate_solver: 0.008999999999999999 [ms]
[OGL LOG][Proc: 0]p: solve: 680.761 [ms]
[OGL LOG][Proc: 0]p: copy_x_back: 11.536 [ms]
[OGL LOG][lduLduBase.H:330] 
Statistics:
	Time per iteration: 30943 [mu s]
	Time per residual norm calculation: 1310.000000 [mu s]
	Time per iteration and DOF: 0.613254 [ns]
	Retrieve results bandwidth 2.607000 [GByte/s]
[OGL LOG][Proc: 0]p: solve_multi_gpu: 1590.428 [ms]
MultigridcudaGKOCG:  Solving for p, Initial residual = 0.04443666763043518, Final residual = 0.0004426348497911171, No Iterations 22
time step continuity errors : sum local = 0.000332289340781972, global = -0.0001042988979973847, cumulative = 0.01574454765658658
smoothSolver:  Solving for nuTilda, Initial residual = 0.009302054823979305, Final residual = 0.0008312534944850569, No Iterations 3
ExecutionTime = 1993.49 s  ClockTime = 2000 s

Time = 94

velocityDampingConstraint velocityDamping damped 0 (0%) of cells, with max limit 300
smoothSolver:  Solving for Ux, Initial residual = 0.002781314720940448, Final residual = 0.0002738418990630403, No Iterations 4
smoothSolver:  Solving for Uy, Initial residual = 0.01201956455980451, Final residual = 0.001196749683570926, No Iterations 4
smoothSolver:  Solving for Uz, Initial residual = 0.01312404411533695, Final residual = 0.001305499103710232, No Iterations 4
[OGL LOG][Proc: 0]: global_index_init: 0.274 [ms]
[OGL LOG][Proc: 0]p_local_coeffs: call_update: 0 [ms]
[OGL LOG][Proc: 0]p_non_local_coeffs: call_update: 0 [ms]
[OGL LOG][Proc: 0]p: update_local_matrix_data: 165.114 [ms]
[OGL LOG][Proc: 0]p: update_non_local_matrix_data: 2.171 [ms]
[OGL LOG][Proc: 0]p_matrix: call_update: 4.265 [ms]
[OGL LOG][Proc: 0]p_rhs: call_update: 9.382999999999999 [ms]
[OGL LOG][Preconditioner.H:346] Generate preconditioner Multigrid MaxLevels 9 MinCoarseRows 10 ZeroGuess 1 Cycle v
[OGL LOG][Proc: 0]p: init_precond: 854.736 [ms]
[OGL LOG][StoppingCriterion.H:239] Creating stopping criterion with minIter 13 frequency 1
[OGL LOG][Proc: 0]p: generate_solver: 0.008999999999999999 [ms]
[OGL LOG][Proc: 0]p: solve: 1723.759 [ms]
[OGL LOG][Proc: 0]p: copy_x_back: 11.603 [ms]
[OGL LOG][lduLduBase.H:330] 
Statistics:
	Time per iteration: 25727 [mu s]
	Time per residual norm calculation: 1310.000000 [mu s]
	Time per iteration and DOF: 0.509879 [ns]
	Retrieve results bandwidth 2.592000 [GByte/s]
[OGL LOG][Proc: 0]p: solve_multi_gpu: 2645.034 [ms]
MultigridcudaGKOCG:  Solving for p, Initial residual = 0.0443202608093434, Final residual = 0.0004431383655035079, No Iterations 67
time step continuity errors : sum local = 0.0003311381838633655, global = -2.278796437203176e-05, cumulative = 0.01572175969221455
smoothSolver:  Solving for nuTilda, Initial residual = 0.006337564143180153, Final residual = 0.0004733161355111878, No Iterations 4
ExecutionTime = 2012.72 s  ClockTime = 2019 s

Time = 95

velocityDampingConstraint velocityDamping damped 0 (0%) of cells, with max limit 300
smoothSolver:  Solving for Ux, Initial residual = 0.002813127442120535, Final residual = 0.0002750923635076801, No Iterations 4
smoothSolver:  Solving for Uy, Initial residual = 0.01206470382238189, Final residual = 0.001200683606789301, No Iterations 4
smoothSolver:  Solving for Uz, Initial residual = 0.01313838592920943, Final residual = 0.001304536002475215, No Iterations 4
[OGL LOG][Proc: 0]: global_index_init: 0.023 [ms]
[OGL LOG][Proc: 0]p_local_coeffs: call_update: 0 [ms]
[OGL LOG][Proc: 0]p_non_local_coeffs: call_update: 0 [ms]
[OGL LOG][Proc: 0]p: update_local_matrix_data: 154.014 [ms]
[OGL LOG][Proc: 0]p: update_non_local_matrix_data: 2.149 [ms]
[OGL LOG][Proc: 0]p_matrix: call_update: 4.821 [ms]
[OGL LOG][Proc: 0]p_rhs: call_update: 8.785 [ms]
[OGL LOG][Preconditioner.H:346] Generate preconditioner Multigrid MaxLevels 9 MinCoarseRows 10 ZeroGuess 1 Cycle v
[OGL LOG][Proc: 0]p: init_precond: 906.7140000000001 [ms]
[OGL LOG][StoppingCriterion.H:239] Creating stopping criterion with minIter 40 frequency 1
[OGL LOG][Proc: 0]p: generate_solver: 0.008999999999999999 [ms]
[OGL LOG][Proc: 0]p: solve: 1316.775 [ms]
[OGL LOG][Proc: 0]p: copy_x_back: 11.557 [ms]
[OGL LOG][lduLduBase.H:330] 
Statistics:
	Time per iteration: 25322 [mu s]
	Time per residual norm calculation: 1448.000000 [mu s]
	Time per iteration and DOF: 0.501852 [ns]
	Retrieve results bandwidth 2.602000 [GByte/s]
[OGL LOG][Proc: 0]p: solve_multi_gpu: 2297.363 [ms]
MultigridcudaGKOCG:  Solving for p, Initial residual = 0.04804739342241919, Final residual = 0.0004577448559015238, No Iterations 52
time step continuity errors : sum local = 0.000314219932698327, global = 6.591767807634009e-05, cumulative = 0.01578767737029089
smoothSolver:  Solving for nuTilda, Initial residual = 0.009099055096204185, Final residual = 0.0008278929192749449, No Iterations 3
ExecutionTime = 2031.47 s  ClockTime = 2038 s

Time = 96

velocityDampingConstraint velocityDamping damped 0 (0%) of cells, with max limit 300
smoothSolver:  Solving for Ux, Initial residual = 0.002801570748376881, Final residual = 0.0002743586267600159, No Iterations 4
smoothSolver:  Solving for Uy, Initial residual = 0.01207387037488176, Final residual = 0.001203371286729953, No Iterations 4
smoothSolver:  Solving for Uz, Initial residual = 0.0131326708030651, Final residual = 0.001302965213182345, No Iterations 4
[OGL LOG][Proc: 0]: global_index_init: 0.021 [ms]
[OGL LOG][Proc: 0]p_local_coeffs: call_update: 0 [ms]
[OGL LOG][Proc: 0]p_non_local_coeffs: call_update: 0 [ms]
[OGL LOG][Proc: 0]p: update_local_matrix_data: 149.967 [ms]
[OGL LOG][Proc: 0]p: update_non_local_matrix_data: 2.233 [ms]
[OGL LOG][Proc: 0]p_matrix: call_update: 4.66 [ms]
[OGL LOG][Proc: 0]p_rhs: call_update: 9.539 [ms]
[OGL LOG][Preconditioner.H:346] Generate preconditioner Multigrid MaxLevels 9 MinCoarseRows 10 ZeroGuess 1 Cycle v
[OGL LOG][Proc: 0]p: init_precond: 886.758 [ms]
[OGL LOG][StoppingCriterion.H:239] Creating stopping criterion with minIter 31 frequency 1
[OGL LOG][Proc: 0]p: generate_solver: 0.008999999999999999 [ms]
[OGL LOG][Proc: 0]p: solve: 1750.86 [ms]
[OGL LOG][Proc: 0]p: copy_x_back: 11.678 [ms]
[OGL LOG][lduLduBase.H:330] 
Statistics:
	Time per iteration: 25012 [mu s]
	Time per residual norm calculation: 1455.000000 [mu s]
	Time per iteration and DOF: 0.495708 [ns]
	Retrieve results bandwidth 2.575000 [GByte/s]
[OGL LOG][Proc: 0]p: solve_multi_gpu: 2722.286 [ms]
MultigridcudaGKOCG:  Solving for p, Initial residual = 0.04686942824648505, Final residual = 0.000455927627218216, No Iterations 70
time step continuity errors : sum local = 0.0003165578705633123, global = 4.559185682171645e-06, cumulative = 0.01579223655597306
smoothSolver:  Solving for nuTilda, Initial residual = 0.006271286293959879, Final residual = 0.0004708016869203697, No Iterations 4
ExecutionTime = 2050.8 s  ClockTime = 2057 s

Time = 97

velocityDampingConstraint velocityDamping damped 0 (0%) of cells, with max limit 300
smoothSolver:  Solving for Ux, Initial residual = 0.002779950741556842, Final residual = 0.0002722019102275244, No Iterations 4
smoothSolver:  Solving for Uy, Initial residual = 0.01210343471724904, Final residual = 0.00120710519269771, No Iterations 4
smoothSolver:  Solving for Uz, Initial residual = 0.01308928615269249, Final residual = 0.00129948660787823, No Iterations 4
[OGL LOG][Proc: 0]: global_index_init: 0.135 [ms]
[OGL LOG][Proc: 0]p_local_coeffs: call_update: 0 [ms]
[OGL LOG][Proc: 0]p_non_local_coeffs: call_update: 0 [ms]
[OGL LOG][Proc: 0]p: update_local_matrix_data: 154.27 [ms]
[OGL LOG][Proc: 0]p: update_non_local_matrix_data: 2.155 [ms]
[OGL LOG][Proc: 0]p_matrix: call_update: 4.47 [ms]
[OGL LOG][Proc: 0]p_rhs: call_update: 9.506 [ms]
[OGL LOG][Preconditioner.H:346] Generate preconditioner Multigrid MaxLevels 9 MinCoarseRows 10 ZeroGuess 1 Cycle v
[OGL LOG][Proc: 0]p: init_precond: 1016.249 [ms]
[OGL LOG][StoppingCriterion.H:239] Creating stopping criterion with minIter 42 frequency 1
[OGL LOG][Proc: 0]p: generate_solver: 0.008999999999999999 [ms]
[OGL LOG][Proc: 0]p: solve: 1152.648 [ms]
[OGL LOG][Proc: 0]p: copy_x_back: 11.659 [ms]
[OGL LOG][lduLduBase.H:330] 
Statistics:
	Time per iteration: 26805 [mu s]
	Time per residual norm calculation: 1458.000000 [mu s]
	Time per iteration and DOF: 0.531243 [ns]
	Retrieve results bandwidth 2.580000 [GByte/s]
[OGL LOG][Proc: 0]p: solve_multi_gpu: 2240.063 [ms]
MultigridcudaGKOCG:  Solving for p, Initial residual = 0.04210861963809652, Final residual = 0.0003048524101411789, No Iterations 43
time step continuity errors : sum local = 0.0002322287969209707, global = 3.426942341853395e-05, cumulative = 0.0158265059793916
smoothSolver:  Solving for nuTilda, Initial residual = 0.008902362920828723, Final residual = 0.0008244557064841152, No Iterations 3
ExecutionTime = 2069.43 s  ClockTime = 2076 s

Time = 98

velocityDampingConstraint velocityDamping damped 0 (0%) of cells, with max limit 300
smoothSolver:  Solving for Ux, Initial residual = 0.002740456830581816, Final residual = 0.0002698367932974619, No Iterations 4
smoothSolver:  Solving for Uy, Initial residual = 0.01214391372086442, Final residual = 0.001210607622014192, No Iterations 4
smoothSolver:  Solving for Uz, Initial residual = 0.01307425614059099, Final residual = 0.001297208739967838, No Iterations 4
[OGL LOG][Proc: 0]: global_index_init: 0.022 [ms]
[OGL LOG][Proc: 0]p_local_coeffs: call_update: 0 [ms]
[OGL LOG][Proc: 0]p_non_local_coeffs: call_update: 0 [ms]
[OGL LOG][Proc: 0]p: update_local_matrix_data: 151.241 [ms]
[OGL LOG][Proc: 0]p: update_non_local_matrix_data: 2.085 [ms]
[OGL LOG][Proc: 0]p_matrix: call_update: 4.844 [ms]
[OGL LOG][Proc: 0]p_rhs: call_update: 9.103 [ms]
[OGL LOG][Preconditioner.H:346] Generate preconditioner Multigrid MaxLevels 9 MinCoarseRows 10 ZeroGuess 1 Cycle v
[OGL LOG][Proc: 0]p: init_precond: 908.796 [ms]
[OGL LOG][StoppingCriterion.H:239] Creating stopping criterion with minIter 25 frequency 1
[OGL LOG][Proc: 0]p: generate_solver: 0.008999999999999999 [ms]
[OGL LOG][Proc: 0]p: solve: 732.49 [ms]
[OGL LOG][Proc: 0]p: copy_x_back: 11.494 [ms]
[OGL LOG][lduLduBase.H:330] 
Statistics:
	Time per iteration: 28172 [mu s]
	Time per residual norm calculation: 1302.000000 [mu s]
	Time per iteration and DOF: 0.558336 [ns]
	Retrieve results bandwidth 2.617000 [GByte/s]
[OGL LOG][Proc: 0]p: solve_multi_gpu: 1722.966 [ms]
MultigridcudaGKOCG:  Solving for p, Initial residual = 0.04182355178849168, Final residual = 0.0002884184836942826, No Iterations 26
time step continuity errors : sum local = 0.0002189927589144435, global = -4.139337454765207e-05, cumulative = 0.01578511260484395
smoothSolver:  Solving for nuTilda, Initial residual = 0.006202671901720048, Final residual = 0.0004684294437120814, No Iterations 4
ExecutionTime = 2087.83 s  ClockTime = 2095 s

Time = 99

velocityDampingConstraint velocityDamping damped 0 (0%) of cells, with max limit 300
smoothSolver:  Solving for Ux, Initial residual = 0.00274920433104909, Final residual = 0.0002685710680925428, No Iterations 4
smoothSolver:  Solving for Uy, Initial residual = 0.01217036510218091, Final residual = 0.001212937517761398, No Iterations 4
smoothSolver:  Solving for Uz, Initial residual = 0.01304874546961663, Final residual = 0.001293315681390067, No Iterations 4
[OGL LOG][Proc: 0]: global_index_init: 0.356 [ms]
[OGL LOG][Proc: 0]p_local_coeffs: call_update: 0 [ms]
[OGL LOG][Proc: 0]p_non_local_coeffs: call_update: 0 [ms]
[OGL LOG][Proc: 0]p: update_local_matrix_data: 155.578 [ms]
[OGL LOG][Proc: 0]p: update_non_local_matrix_data: 2.146 [ms]
[OGL LOG][Proc: 0]p_matrix: call_update: 4.69 [ms]
[OGL LOG][Proc: 0]p_rhs: call_update: 4.136 [ms]
[OGL LOG][Preconditioner.H:346] Generate preconditioner Multigrid MaxLevels 9 MinCoarseRows 10 ZeroGuess 1 Cycle v
[OGL LOG][Proc: 0]p: init_precond: 865.542 [ms]
[OGL LOG][StoppingCriterion.H:239] Creating stopping criterion with minIter 15 frequency 1
[OGL LOG][Proc: 0]p: generate_solver: 0.012 [ms]
[OGL LOG][Proc: 0]p: solve: 1931.533 [ms]
[OGL LOG][Proc: 0]p: copy_x_back: 11.766 [ms]
[OGL LOG][lduLduBase.H:330] 
Statistics:
	Time per iteration: 24763 [mu s]
	Time per residual norm calculation: 1309.000000 [mu s]
	Time per iteration and DOF: 0.490773 [ns]
	Retrieve results bandwidth 2.556000 [GByte/s]
[OGL LOG][Proc: 0]p: solve_multi_gpu: 2866.046 [ms]
MultigridcudaGKOCG:  Solving for p, Initial residual = 0.04132805647373242, Final residual = 0.0003913921174353009, No Iterations 78
time step continuity errors : sum local = 0.0002960107835671406, global = -4.623653907398961e-06, cumulative = 0.01578048895093655
smoothSolver:  Solving for nuTilda, Initial residual = 0.008712447516193586, Final residual = 0.0008214833408053176, No Iterations 3
ExecutionTime = 2107.24 s  ClockTime = 2114 s

Time = 100

velocityDampingConstraint velocityDamping damped 0 (0%) of cells, with max limit 300
smoothSolver:  Solving for Ux, Initial residual = 0.002714768425942489, Final residual = 0.0002673928620366117, No Iterations 4
smoothSolver:  Solving for Uy, Initial residual = 0.01218861032839395, Final residual = 0.00121563530754659, No Iterations 4
smoothSolver:  Solving for Uz, Initial residual = 0.01304067207468902, Final residual = 0.001290672934957608, No Iterations 4
[OGL LOG][Proc: 0]: global_index_init: 0.02 [ms]
[OGL LOG][Proc: 0]p_local_coeffs: call_update: 0 [ms]
[OGL LOG][Proc: 0]p_non_local_coeffs: call_update: 0 [ms]
[OGL LOG][Proc: 0]p: update_local_matrix_data: 150.726 [ms]
[OGL LOG][Proc: 0]p: update_non_local_matrix_data: 2.16 [ms]
[OGL LOG][Proc: 0]p_matrix: call_update: 4.666 [ms]
[OGL LOG][Proc: 0]p_rhs: call_update: 8.775 [ms]
[OGL LOG][Preconditioner.H:346] Generate preconditioner Multigrid MaxLevels 9 MinCoarseRows 10 ZeroGuess 1 Cycle v
[OGL LOG][Proc: 0]p: init_precond: 849.443 [ms]
[OGL LOG][StoppingCriterion.H:239] Creating stopping criterion with minIter 46 frequency 1
[OGL LOG][Proc: 0]p: generate_solver: 0.008999999999999999 [ms]
[OGL LOG][Proc: 0]p: solve: 1202.52 [ms]
[OGL LOG][Proc: 0]p: copy_x_back: 11.572 [ms]
[OGL LOG][lduLduBase.H:330] 
Statistics:
	Time per iteration: 25585 [mu s]
	Time per residual norm calculation: 1306.000000 [mu s]
	Time per iteration and DOF: 0.507065 [ns]
	Retrieve results bandwidth 2.599000 [GByte/s]
[OGL LOG][Proc: 0]p: solve_multi_gpu: 2133.927 [ms]
MultigridcudaGKOCG:  Solving for p, Initial residual = 0.04390822228514082, Final residual = 0.0004100587015766968, No Iterations 47
time step continuity errors : sum local = 0.0002889318403459526, global = -3.073043612286148e-05, cumulative = 0.01574975851481368
smoothSolver:  Solving for nuTilda, Initial residual = 0.00613171530627421, Final residual = 0.0004666099428829618, No Iterations 4
ExecutionTime = 2125.87 s  ClockTime = 2133 s

End

Finalising parallel run
