/*---------------------------------------------------------------------------*\
| =========                 |                                                 |
| \\      /  F ield         | OpenFOAM: The Open Source CFD Toolbox           |
|  \\    /   O peration     | Version:  2306                                  |
|   \\  /    A nd           | Website:  www.openfoam.com                      |
|    \\/     M anipulation  |                                                 |
\*---------------------------------------------------------------------------*/
Build  : a6e826bd55-20230630 OPENFOAM=2306 version=v2306
Arch   : "LSB;label=32;scalar=64"
Exec   : simpleFoam -parallel -case /home/greole/data/code/exasim_project/micro_benchmarks/WindsorBody/workspace/c77a5d29f1493d6c5ba8069928127260/case
Date   : Aug 27 2023
Time   : 12:15:59
Host   : nla-gpu2.ianm.kit.edu
PID    : 3065722
I/O    : uncollated
Case   : /home/greole/data/code/exasim_project/micro_benchmarks/WindsorBody/workspace/c77a5d29f1493d6c5ba8069928127260/case
nProcs : 32
Hosts  :
(
    (nla-gpu2.ianm.kit.edu 32)
)
Pstream initialized with:
    floatTransfer      : false
    nProcsSimpleSum    : 0
    nonBlockingExchange: 0 (tuning: 0)
    exchange algorithm : -1
    commsType          : nonBlocking
    polling iterations : 0
trapFpe: Floating point exception trapping enabled (FOAM_SIGFPE).
fileModificationChecking : Monitoring run-time modified files using timeStampMaster (fileModificationSkew 5, maxFileModificationPolls 20)
allowSystemOperations : Allowing user-supplied system call operations

// * * * * * * * * * * * * * * * * * * * * * * * * * * * * * * * * * * * * * //
Create time

--> FOAM Warning : 
    From void* Foam::dlLibraryTable::openLibrary(const Foam::fileName&, bool)
    in file db/dynamicLibrary/dlLibraryTable/dlLibraryTable.C at line 188
    Could not load "libpetscFoam.so"
libpetscFoam.so: cannot open shared object file: No such file or directory
Create mesh for time = 0


SIMPLE: convergence criteria
    field p	 tolerance 1e-08
    field U	 tolerance 1e-08
    field k	 tolerance 1e-08
    field omega	 tolerance 1e-08
    field nuTilda	 tolerance 1e-08

Reading field p

Reading field U

Reading/calculating face flux field phi

Selecting incompressible transport model Newtonian
Selecting turbulence model type RAS
Selecting RAS turbulence model SpalartAllmaras
Selecting patchDistMethod meshWave
ft2 term: inactive
RAS
{
    RASModel        SpalartAllmaras;
    turbulence      on;
    printCoeffs     on;
    sigmaNut        0.66666;
    kappa           0.41;
    Cb1             0.1355;
    Cb2             0.622;
    Cw2             0.3;
    Cw3             2;
    Cv1             7.1;
    Cs              0.3;
    ck              0.07000000000000001;
    ft2             false;
    Ct3             1.2;
    Ct4             0.5;
}

No MRF models present

Creating finite volume options from "system/fvOptions"

Selecting finite volume options type velocityDampingConstraint
    Source: velocityDamping
    - selecting all cells
    - selected 12614272 cell(s) with volume 55.65166103217553

Starting time loop

--> FOAM Warning : 
    From bool Foam::functionObjectList::read()
    in file db/functionObjects/functionObjectList/functionObjectList.C at line 1035
    Reading "system/controlDict" at line 2 to 41
    Entry 'lref' is not a dictionary
--> FOAM Warning : 
    From bool Foam::functionObjectList::read()
    in file db/functionObjects/functionObjectList/functionObjectList.C at line 1035
    Reading "system/controlDict" at line 2 to 41
    Entry 'Aref' is not a dictionary
--> FOAM Warning : 
    From bool Foam::functionObjectList::read()
    in file db/functionObjects/functionObjectList/functionObjectList.C at line 1035
    Reading "system/controlDict" at line 2 to 41
    Entry 'yawAngle' is not a dictionary
--> FOAM Warning : 
    From bool Foam::functionObjectList::read()
    in file db/functionObjects/functionObjectList/functionObjectList.C at line 1035
    Reading "system/controlDict" at line 2 to 41
    Entry 'lDomain' is not a dictionary
--> FOAM Warning : 
    From bool Foam::functionObjectList::read()
    in file db/functionObjects/functionObjectList/functionObjectList.C at line 1035
    Reading "system/controlDict" at line 2 to 41
    Entry 'bDomain' is not a dictionary
--> FOAM Warning : 
    From bool Foam::functionObjectList::read()
    in file db/functionObjects/functionObjectList/functionObjectList.C at line 1035
    Reading "system/controlDict" at line 2 to 41
    Entry 'hDomain' is not a dictionary
--> FOAM Warning : 
    From bool Foam::functionObjectList::read()
    in file db/functionObjects/functionObjectList/functionObjectList.C at line 1035
    Reading "system/controlDict" at line 2 to 41
    Entry 'xCenter' is not a dictionary
--> FOAM Warning : 
    From bool Foam::functionObjectList::read()
    in file db/functionObjects/functionObjectList/functionObjectList.C at line 1035
    Reading "system/controlDict" at line 2 to 41
    Entry 'yCenter' is not a dictionary
--> FOAM Warning : 
    From bool Foam::functionObjectList::read()
    in file db/functionObjects/functionObjectList/functionObjectList.C at line 1035
    Reading "system/controlDict" at line 2 to 41
    Entry 'zCenter' is not a dictionary
--> FOAM Warning : 
    From bool Foam::functionObjectList::read()
    in file db/functionObjects/functionObjectList/functionObjectList.C at line 1035
    Reading "system/controlDict" at line 2 to 41
    Entry 'inletPatch' is not a dictionary
--> FOAM Warning : 
    From bool Foam::functionObjectList::read()
    in file db/functionObjects/functionObjectList/functionObjectList.C at line 1035
    Reading "system/controlDict" at line 2 to 41
    Entry 'outletPatch' is not a dictionary
--> FOAM Warning : 
    From bool Foam::functionObjectList::read()
    in file db/functionObjects/functionObjectList/functionObjectList.C at line 1035
    Reading "system/controlDict" at line 2 to 41
    Entry 'wallPatches' is not a dictionary
--> FOAM Warning : 
    From bool Foam::functionObjectList::read()
    in file db/functionObjects/functionObjectList/functionObjectList.C at line 1035
    Reading "system/controlDict" at line 2 to 41
    Entry 'forcesWallPatches' is not a dictionary
--> FOAM Warning : 
    From bool Foam::functionObjectList::read()
    in file db/functionObjects/functionObjectList/functionObjectList.C at line 1035
    Reading "system/controlDict" at line 2 to 41
    Entry 'symmPatches' is not a dictionary
--> FOAM Warning : 
    From bool Foam::functionObjectList::read()
    in file db/functionObjects/functionObjectList/functionObjectList.C at line 1035
    Reading "system/controlDict" at line 2 to 41
    Entry 'Uinf' is not a dictionary
--> FOAM Warning : 
    From bool Foam::functionObjectList::read()
    in file db/functionObjects/functionObjectList/functionObjectList.C at line 1035
    Reading "system/controlDict" at line 2 to 41
    Entry 'UinfMag' is not a dictionary
--> FOAM Warning : 
    From bool Foam::functionObjectList::read()
    in file db/functionObjects/functionObjectList/functionObjectList.C at line 1035
    Reading "system/controlDict" at line 2 to 41
    Entry 'nu' is not a dictionary
--> FOAM Warning : 
    From bool Foam::functionObjectList::read()
    in file db/functionObjects/functionObjectList/functionObjectList.C at line 1035
    Reading "system/controlDict" at line 2 to 41
    Entry 'pref' is not a dictionary
--> FOAM Warning : 
    From bool Foam::functionObjectList::read()
    in file db/functionObjects/functionObjectList/functionObjectList.C at line 1035
    Reading "system/controlDict" at line 2 to 41
    Entry 'viscRatio' is not a dictionary
--> FOAM Warning : 
    From bool Foam::functionObjectList::read()
    in file db/functionObjects/functionObjectList/functionObjectList.C at line 1035
    Reading "system/controlDict" at line 2 to 41
    Entry 'Tu' is not a dictionary
--> FOAM Warning : 
    From bool Foam::functionObjectList::read()
    in file db/functionObjects/functionObjectList/functionObjectList.C at line 1035
    Reading "system/controlDict" at line 2 to 41
    Entry 'LESturbModel' is not a dictionary
--> FOAM Warning : 
    From bool Foam::functionObjectList::read()
    in file db/functionObjects/functionObjectList/functionObjectList.C at line 1035
    Reading "system/controlDict" at line 2 to 41
    Entry 'RASturbModel' is not a dictionary
--> FOAM Warning : 
    From bool Foam::functionObjectList::read()
    in file db/functionObjects/functionObjectList/functionObjectList.C at line 1035
    Reading "system/controlDict" at line 2 to 41
    Entry 'deltaTurb' is not a dictionary
--> FOAM Warning : 
    From bool Foam::functionObjectList::read()
    in file db/functionObjects/functionObjectList/functionObjectList.C at line 1035
    Reading "system/controlDict" at line 2 to 41
    Entry 'dt' is not a dictionary
--> FOAM Warning : 
    From bool Foam::functionObjectList::read()
    in file db/functionObjects/functionObjectList/functionObjectList.C at line 1035
    Reading "system/controlDict" at line 2 to 41
    Entry 'tAvg' is not a dictionary
--> FOAM Warning : 
    From bool Foam::functionObjectList::read()
    in file db/functionObjects/functionObjectList/functionObjectList.C at line 1035
    Reading "system/controlDict" at line 2 to 41
    Entry 'tEnd' is not a dictionary
--> FOAM Warning : 
    From bool Foam::functionObjectList::read()
    in file db/functionObjects/functionObjectList/functionObjectList.C at line 1035
    Reading "system/controlDict" at line 2 to 41
    Entry 'writeInterval_' is not a dictionary
--> FOAM Warning : 
    From bool Foam::functionObjectList::read()
    in file db/functionObjects/functionObjectList/functionObjectList.C at line 1035
    Reading "system/controlDict" at line 2 to 41
    Entry 'nCores' is not a dictionary
--> FOAM Warning : 
    From bool Foam::functionObjectList::read()
    in file db/functionObjects/functionObjectList/functionObjectList.C at line 1035
    Reading "system/controlDict" at line 2 to 41
    Entry 'interpScheme' is not a dictionary
--> FOAM Warning : 
    From bool Foam::functionObjectList::read()
    in file db/functionObjects/functionObjectList/functionObjectList.C at line 1035
    Reading "system/controlDict" at line 2 to 41
    Entry 'probeField' is not a dictionary
wallShearStress wallShearStress:
    processing wall patches: 
        Windsor_Body
        CFDWT_Floor
        Windsor_Pins
        Windsor_Base
        Windsor_Body_2
        CFDWT_Floor_2
        Windsor_Pins_2
        Windsor_Base_2

pressure calc_cp:
    Operating mode: staticCoeff
    Not including hydrostatic effects

forceCoeffs forceCoeffsAll:
    rho: rhoInf
    Freestream density (rhoInf) set to 1
    Not including porosity effects
    magUInf: 40
    lRef   : 0.6375
    Aref   : 0.1124
    rhoInf : 1
    Selecting all coefficients
    - Drag force: Cd
    - Drag force front: Cd(f)
    - Drag force rear: Cd(r)
    - Lift force: Cl
    - Lift force front: Cl(f)
    - Lift force rear: Cl(r)
    - Pitch moment: CmPitch
    - Roll moment: CmRoll
    - Yaw moment: CmYaw
    - Side force: Cs
    - Side force front: Cs(f)
    - Side force rear: Cs(r)


forceCoeffs dragCoeffBase:
    rho: rhoInf
    Freestream density (rhoInf) set to 1
    Not including porosity effects
    magUInf: 40
    lRef   : 0.6375
    Aref   : 0.1124
    rhoInf : 1
    Selecting coefficients:
    - Drag force: Cd


Time = 1

velocityDampingConstraint velocityDamping damped 0 (0%) of cells, with max limit 300
[INFO] MatrixAssemblyU: 897.919 [ms]
[OGL LOG][lduLduBase.H:119] Initialising OGL
	OGL commit:  4647ee1+
	Branch: PersistentDeviceIdGuard 
	Build type: Release
	Ginkgo version: 1.5.0 ( develop)
	Ginkgo commit: 4292ffdee
	MPI is GPU aware: 1
	Forces host buffer based communication: 0
	CPU ranks per GPU: 1
	Matrix format: Coo
	End OGL_INFO
[OGL LOG][Proc: 0]: global_index_init: 9.025 [ms]
[OGL LOG][Proc: 0]Ux_local_cols: call_init: 0.032 [ms]
[OGL LOG][Proc: 0]Ux_local_rows: call_init: 0.003 [ms]
[OGL LOG][Proc: 0]Ux_local_ldu_map: call_init: 0.002 [ms]
[OGL LOG][Proc: 0]Ux_local_coeffs: call_init: 0.005 [ms]
[OGL LOG][Proc: 0]Ux_non_local_cols: call_init: 0.003 [ms]
[OGL LOG][Proc: 0]Ux_non_local_rows: call_init: 0.003 [ms]
[OGL LOG][Proc: 0]Ux_non_local_ldu_map: call_init: 0.002 [ms]
[OGL LOG][Proc: 0]Ux_non_local_coeffs: call_init: 0.002 [ms]
[OGL LOG][Proc: 0]Ux: init_local_sparsity_pattern: 119.211 [ms]
[OGL LOG][Proc: 0]Ux: init_non_local_sparsity_pattern: 1.209 [ms]
[OGL LOG][Proc: 0]Ux: update_local_matrix_data: 17.53 [ms]
[OGL LOG][Proc: 0]Ux: update_non_local_matrix_data: 0.115 [ms]
[OGL LOG][Proc: 0]device_partition: call_init: 14.838 [ms]
[OGL LOG][Proc: 0]Ux_matrix: call_init: 116.46 [ms]
[OGL LOG][Proc: 0]Ux_rhs: call_init: 10.989 [ms]
[OGL LOG][Proc: 0]Ux_solution: call_init: 1.337 [ms]
[OGL LOG][Preconditioner.H:121] Generate preconditioner BJ MaxBlockSize 1
[OGL LOG][Proc: 0]Ux: init_precond: 6.991000000000001 [ms]
[OGL LOG][StoppingCriterion.H:373] Creating stopping criterion with minIter 0 frequency 1
[OGL LOG][Proc: 0]Ux: generate_solver: 0.018 [ms]
[OGL LOG][Proc: 0]Ux: solve: 1853.83 [ms]
[OGL LOG][Proc: 0]Ux: copy_x_back: 1.991 [ms]
[OGL LOG][lduLduBase.H:336] 
Statistics:
	Time per iteration: 77242 [mu s]
	Time per residual norm calculation: 2303.000000 [mu s]
	Time per iteration and DOF: 6.123382 [ns]
	Retrieve results bandwidth 1.903000 [GByte/s]
[OGL LOG][Proc: 0]Ux: solve_multi_gpu: 2007.594 [ms]
BJhipGKOBiCGStab:  Solving for Ux, Initial residual = 1.000000000000097, Final residual = 0.0587504026072715, No Iterations 24
[OGL LOG][lduLduBase.H:119] Initialising OGL
	OGL commit:  4647ee1+
	Branch: PersistentDeviceIdGuard 
	Build type: Release
	Ginkgo version: 1.5.0 ( develop)
	Ginkgo commit: 4292ffdee
	MPI is GPU aware: 1
	Forces host buffer based communication: 0
	CPU ranks per GPU: 1
	Matrix format: Coo
	End OGL_INFO
[OGL LOG][Proc: 0]: global_index_init: 1.521 [ms]
[OGL LOG][Proc: 0]Uy_local_cols: call_init: 0.006 [ms]
[OGL LOG][Proc: 0]Uy_local_rows: call_init: 0.003 [ms]
[OGL LOG][Proc: 0]Uy_local_ldu_map: call_init: 0.003 [ms]
[OGL LOG][Proc: 0]Uy_local_coeffs: call_init: 0.003 [ms]
[OGL LOG][Proc: 0]Uy_non_local_cols: call_init: 0.003 [ms]
[OGL LOG][Proc: 0]Uy_non_local_rows: call_init: 0.002 [ms]
[OGL LOG][Proc: 0]Uy_non_local_ldu_map: call_init: 0.002 [ms]
[OGL LOG][Proc: 0]Uy_non_local_coeffs: call_init: 0.002 [ms]
[OGL LOG][Proc: 0]Uy: init_local_sparsity_pattern: 124.778 [ms]
[OGL LOG][Proc: 0]Uy: init_non_local_sparsity_pattern: 2.233 [ms]
[OGL LOG][Proc: 0]Uy: update_local_matrix_data: 17.411 [ms]
[OGL LOG][Proc: 0]Uy: update_non_local_matrix_data: 0.143 [ms]
[OGL LOG][Proc: 0]Uy_matrix: call_init: 82.91 [ms]
[OGL LOG][Proc: 0]Uy_rhs: call_init: 9.883000000000001 [ms]
[OGL LOG][Proc: 0]Uy_solution: call_init: 2.191 [ms]
[OGL LOG][Preconditioner.H:121] Generate preconditioner BJ MaxBlockSize 1
[OGL LOG][Proc: 0]Uy: init_precond: 0.731 [ms]
[OGL LOG][StoppingCriterion.H:373] Creating stopping criterion with minIter 0 frequency 1
[OGL LOG][Proc: 0]Uy: generate_solver: 0.001 [ms]
[OGL LOG][Proc: 0]Uy: solve: 226.59 [ms]
[OGL LOG][Proc: 0]Uy: copy_x_back: 2.014 [ms]
[OGL LOG][lduLduBase.H:336] 
Statistics:
	Time per iteration: 4357 [mu s]
	Time per residual norm calculation: 326.000000 [mu s]
	Time per iteration and DOF: 0.345402 [ns]
	Retrieve results bandwidth 1.882000 [GByte/s]
[OGL LOG][Proc: 0]Uy: solve_multi_gpu: 325.535 [ms]
BJhipGKOBiCGStab:  Solving for Uy, Initial residual = 1.000000000000001, Final residual = 0.06026212192345066, No Iterations 52
[OGL LOG][lduLduBase.H:119] Initialising OGL
	OGL commit:  4647ee1+
	Branch: PersistentDeviceIdGuard 
	Build type: Release
	Ginkgo version: 1.5.0 ( develop)
	Ginkgo commit: 4292ffdee
	MPI is GPU aware: 1
	Forces host buffer based communication: 0
	CPU ranks per GPU: 1
	Matrix format: Coo
	End OGL_INFO
[OGL LOG][Proc: 0]: global_index_init: 2.835 [ms]
[OGL LOG][Proc: 0]Uz_local_cols: call_init: 0.006 [ms]
[OGL LOG][Proc: 0]Uz_local_rows: call_init: 0.002 [ms]
[OGL LOG][Proc: 0]Uz_local_ldu_map: call_init: 0.003 [ms]
[OGL LOG][Proc: 0]Uz_local_coeffs: call_init: 0.003 [ms]
[OGL LOG][Proc: 0]Uz_non_local_cols: call_init: 0.003 [ms]
[OGL LOG][Proc: 0]Uz_non_local_rows: call_init: 0.002 [ms]
[OGL LOG][Proc: 0]Uz_non_local_ldu_map: call_init: 0.003 [ms]
[OGL LOG][Proc: 0]Uz_non_local_coeffs: call_init: 0.002 [ms]
[OGL LOG][Proc: 0]Uz: init_local_sparsity_pattern: 135.66 [ms]
[OGL LOG][Proc: 0]Uz: init_non_local_sparsity_pattern: 0.914 [ms]
[OGL LOG][Proc: 0]Uz: update_local_matrix_data: 20.517 [ms]
[OGL LOG][Proc: 0]Uz: update_non_local_matrix_data: 0.18 [ms]
[OGL LOG][Proc: 0]Uz_matrix: call_init: 73.221 [ms]
[OGL LOG][Proc: 0]Uz_rhs: call_init: 9.593 [ms]
[OGL LOG][Proc: 0]Uz_solution: call_init: 1.471 [ms]
[OGL LOG][Preconditioner.H:121] Generate preconditioner BJ MaxBlockSize 1
[OGL LOG][Proc: 0]Uz: init_precond: 0.7030000000000001 [ms]
[OGL LOG][StoppingCriterion.H:373] Creating stopping criterion with minIter 0 frequency 1
[OGL LOG][Proc: 0]Uz: generate_solver: 0.001 [ms]
[OGL LOG][Proc: 0]Uz: solve: 62.315 [ms]
[OGL LOG][Proc: 0]Uz: copy_x_back: 2.003 [ms]
[OGL LOG][lduLduBase.H:336] 
Statistics:
	Time per iteration: 62315 [mu s]
	Time per residual norm calculation: 330.000000 [mu s]
	Time per iteration and DOF: 4.940039 [ns]
	Retrieve results bandwidth 1.892000 [GByte/s]
[OGL LOG][Proc: 0]Uz: solve_multi_gpu: 150.493 [ms]
BJhipGKOBiCGStab:  Solving for Uz, Initial residual = 1.000000000000022, Final residual = 0.09952964467305665, No Iterations 1
[INFO] MomentumPredictor: 3367.605 [ms]
[INFO] MatrixAssemblyPI: 163.435 [ms]
[INFO] MatrixAssemblyPII: 73.45 [ms]
GAMG:  Solving for p, Initial residual = 1, Final residual = 0.009588064353703754, No Iterations 25
[INFO] SolveP: 2099.544 [ms]
time step continuity errors : sum local = 0.003519698569383359, global = 7.042963426643838e-06, cumulative = 7.042963426643838e-06
[INFO] postSolveP: 39.083 [ms]
[OGL LOG][lduLduBase.H:119] Initialising OGL
	OGL commit:  4647ee1+
	Branch: PersistentDeviceIdGuard 
	Build type: Release
	Ginkgo version: 1.5.0 ( develop)
	Ginkgo commit: 4292ffdee
	MPI is GPU aware: 1
	Forces host buffer based communication: 0
	CPU ranks per GPU: 1
	Matrix format: Coo
	End OGL_INFO
[OGL LOG][Proc: 0]: global_index_init: 1.635 [ms]
[OGL LOG][Proc: 0]nuTilda_local_cols: call_init: 0.01 [ms]
[OGL LOG][Proc: 0]nuTilda_local_rows: call_init: 0.004 [ms]
[OGL LOG][Proc: 0]nuTilda_local_ldu_map: call_init: 0.004 [ms]
[OGL LOG][Proc: 0]nuTilda_local_coeffs: call_init: 0.004 [ms]
[OGL LOG][Proc: 0]nuTilda_non_local_cols: call_init: 0.003 [ms]
[OGL LOG][Proc: 0]nuTilda_non_local_rows: call_init: 0.003 [ms]
[OGL LOG][Proc: 0]nuTilda_non_local_ldu_map: call_init: 0.003 [ms]
[OGL LOG][Proc: 0]nuTilda_non_local_coeffs: call_init: 0.002 [ms]
[OGL LOG][Proc: 0]nuTilda: init_local_sparsity_pattern: 120.488 [ms]
[OGL LOG][Proc: 0]nuTilda: init_non_local_sparsity_pattern: 1.842 [ms]
[OGL LOG][Proc: 0]nuTilda: update_local_matrix_data: 20.444 [ms]
[OGL LOG][Proc: 0]nuTilda: update_non_local_matrix_data: 0.198 [ms]
[OGL LOG][Proc: 0]nuTilda_matrix: call_init: 68.383 [ms]
[OGL LOG][Proc: 0]nuTilda_rhs: call_init: 8.849 [ms]
[OGL LOG][Proc: 0]nuTilda_solution: call_init: 3.07 [ms]
[OGL LOG][Preconditioner.H:121] Generate preconditioner BJ MaxBlockSize 1
[OGL LOG][Proc: 0]nuTilda: init_precond: 0.714 [ms]
[OGL LOG][StoppingCriterion.H:373] Creating stopping criterion with minIter 0 frequency 1
[OGL LOG][Proc: 0]nuTilda: generate_solver: 0.001 [ms]
[OGL LOG][Proc: 0]nuTilda: solve: 68.386 [ms]
[OGL LOG][Proc: 0]nuTilda: copy_x_back: 2.031 [ms]
[OGL LOG][lduLduBase.H:336] 
Statistics:
	Time per iteration: 34193 [mu s]
	Time per residual norm calculation: 315.000000 [mu s]
	Time per iteration and DOF: 2.710660 [ns]
	Retrieve results bandwidth 1.866000 [GByte/s]
[OGL LOG][Proc: 0]nuTilda: solve_multi_gpu: 152.762 [ms]
BJhipGKOBiCGStab:  Solving for nuTilda, Initial residual = 0.9999999999971049, Final residual = 0.09405371901425427, No Iterations 2
[INFO] TimeStep: 7408.353 [ms]
ExecutionTime = 19.09 s  ClockTime = 19 s

--> FOAM Warning : 
    From virtual bool Foam::functionObjects::fieldSelection::checkSelection()
    in file functionObjects/fieldSelections/fieldSelection/fieldSelection.C at line 166
    Field k not found
--> FOAM Warning : 
    From virtual bool Foam::functionObjects::fieldSelection::checkSelection()
    in file functionObjects/fieldSelections/fieldSelection/fieldSelection.C at line 166
    Field gammaInt not found
--> FOAM Warning : 
    From virtual bool Foam::functionObjects::fieldSelection::checkSelection()
    in file functionObjects/fieldSelections/fieldSelection/fieldSelection.C at line 166
    Field omega not found
--> FOAM Warning : 
    From virtual bool Foam::functionObjects::fieldSelection::checkSelection()
    in file functionObjects/fieldSelections/fieldSelection/fieldSelection.C at line 166
    Field ReThetat not found
--> FOAM Warning : 
    From virtual bool Foam::functionObjects::fieldSelection::checkSelection()
    in file functionObjects/fieldSelections/fieldSelection/fieldSelection.C at line 166
    Field epsilon not found
--> FOAM Warning : 
    From virtual bool Foam::functionObjects::solverFieldSelection::updateSelection()
    in file functionObjects/fieldSelections/solverFieldSelection/solverFieldSelection.C at line 85
    Valid solver fields are: 3(U nuTilda p)Time = 2

velocityDampingConstraint velocityDamping damped 0 (0%) of cells, with max limit 300
[INFO] MatrixAssemblyU: 839.513 [ms]
[OGL LOG][Proc: 0]: global_index_init: 0.237 [ms]
[OGL LOG][Proc: 0]Ux_local_coeffs: call_update: 0.001 [ms]
[OGL LOG][Proc: 0]Ux_non_local_coeffs: call_update: 0 [ms]
[OGL LOG][Proc: 0]Ux: update_local_matrix_data: 19.642 [ms]
[OGL LOG][Proc: 0]Ux: update_non_local_matrix_data: 0.08400000000000001 [ms]
[OGL LOG][Proc: 0]Ux_matrix: call_update: 7.98 [ms]
[OGL LOG][Proc: 0]Ux_rhs: call_update: 5.227 [ms]
[OGL LOG][Preconditioner.H:121] Generate preconditioner BJ MaxBlockSize 1
[OGL LOG][Proc: 0]Ux: init_precond: 0.5690000000000001 [ms]
[OGL LOG][StoppingCriterion.H:373] Creating stopping criterion with minIter 28 frequency 1
[OGL LOG][Proc: 0]Ux: generate_solver: 0.001 [ms]
[OGL LOG][Proc: 0]Ux: solve: 142.318 [ms]
[OGL LOG][Proc: 0]Ux: copy_x_back: 1.954 [ms]
[OGL LOG][lduLduBase.H:336] 
Statistics:
	Time per iteration: 10165 [mu s]
	Time per residual norm calculation: 318.000000 [mu s]
	Time per iteration and DOF: 0.805833 [ns]
	Retrieve results bandwidth 1.939000 [GByte/s]
[OGL LOG][Proc: 0]Ux: solve_multi_gpu: 159.184 [ms]
BJhipGKOBiCGStab:  Solving for Ux, Initial residual = 0.6034603397557033, Final residual = 0.03846646301252275, No Iterations 14
[OGL LOG][Proc: 0]: global_index_init: 1.319 [ms]
[OGL LOG][Proc: 0]Uy_local_coeffs: call_update: 0 [ms]
[OGL LOG][Proc: 0]Uy_non_local_coeffs: call_update: 0 [ms]
[OGL LOG][Proc: 0]Uy: update_local_matrix_data: 19.69 [ms]
[OGL LOG][Proc: 0]Uy: update_non_local_matrix_data: 0.161 [ms]
[OGL LOG][Proc: 0]Uy_matrix: call_update: 5.37 [ms]
[OGL LOG][Proc: 0]Uy_rhs: call_update: 6.063 [ms]
[OGL LOG][Preconditioner.H:121] Generate preconditioner BJ MaxBlockSize 1
[OGL LOG][Proc: 0]Uy: init_precond: 0.649 [ms]
[OGL LOG][StoppingCriterion.H:373] Creating stopping criterion with minIter 62 frequency 1
[OGL LOG][Proc: 0]Uy: generate_solver: 0.001 [ms]
[OGL LOG][Proc: 0]Uy: solve: 164.329 [ms]
[OGL LOG][Proc: 0]Uy: copy_x_back: 2.206 [ms]
[OGL LOG][lduLduBase.H:336] 
Statistics:
	Time per iteration: 5300 [mu s]
	Time per residual norm calculation: 324.000000 [mu s]
	Time per iteration and DOF: 0.420159 [ns]
	Retrieve results bandwidth 1.718000 [GByte/s]
[OGL LOG][Proc: 0]Uy: solve_multi_gpu: 179.869 [ms]
BJhipGKOBiCGStab:  Solving for Uy, Initial residual = 0.9975358658166114, Final residual = 0.001349207331168195, No Iterations 31
[OGL LOG][Proc: 0]: global_index_init: 0.215 [ms]
[OGL LOG][Proc: 0]Uz_local_coeffs: call_update: 0 [ms]
[OGL LOG][Proc: 0]Uz_non_local_coeffs: call_update: 0 [ms]
[OGL LOG][Proc: 0]Uz: update_local_matrix_data: 22.216 [ms]
[OGL LOG][Proc: 0]Uz: update_non_local_matrix_data: 0.092 [ms]
[OGL LOG][Proc: 0]Uz_matrix: call_update: 8.66 [ms]
[OGL LOG][Proc: 0]Uz_rhs: call_update: 2.394 [ms]
[OGL LOG][Preconditioner.H:121] Generate preconditioner BJ MaxBlockSize 1
[OGL LOG][Proc: 0]Uz: init_precond: 0.637 [ms]
[OGL LOG][StoppingCriterion.H:373] Creating stopping criterion with minIter 1 frequency 1
[OGL LOG][Proc: 0]Uz: generate_solver: 0 [ms]
[OGL LOG][Proc: 0]Uz: solve: 75.85300000000001 [ms]
[OGL LOG][Proc: 0]Uz: copy_x_back: 1.992 [ms]
[OGL LOG][lduLduBase.H:336] 
Statistics:
	Time per iteration: 6895 [mu s]
	Time per residual norm calculation: 326.000000 [mu s]
	Time per iteration and DOF: 0.546603 [ns]
	Retrieve results bandwidth 1.902000 [GByte/s]
[OGL LOG][Proc: 0]Uz: solve_multi_gpu: 90.708 [ms]
BJhipGKOBiCGStab:  Solving for Uz, Initial residual = 0.9999537265718027, Final residual = 0.07575686223123111, No Iterations 11
[INFO] MomentumPredictor: 570.918 [ms]
[INFO] MatrixAssemblyPI: 158.034 [ms]
[INFO] MatrixAssemblyPII: 75.59099999999999 [ms]
GAMG:  Solving for p, Initial residual = 0.2210840224983435, Final residual = 0.002002599442292046, No Iterations 13
[INFO] SolveP: 968.3049999999999 [ms]
time step continuity errors : sum local = 0.04126281796621876, global = -0.0003043154314103848, cumulative = -0.000297272467983741
[INFO] postSolveP: 41.406 [ms]
[OGL LOG][Proc: 0]: global_index_init: 0.054 [ms]
[OGL LOG][Proc: 0]nuTilda_local_coeffs: call_update: 0 [ms]
[OGL LOG][Proc: 0]nuTilda_non_local_coeffs: call_update: 0 [ms]
[OGL LOG][Proc: 0]nuTilda: update_local_matrix_data: 21.589 [ms]
[OGL LOG][Proc: 0]nuTilda: update_non_local_matrix_data: 0.095 [ms]
[OGL LOG][Proc: 0]nuTilda_matrix: call_update: 5.595 [ms]
[OGL LOG][Proc: 0]nuTilda_rhs: call_update: 5.671 [ms]
[OGL LOG][Preconditioner.H:121] Generate preconditioner BJ MaxBlockSize 1
[OGL LOG][Proc: 0]nuTilda: init_precond: 0.581 [ms]
[OGL LOG][StoppingCriterion.H:373] Creating stopping criterion with minIter 3 frequency 1
[OGL LOG][Proc: 0]nuTilda: generate_solver: 0.001 [ms]
[OGL LOG][Proc: 0]nuTilda: solve: 43.068 [ms]
[OGL LOG][Proc: 0]nuTilda: copy_x_back: 2.049 [ms]
[OGL LOG][lduLduBase.H:336] 
Statistics:
	Time per iteration: 21534 [mu s]
	Time per residual norm calculation: 338.000000 [mu s]
	Time per iteration and DOF: 1.707114 [ns]
	Retrieve results bandwidth 1.849000 [GByte/s]
[OGL LOG][Proc: 0]nuTilda: solve_multi_gpu: 58.243 [ms]
BJhipGKOBiCGStab:  Solving for nuTilda, Initial residual = 0.4031416044933319, Final residual = 0.006122104073629906, No Iterations 2
[INFO] TimeStep: 3208.119 [ms]
ExecutionTime = 22.93 s  ClockTime = 23 s

Time = 3

velocityDampingConstraint velocityDamping damped 1789 (0.01%) of cells, with max limit 300
[INFO] MatrixAssemblyU: 844.962 [ms]
[OGL LOG][Proc: 0]: global_index_init: 0.227 [ms]
[OGL LOG][Proc: 0]Ux_local_coeffs: call_update: 0 [ms]
[OGL LOG][Proc: 0]Ux_non_local_coeffs: call_update: 0 [ms]
[OGL LOG][Proc: 0]Ux: update_local_matrix_data: 20.371 [ms]
[OGL LOG][Proc: 0]Ux: update_non_local_matrix_data: 0.09 [ms]
[OGL LOG][Proc: 0]Ux_matrix: call_update: 8.286 [ms]
[OGL LOG][Proc: 0]Ux_rhs: call_update: 2.108 [ms]
[OGL LOG][Preconditioner.H:121] Generate preconditioner BJ MaxBlockSize 1
[OGL LOG][Proc: 0]Ux: init_precond: 0.644 [ms]
[OGL LOG][StoppingCriterion.H:373] Creating stopping criterion with minIter 17 frequency 1
[OGL LOG][Proc: 0]Ux: generate_solver: 0.001 [ms]
[OGL LOG][Proc: 0]Ux: solve: 94.863 [ms]
[OGL LOG][Proc: 0]Ux: copy_x_back: 2.194 [ms]
[OGL LOG][lduLduBase.H:336] 
Statistics:
	Time per iteration: 6775 [mu s]
	Time per residual norm calculation: 372.000000 [mu s]
	Time per iteration and DOF: 0.537090 [ns]
	Retrieve results bandwidth 1.727000 [GByte/s]
[OGL LOG][Proc: 0]Ux: solve_multi_gpu: 109.332 [ms]
BJhipGKOBiCGStab:  Solving for Ux, Initial residual = 0.1289599133269957, Final residual = 0.006224390035397684, No Iterations 14
[OGL LOG][Proc: 0]: global_index_init: 0.429 [ms]
[OGL LOG][Proc: 0]Uy_local_coeffs: call_update: 0 [ms]
[OGL LOG][Proc: 0]Uy_non_local_coeffs: call_update: 0 [ms]
[OGL LOG][Proc: 0]Uy: update_local_matrix_data: 20.214 [ms]
[OGL LOG][Proc: 0]Uy: update_non_local_matrix_data: 0.089 [ms]
[OGL LOG][Proc: 0]Uy_matrix: call_update: 5.521 [ms]
[OGL LOG][Proc: 0]Uy_rhs: call_update: 5.621 [ms]
[OGL LOG][Preconditioner.H:121] Generate preconditioner BJ MaxBlockSize 1
[OGL LOG][Proc: 0]Uy: init_precond: 0.582 [ms]
[OGL LOG][StoppingCriterion.H:373] Creating stopping criterion with minIter 37 frequency 1
[OGL LOG][Proc: 0]Uy: generate_solver: 0.001 [ms]
[OGL LOG][Proc: 0]Uy: solve: 126.047 [ms]
[OGL LOG][Proc: 0]Uy: copy_x_back: 2.036 [ms]
[OGL LOG][lduLduBase.H:336] 
Statistics:
	Time per iteration: 6634 [mu s]
	Time per residual norm calculation: 325.000000 [mu s]
	Time per iteration and DOF: 0.525912 [ns]
	Retrieve results bandwidth 1.861000 [GByte/s]
[OGL LOG][Proc: 0]Uy: solve_multi_gpu: 141.027 [ms]
BJhipGKOBiCGStab:  Solving for Uy, Initial residual = 0.2869426875719944, Final residual = 0.01108402434847226, No Iterations 19
[OGL LOG][Proc: 0]: global_index_init: 2.12 [ms]
[OGL LOG][Proc: 0]Uz_local_coeffs: call_update: 0 [ms]
[OGL LOG][Proc: 0]Uz_non_local_coeffs: call_update: 0 [ms]
[OGL LOG][Proc: 0]Uz: update_local_matrix_data: 20.073 [ms]
[OGL LOG][Proc: 0]Uz: update_non_local_matrix_data: 0.168 [ms]
[OGL LOG][Proc: 0]Uz_matrix: call_update: 5.201000000000001 [ms]
[OGL LOG][Proc: 0]Uz_rhs: call_update: 8.205 [ms]
[OGL LOG][Preconditioner.H:121] Generate preconditioner BJ MaxBlockSize 1
[OGL LOG][Proc: 0]Uz: init_precond: 6.773000000000001 [ms]
[OGL LOG][StoppingCriterion.H:373] Creating stopping criterion with minIter 13 frequency 1
[OGL LOG][Proc: 0]Uz: generate_solver: 0.001 [ms]
[OGL LOG][Proc: 0]Uz: solve: 75.04000000000001 [ms]
[OGL LOG][Proc: 0]Uz: copy_x_back: 1.993 [ms]
[OGL LOG][lduLduBase.H:336] 
Statistics:
	Time per iteration: 6253 [mu s]
	Time per residual norm calculation: 321.000000 [mu s]
	Time per iteration and DOF: 0.495708 [ns]
	Retrieve results bandwidth 1.901000 [GByte/s]
[OGL LOG][Proc: 0]Uz: solve_multi_gpu: 98.38200000000001 [ms]
BJhipGKOBiCGStab:  Solving for Uz, Initial residual = 0.2709224859972352, Final residual = 0.02153813220124549, No Iterations 12
[INFO] MomentumPredictor: 489.648 [ms]
[INFO] MatrixAssemblyPI: 158.937 [ms]
[INFO] MatrixAssemblyPII: 75.672 [ms]
GAMG:  Solving for p, Initial residual = 0.174238453439585, Final residual = 0.001601011254645822, No Iterations 11
[INFO] SolveP: 846.025 [ms]
time step continuity errors : sum local = 0.01940221215945009, global = -7.426404642581453e-05, cumulative = -0.0003715365144095555
[INFO] postSolveP: 41.003 [ms]
[OGL LOG][Proc: 0]: global_index_init: 0.6950000000000001 [ms]
[OGL LOG][Proc: 0]nuTilda_local_coeffs: call_update: 0 [ms]
[OGL LOG][Proc: 0]nuTilda_non_local_coeffs: call_update: 0 [ms]
[OGL LOG][Proc: 0]nuTilda: update_local_matrix_data: 20.112 [ms]
[OGL LOG][Proc: 0]nuTilda: update_non_local_matrix_data: 0.169 [ms]
[OGL LOG][Proc: 0]nuTilda_matrix: call_update: 6.301 [ms]
[OGL LOG][Proc: 0]nuTilda_rhs: call_update: 5.314 [ms]
[OGL LOG][Preconditioner.H:121] Generate preconditioner BJ MaxBlockSize 1
[OGL LOG][Proc: 0]nuTilda: init_precond: 0.64 [ms]
[OGL LOG][StoppingCriterion.H:373] Creating stopping criterion with minIter 2 frequency 1
[OGL LOG][Proc: 0]nuTilda: generate_solver: 0.001 [ms]
[OGL LOG][Proc: 0]nuTilda: solve: 46.816 [ms]
[OGL LOG][Proc: 0]nuTilda: copy_x_back: 1.914 [ms]
[OGL LOG][lduLduBase.H:336] 
Statistics:
	Time per iteration: 23408 [mu s]
	Time per residual norm calculation: 333.000000 [mu s]
	Time per iteration and DOF: 1.855676 [ns]
	Retrieve results bandwidth 1.980000 [GByte/s]
[OGL LOG][Proc: 0]nuTilda: solve_multi_gpu: 62.093 [ms]
BJhipGKOBiCGStab:  Solving for nuTilda, Initial residual = 0.1876180355224173, Final residual = 0.01434499951071285, No Iterations 2
bounding nuTilda, min: -8.735049507414847e-05 max: 0.0008905259947386103 average: 7.989252149739204e-05
[INFO] TimeStep: 3044.294 [ms]
ExecutionTime = 26.61 s  ClockTime = 27 s

Time = 4

velocityDampingConstraint velocityDamping damped 124 (0%) of cells, with max limit 300
[INFO] MatrixAssemblyU: 861.404 [ms]
[OGL LOG][Proc: 0]: global_index_init: 0.2 [ms]
[OGL LOG][Proc: 0]Ux_local_coeffs: call_update: 0 [ms]
[OGL LOG][Proc: 0]Ux_non_local_coeffs: call_update: 0 [ms]
[OGL LOG][Proc: 0]Ux: update_local_matrix_data: 20.674 [ms]
[OGL LOG][Proc: 0]Ux: update_non_local_matrix_data: 0.08700000000000001 [ms]
[OGL LOG][Proc: 0]Ux_matrix: call_update: 6.083 [ms]
[OGL LOG][Proc: 0]Ux_rhs: call_update: 3.017 [ms]
[OGL LOG][Preconditioner.H:121] Generate preconditioner BJ MaxBlockSize 1
[OGL LOG][Proc: 0]Ux: init_precond: 0.5720000000000001 [ms]
[OGL LOG][StoppingCriterion.H:373] Creating stopping criterion with minIter 16 frequency 1
[OGL LOG][Proc: 0]Ux: generate_solver: 0.001 [ms]
[OGL LOG][Proc: 0]Ux: solve: 63.072 [ms]
[OGL LOG][Proc: 0]Ux: copy_x_back: 2.03 [ms]
[OGL LOG][lduLduBase.H:336] 
Statistics:
	Time per iteration: 7008 [mu s]
	Time per residual norm calculation: 321.000000 [mu s]
	Time per iteration and DOF: 0.555561 [ns]
	Retrieve results bandwidth 1.867000 [GByte/s]
[OGL LOG][Proc: 0]Ux: solve_multi_gpu: 75.998 [ms]
BJhipGKOBiCGStab:  Solving for Ux, Initial residual = 0.1425543308202532, Final residual = 0.01202015914453332, No Iterations 9
[OGL LOG][Proc: 0]: global_index_init: 0.351 [ms]
[OGL LOG][Proc: 0]Uy_local_coeffs: call_update: 0 [ms]
[OGL LOG][Proc: 0]Uy_non_local_coeffs: call_update: 0 [ms]
[OGL LOG][Proc: 0]Uy: update_local_matrix_data: 20.575 [ms]
[OGL LOG][Proc: 0]Uy: update_non_local_matrix_data: 0.098 [ms]
[OGL LOG][Proc: 0]Uy_matrix: call_update: 5.721 [ms]
[OGL LOG][Proc: 0]Uy_rhs: call_update: 5.892 [ms]
[OGL LOG][Preconditioner.H:121] Generate preconditioner BJ MaxBlockSize 1
[OGL LOG][Proc: 0]Uy: init_precond: 0.646 [ms]
[OGL LOG][StoppingCriterion.H:373] Creating stopping criterion with minIter 22 frequency 1
[OGL LOG][Proc: 0]Uy: generate_solver: 0.001 [ms]
[OGL LOG][Proc: 0]Uy: solve: 68.992 [ms]
[OGL LOG][Proc: 0]Uy: copy_x_back: 2.008 [ms]
[OGL LOG][lduLduBase.H:336] 
Statistics:
	Time per iteration: 5749 [mu s]
	Time per residual norm calculation: 329.000000 [mu s]
	Time per iteration and DOF: 0.455754 [ns]
	Retrieve results bandwidth 1.887000 [GByte/s]
[OGL LOG][Proc: 0]Uy: solve_multi_gpu: 84.443 [ms]
BJhipGKOBiCGStab:  Solving for Uy, Initial residual = 0.1827066345863285, Final residual = 0.01345020785797536, No Iterations 12
[OGL LOG][Proc: 0]: global_index_init: 6.562 [ms]
[OGL LOG][Proc: 0]Uz_local_coeffs: call_update: 0 [ms]
[OGL LOG][Proc: 0]Uz_non_local_coeffs: call_update: 0 [ms]
[OGL LOG][Proc: 0]Uz: update_local_matrix_data: 22.647 [ms]
[OGL LOG][Proc: 0]Uz: update_non_local_matrix_data: 0.091 [ms]
[OGL LOG][Proc: 0]Uz_matrix: call_update: 5.101 [ms]
[OGL LOG][Proc: 0]Uz_rhs: call_update: 5.736 [ms]
[OGL LOG][Preconditioner.H:121] Generate preconditioner BJ MaxBlockSize 1
[OGL LOG][Proc: 0]Uz: init_precond: 0.655 [ms]
[OGL LOG][StoppingCriterion.H:373] Creating stopping criterion with minIter 14 frequency 1
[OGL LOG][Proc: 0]Uz: generate_solver: 0.001 [ms]
[OGL LOG][Proc: 0]Uz: solve: 72.852 [ms]
[OGL LOG][Proc: 0]Uz: copy_x_back: 2.005 [ms]
[OGL LOG][lduLduBase.H:336] 
Statistics:
	Time per iteration: 6622 [mu s]
	Time per residual norm calculation: 325.000000 [mu s]
	Time per iteration and DOF: 0.524961 [ns]
	Retrieve results bandwidth 1.890000 [GByte/s]
[OGL LOG][Proc: 0]Uz: solve_multi_gpu: 87.526 [ms]
BJhipGKOBiCGStab:  Solving for Uz, Initial residual = 0.1989526438763538, Final residual = 0.01785388429385335, No Iterations 11
[INFO] MomentumPredictor: 395.216 [ms]
[INFO] MatrixAssemblyPI: 158.365 [ms]
[INFO] MatrixAssemblyPII: 75.277 [ms]
GAMG:  Solving for p, Initial residual = 0.1438364634673428, Final residual = 0.001239701411037481, No Iterations 9
[INFO] SolveP: 680.221 [ms]
time step continuity errors : sum local = 0.01648188005353425, global = -0.0001275337549468633, cumulative = -0.0004990702693564188
[INFO] postSolveP: 42.257 [ms]
[OGL LOG][Proc: 0]: global_index_init: 0.112 [ms]
[OGL LOG][Proc: 0]nuTilda_local_coeffs: call_update: 0 [ms]
[OGL LOG][Proc: 0]nuTilda_non_local_coeffs: call_update: 0 [ms]
[OGL LOG][Proc: 0]nuTilda: update_local_matrix_data: 22.256 [ms]
[OGL LOG][Proc: 0]nuTilda: update_non_local_matrix_data: 0.099 [ms]
[OGL LOG][Proc: 0]nuTilda_matrix: call_update: 4.718 [ms]
[OGL LOG][Proc: 0]nuTilda_rhs: call_update: 6.541 [ms]
[OGL LOG][Preconditioner.H:121] Generate preconditioner BJ MaxBlockSize 1
[OGL LOG][Proc: 0]nuTilda: init_precond: 0.6900000000000001 [ms]
[OGL LOG][StoppingCriterion.H:373] Creating stopping criterion with minIter 2 frequency 1
[OGL LOG][Proc: 0]nuTilda: generate_solver: 0.001 [ms]
[OGL LOG][Proc: 0]nuTilda: solve: 43.727 [ms]
[OGL LOG][Proc: 0]nuTilda: copy_x_back: 2.006 [ms]
[OGL LOG][lduLduBase.H:336] 
Statistics:
	Time per iteration: 21863 [mu s]
	Time per residual norm calculation: 620.000000 [mu s]
	Time per iteration and DOF: 1.733196 [ns]
	Retrieve results bandwidth 1.889000 [GByte/s]
[OGL LOG][Proc: 0]nuTilda: solve_multi_gpu: 58.928 [ms]
BJhipGKOBiCGStab:  Solving for nuTilda, Initial residual = 0.1099073505538671, Final residual = 0.009461826542657186, No Iterations 2
[INFO] TimeStep: 2771.808 [ms]
ExecutionTime = 30.04 s  ClockTime = 30 s

Time = 5

velocityDampingConstraint velocityDamping damped 120 (0%) of cells, with max limit 300
[INFO] MatrixAssemblyU: 866.405 [ms]
[OGL LOG][Proc: 0]: global_index_init: 0.265 [ms]
[OGL LOG][Proc: 0]Ux_local_coeffs: call_update: 0 [ms]
[OGL LOG][Proc: 0]Ux_non_local_coeffs: call_update: 0 [ms]
[OGL LOG][Proc: 0]Ux: update_local_matrix_data: 20.213 [ms]
[OGL LOG][Proc: 0]Ux: update_non_local_matrix_data: 0.097 [ms]
[OGL LOG][Proc: 0]Ux_matrix: call_update: 5.521 [ms]
[OGL LOG][Proc: 0]Ux_rhs: call_update: 5.02 [ms]
[OGL LOG][Preconditioner.H:121] Generate preconditioner BJ MaxBlockSize 1
[OGL LOG][Proc: 0]Ux: init_precond: 0.633 [ms]
[OGL LOG][StoppingCriterion.H:373] Creating stopping criterion with minIter 10 frequency 1
[OGL LOG][Proc: 0]Ux: generate_solver: 0.001 [ms]
[OGL LOG][Proc: 0]Ux: solve: 97.626 [ms]
[OGL LOG][Proc: 0]Ux: copy_x_back: 1.999 [ms]
[OGL LOG][lduLduBase.H:336] 
Statistics:
	Time per iteration: 8135 [mu s]
	Time per residual norm calculation: 302.000000 [mu s]
	Time per iteration and DOF: 0.644904 [ns]
	Retrieve results bandwidth 1.896000 [GByte/s]
[OGL LOG][Proc: 0]Ux: solve_multi_gpu: 112.014 [ms]
BJhipGKOBiCGStab:  Solving for Ux, Initial residual = 0.07834027787093956, Final residual = 0.00752399464691804, No Iterations 12
[OGL LOG][Proc: 0]: global_index_init: 0.056 [ms]
[OGL LOG][Proc: 0]Uy_local_coeffs: call_update: 0 [ms]
[OGL LOG][Proc: 0]Uy_non_local_coeffs: call_update: 0 [ms]
[OGL LOG][Proc: 0]Uy: update_local_matrix_data: 19.908 [ms]
[OGL LOG][Proc: 0]Uy: update_non_local_matrix_data: 0.163 [ms]
[OGL LOG][Proc: 0]Uy_matrix: call_update: 5.328 [ms]
[OGL LOG][Proc: 0]Uy_rhs: call_update: 8.881 [ms]
[OGL LOG][Preconditioner.H:121] Generate preconditioner BJ MaxBlockSize 1
[OGL LOG][Proc: 0]Uy: init_precond: 0.67 [ms]
[OGL LOG][StoppingCriterion.H:373] Creating stopping criterion with minIter 14 frequency 1
[OGL LOG][Proc: 0]Uy: generate_solver: 0.001 [ms]
[OGL LOG][Proc: 0]Uy: solve: 68.199 [ms]
[OGL LOG][Proc: 0]Uy: copy_x_back: 1.945 [ms]
[OGL LOG][lduLduBase.H:336] 
Statistics:
	Time per iteration: 6819 [mu s]
	Time per residual norm calculation: 325.000000 [mu s]
	Time per iteration and DOF: 0.540578 [ns]
	Retrieve results bandwidth 1.948000 [GByte/s]
[OGL LOG][Proc: 0]Uy: solve_multi_gpu: 86.221 [ms]
BJhipGKOBiCGStab:  Solving for Uy, Initial residual = 0.1705004584391726, Final residual = 0.01537605500462129, No Iterations 10
[OGL LOG][Proc: 0]: global_index_init: 0.147 [ms]
[OGL LOG][Proc: 0]Uz_local_coeffs: call_update: 0 [ms]
[OGL LOG][Proc: 0]Uz_non_local_coeffs: call_update: 0 [ms]
[OGL LOG][Proc: 0]Uz: update_local_matrix_data: 20.342 [ms]
[OGL LOG][Proc: 0]Uz: update_non_local_matrix_data: 0.08799999999999999 [ms]
[OGL LOG][Proc: 0]Uz_matrix: call_update: 6.097 [ms]
[OGL LOG][Proc: 0]Uz_rhs: call_update: 4.496 [ms]
[OGL LOG][Preconditioner.H:121] Generate preconditioner BJ MaxBlockSize 1
[OGL LOG][Proc: 0]Uz: init_precond: 0.587 [ms]
[OGL LOG][StoppingCriterion.H:373] Creating stopping criterion with minIter 13 frequency 1
[OGL LOG][Proc: 0]Uz: generate_solver: 0.001 [ms]
[OGL LOG][Proc: 0]Uz: solve: 71.979 [ms]
[OGL LOG][Proc: 0]Uz: copy_x_back: 1.994 [ms]
[OGL LOG][lduLduBase.H:336] 
Statistics:
	Time per iteration: 7197 [mu s]
	Time per residual norm calculation: 329.000000 [mu s]
	Time per iteration and DOF: 0.570544 [ns]
	Retrieve results bandwidth 1.900000 [GByte/s]
[OGL LOG][Proc: 0]Uz: solve_multi_gpu: 86.337 [ms]
BJhipGKOBiCGStab:  Solving for Uz, Initial residual = 0.2649749064007129, Final residual = 0.02088737943046241, No Iterations 10
[INFO] MomentumPredictor: 424.023 [ms]
[INFO] MatrixAssemblyPI: 156.777 [ms]
[INFO] MatrixAssemblyPII: 76.929 [ms]
GAMG:  Solving for p, Initial residual = 0.1029652020747038, Final residual = 0.0008265400424837847, No Iterations 9
[INFO] SolveP: 715.7569999999999 [ms]
time step continuity errors : sum local = 0.009225260121479121, global = -5.989267705964647e-05, cumulative = -0.0005589629464160653
[INFO] postSolveP: 42.779 [ms]
[OGL LOG][Proc: 0]: global_index_init: 0.649 [ms]
[OGL LOG][Proc: 0]nuTilda_local_coeffs: call_update: 0 [ms]
[OGL LOG][Proc: 0]nuTilda_non_local_coeffs: call_update: 0 [ms]
[OGL LOG][Proc: 0]nuTilda: update_local_matrix_data: 21.236 [ms]
[OGL LOG][Proc: 0]nuTilda: update_non_local_matrix_data: 0.093 [ms]
[OGL LOG][Proc: 0]nuTilda_matrix: call_update: 7.282 [ms]
[OGL LOG][Proc: 0]nuTilda_rhs: call_update: 5.621 [ms]
[OGL LOG][Preconditioner.H:121] Generate preconditioner BJ MaxBlockSize 1
[OGL LOG][Proc: 0]nuTilda: init_precond: 0.581 [ms]
[OGL LOG][StoppingCriterion.H:373] Creating stopping criterion with minIter 2 frequency 1
[OGL LOG][Proc: 0]nuTilda: generate_solver: 0.001 [ms]
[OGL LOG][Proc: 0]nuTilda: solve: 48.614 [ms]
[OGL LOG][Proc: 0]nuTilda: copy_x_back: 1.925 [ms]
[OGL LOG][lduLduBase.H:336] 
Statistics:
	Time per iteration: 24307 [mu s]
	Time per residual norm calculation: 332.000000 [mu s]
	Time per iteration and DOF: 1.926944 [ns]
	Retrieve results bandwidth 1.969000 [GByte/s]
[OGL LOG][Proc: 0]nuTilda: solve_multi_gpu: 65.223 [ms]
BJhipGKOBiCGStab:  Solving for nuTilda, Initial residual = 0.06123062097999325, Final residual = 0.005966432569203401, No Iterations 2
bounding nuTilda, min: -1.089052002165995e-05 max: 0.001252481301503566 average: 8.911399508883802e-05
[INFO] TimeStep: 2872.255 [ms]
ExecutionTime = 33.56 s  ClockTime = 34 s

Time = 6

velocityDampingConstraint velocityDamping damped 0 (0%) of cells, with max limit 300
[INFO] MatrixAssemblyU: 859.366 [ms]
[OGL LOG][Proc: 0]: global_index_init: 0.9380000000000001 [ms]
[OGL LOG][Proc: 0]Ux_local_coeffs: call_update: 0 [ms]
[OGL LOG][Proc: 0]Ux_non_local_coeffs: call_update: 0 [ms]
[OGL LOG][Proc: 0]Ux: update_local_matrix_data: 20.429 [ms]
[OGL LOG][Proc: 0]Ux: update_non_local_matrix_data: 0.098 [ms]
[OGL LOG][Proc: 0]Ux_matrix: call_update: 5.82 [ms]
[OGL LOG][Proc: 0]Ux_rhs: call_update: 4.871 [ms]
[OGL LOG][Preconditioner.H:121] Generate preconditioner BJ MaxBlockSize 1
[OGL LOG][Proc: 0]Ux: init_precond: 0.626 [ms]
[OGL LOG][StoppingCriterion.H:373] Creating stopping criterion with minIter 15 frequency 1
[OGL LOG][Proc: 0]Ux: generate_solver: 0.001 [ms]
[OGL LOG][Proc: 0]Ux: solve: 80.214 [ms]
[OGL LOG][Proc: 0]Ux: copy_x_back: 2.016 [ms]
[OGL LOG][lduLduBase.H:336] 
Statistics:
	Time per iteration: 7292 [mu s]
	Time per residual norm calculation: 325.000000 [mu s]
	Time per iteration and DOF: 0.578075 [ns]
	Retrieve results bandwidth 1.880000 [GByte/s]
[OGL LOG][Proc: 0]Ux: solve_multi_gpu: 94.76000000000001 [ms]
BJhipGKOBiCGStab:  Solving for Ux, Initial residual = 0.03919517019082969, Final residual = 0.003642059246297968, No Iterations 11
[OGL LOG][Proc: 0]: global_index_init: 0.277 [ms]
[OGL LOG][Proc: 0]Uy_local_coeffs: call_update: 0 [ms]
[OGL LOG][Proc: 0]Uy_non_local_coeffs: call_update: 0 [ms]
[OGL LOG][Proc: 0]Uy: update_local_matrix_data: 24.648 [ms]
[OGL LOG][Proc: 0]Uy: update_non_local_matrix_data: 0.134 [ms]
[OGL LOG][Proc: 0]Uy_matrix: call_update: 5.381 [ms]
[OGL LOG][Proc: 0]Uy_rhs: call_update: 4.178 [ms]
[OGL LOG][Preconditioner.H:121] Generate preconditioner BJ MaxBlockSize 1
[OGL LOG][Proc: 0]Uy: init_precond: 0.537 [ms]
[OGL LOG][StoppingCriterion.H:373] Creating stopping criterion with minIter 12 frequency 1
[OGL LOG][Proc: 0]Uy: generate_solver: 0.002 [ms]
[OGL LOG][Proc: 0]Uy: solve: 71.99299999999999 [ms]
[OGL LOG][Proc: 0]Uy: copy_x_back: 2.023 [ms]
[OGL LOG][lduLduBase.H:336] 
Statistics:
	Time per iteration: 5999 [mu s]
	Time per residual norm calculation: 322.000000 [mu s]
	Time per iteration and DOF: 0.475572 [ns]
	Retrieve results bandwidth 1.873000 [GByte/s]
[OGL LOG][Proc: 0]Uy: solve_multi_gpu: 85.327 [ms]
BJhipGKOBiCGStab:  Solving for Uy, Initial residual = 0.1163254733385022, Final residual = 0.01092970669503785, No Iterations 12
[OGL LOG][Proc: 0]: global_index_init: 0.06900000000000001 [ms]
[OGL LOG][Proc: 0]Uz_local_coeffs: call_update: 0 [ms]
[OGL LOG][Proc: 0]Uz_non_local_coeffs: call_update: 0 [ms]
[OGL LOG][Proc: 0]Uz: update_local_matrix_data: 20.879 [ms]
[OGL LOG][Proc: 0]Uz: update_non_local_matrix_data: 0.08700000000000001 [ms]
[OGL LOG][Proc: 0]Uz_matrix: call_update: 4.905 [ms]
[OGL LOG][Proc: 0]Uz_rhs: call_update: 4.209000000000001 [ms]
[OGL LOG][Preconditioner.H:121] Generate preconditioner BJ MaxBlockSize 1
[OGL LOG][Proc: 0]Uz: init_precond: 0.589 [ms]
[OGL LOG][StoppingCriterion.H:373] Creating stopping criterion with minIter 12 frequency 1
[OGL LOG][Proc: 0]Uz: generate_solver: 0.001 [ms]
[OGL LOG][Proc: 0]Uz: solve: 70.834 [ms]
[OGL LOG][Proc: 0]Uz: copy_x_back: 2.041 [ms]
[OGL LOG][lduLduBase.H:336] 
Statistics:
	Time per iteration: 6439 [mu s]
	Time per residual norm calculation: 330.000000 [mu s]
	Time per iteration and DOF: 0.510454 [ns]
	Retrieve results bandwidth 1.857000 [GByte/s]
[OGL LOG][Proc: 0]Uz: solve_multi_gpu: 83.8 [ms]
BJhipGKOBiCGStab:  Solving for Uz, Initial residual = 0.1680293334358427, Final residual = 0.01420457740021277, No Iterations 11
[INFO] MomentumPredictor: 409.31 [ms]
[INFO] MatrixAssemblyPI: 158.955 [ms]
[INFO] MatrixAssemblyPII: 74.13 [ms]
GAMG:  Solving for p, Initial residual = 0.09493248299604755, Final residual = 0.0007472186413305951, No Iterations 7
[INFO] SolveP: 547.151 [ms]
time step continuity errors : sum local = 0.007330759446791586, global = 2.701071786869455e-05, cumulative = -0.0005319522285473707
[INFO] postSolveP: 41.617 [ms]
[OGL LOG][Proc: 0]: global_index_init: 1.182 [ms]
[OGL LOG][Proc: 0]nuTilda_local_coeffs: call_update: 0 [ms]
[OGL LOG][Proc: 0]nuTilda_non_local_coeffs: call_update: 0 [ms]
[OGL LOG][Proc: 0]nuTilda: update_local_matrix_data: 21.056 [ms]
[OGL LOG][Proc: 0]nuTilda: update_non_local_matrix_data: 0.102 [ms]
[OGL LOG][Proc: 0]nuTilda_matrix: call_update: 10.052 [ms]
[OGL LOG][Proc: 0]nuTilda_rhs: call_update: 1.452 [ms]
[OGL LOG][Preconditioner.H:121] Generate preconditioner BJ MaxBlockSize 1
[OGL LOG][Proc: 0]nuTilda: init_precond: 0.635 [ms]
[OGL LOG][StoppingCriterion.H:373] Creating stopping criterion with minIter 2 frequency 1
[OGL LOG][Proc: 0]nuTilda: generate_solver: 0.001 [ms]
[OGL LOG][Proc: 0]nuTilda: solve: 46.64 [ms]
[OGL LOG][Proc: 0]nuTilda: copy_x_back: 2.033 [ms]
[OGL LOG][lduLduBase.H:336] 
Statistics:
	Time per iteration: 23320 [mu s]
	Time per residual norm calculation: 303.000000 [mu s]
	Time per iteration and DOF: 1.848700 [ns]
	Retrieve results bandwidth 1.864000 [GByte/s]
[OGL LOG][Proc: 0]nuTilda: solve_multi_gpu: 62.049 [ms]
BJhipGKOBiCGStab:  Solving for nuTilda, Initial residual = 0.05593311640162651, Final residual = 0.003313994269311215, No Iterations 2
[INFO] TimeStep: 2647.591 [ms]
ExecutionTime = 36.86 s  ClockTime = 37 s

Time = 7

velocityDampingConstraint velocityDamping damped 5 (0%) of cells, with max limit 300
[INFO] MatrixAssemblyU: 852.793 [ms]
[OGL LOG][Proc: 0]: global_index_init: 0.191 [ms]
[OGL LOG][Proc: 0]Ux_local_coeffs: call_update: 0 [ms]
[OGL LOG][Proc: 0]Ux_non_local_coeffs: call_update: 0 [ms]
[OGL LOG][Proc: 0]Ux: update_local_matrix_data: 19.363 [ms]
[OGL LOG][Proc: 0]Ux: update_non_local_matrix_data: 0.089 [ms]
[OGL LOG][Proc: 0]Ux_matrix: call_update: 5.842000000000001 [ms]
[OGL LOG][Proc: 0]Ux_rhs: call_update: 5.402 [ms]
[OGL LOG][Preconditioner.H:121] Generate preconditioner BJ MaxBlockSize 1
[OGL LOG][Proc: 0]Ux: init_precond: 0.666 [ms]
[OGL LOG][StoppingCriterion.H:373] Creating stopping criterion with minIter 13 frequency 1
[OGL LOG][Proc: 0]Ux: generate_solver: 0.001 [ms]
[OGL LOG][Proc: 0]Ux: solve: 66.539 [ms]
[OGL LOG][Proc: 0]Ux: copy_x_back: 2.008 [ms]
[OGL LOG][lduLduBase.H:336] 
Statistics:
	Time per iteration: 6653 [mu s]
	Time per residual norm calculation: 304.000000 [mu s]
	Time per iteration and DOF: 0.527418 [ns]
	Retrieve results bandwidth 1.887000 [GByte/s]
[OGL LOG][Proc: 0]Ux: solve_multi_gpu: 81.71000000000001 [ms]
BJhipGKOBiCGStab:  Solving for Ux, Initial residual = 0.02826288354291238, Final residual = 0.002649921943487156, No Iterations 10
[OGL LOG][Proc: 0]: global_index_init: 0.251 [ms]
[OGL LOG][Proc: 0]Uy_local_coeffs: call_update: 0 [ms]
[OGL LOG][Proc: 0]Uy_non_local_coeffs: call_update: 0 [ms]
[OGL LOG][Proc: 0]Uy: update_local_matrix_data: 19.977 [ms]
[OGL LOG][Proc: 0]Uy: update_non_local_matrix_data: 0.115 [ms]
[OGL LOG][Proc: 0]Uy_matrix: call_update: 7.104 [ms]
[OGL LOG][Proc: 0]Uy_rhs: call_update: 3.201 [ms]
[OGL LOG][Preconditioner.H:121] Generate preconditioner BJ MaxBlockSize 1
[OGL LOG][Proc: 0]Uy: init_precond: 0.646 [ms]
[OGL LOG][StoppingCriterion.H:373] Creating stopping criterion with minIter 14 frequency 1
[OGL LOG][Proc: 0]Uy: generate_solver: 0.001 [ms]
[OGL LOG][Proc: 0]Uy: solve: 75.22500000000001 [ms]
[OGL LOG][Proc: 0]Uy: copy_x_back: 2.006 [ms]
[OGL LOG][lduLduBase.H:336] 
Statistics:
	Time per iteration: 6838 [mu s]
	Time per residual norm calculation: 313.000000 [mu s]
	Time per iteration and DOF: 0.542084 [ns]
	Retrieve results bandwidth 1.889000 [GByte/s]
[OGL LOG][Proc: 0]Uy: solve_multi_gpu: 89.387 [ms]
BJhipGKOBiCGStab:  Solving for Uy, Initial residual = 0.0803235596763474, Final residual = 0.007698820485007468, No Iterations 11
[OGL LOG][Proc: 0]: global_index_init: 0.311 [ms]
[OGL LOG][Proc: 0]Uz_local_coeffs: call_update: 0 [ms]
[OGL LOG][Proc: 0]Uz_non_local_coeffs: call_update: 0 [ms]
[OGL LOG][Proc: 0]Uz: update_local_matrix_data: 19.657 [ms]
[OGL LOG][Proc: 0]Uz: update_non_local_matrix_data: 0.092 [ms]
[OGL LOG][Proc: 0]Uz_matrix: call_update: 8.552 [ms]
[OGL LOG][Proc: 0]Uz_rhs: call_update: 1.274 [ms]
[OGL LOG][Preconditioner.H:121] Generate preconditioner BJ MaxBlockSize 1
[OGL LOG][Proc: 0]Uz: init_precond: 0.59 [ms]
[OGL LOG][StoppingCriterion.H:373] Creating stopping criterion with minIter 13 frequency 1
[OGL LOG][Proc: 0]Uz: generate_solver: 0.001 [ms]
[OGL LOG][Proc: 0]Uz: solve: 87.337 [ms]
[OGL LOG][Proc: 0]Uz: copy_x_back: 2.011 [ms]
[OGL LOG][lduLduBase.H:336] 
Statistics:
	Time per iteration: 6718 [mu s]
	Time per residual norm calculation: 329.000000 [mu s]
	Time per iteration and DOF: 0.532571 [ns]
	Retrieve results bandwidth 1.884000 [GByte/s]
[OGL LOG][Proc: 0]Uz: solve_multi_gpu: 100.965 [ms]
BJhipGKOBiCGStab:  Solving for Uz, Initial residual = 0.08770588185386453, Final residual = 0.00652252707257707, No Iterations 13
[INFO] MomentumPredictor: 408.571 [ms]
[INFO] MatrixAssemblyPI: 156.795 [ms]
[INFO] MatrixAssemblyPII: 73.069 [ms]
GAMG:  Solving for p, Initial residual = 0.08354467851700796, Final residual = 0.0007159052604443989, No Iterations 7
[INFO] SolveP: 544.105 [ms]
time step continuity errors : sum local = 0.006620952357879771, global = 2.846892801259086e-05, cumulative = -0.0005034833005347799
[INFO] postSolveP: 39.101 [ms]
[OGL LOG][Proc: 0]: global_index_init: 0.249 [ms]
[OGL LOG][Proc: 0]nuTilda_local_coeffs: call_update: 0 [ms]
[OGL LOG][Proc: 0]nuTilda_non_local_coeffs: call_update: 0 [ms]
[OGL LOG][Proc: 0]nuTilda: update_local_matrix_data: 21.473 [ms]
[OGL LOG][Proc: 0]nuTilda: update_non_local_matrix_data: 0.11 [ms]
[OGL LOG][Proc: 0]nuTilda_matrix: call_update: 6.105 [ms]
[OGL LOG][Proc: 0]nuTilda_rhs: call_update: 4.998 [ms]
[OGL LOG][Preconditioner.H:121] Generate preconditioner BJ MaxBlockSize 1
[OGL LOG][Proc: 0]nuTilda: init_precond: 0.644 [ms]
[OGL LOG][StoppingCriterion.H:373] Creating stopping criterion with minIter 3 frequency 1
[OGL LOG][Proc: 0]nuTilda: generate_solver: 0.001 [ms]
[OGL LOG][Proc: 0]nuTilda: solve: 45.346 [ms]
[OGL LOG][Proc: 0]nuTilda: copy_x_back: 2.015 [ms]
[OGL LOG][lduLduBase.H:336] 
Statistics:
	Time per iteration: 22673 [mu s]
	Time per residual norm calculation: 327.000000 [mu s]
	Time per iteration and DOF: 1.797409 [ns]
	Retrieve results bandwidth 1.881000 [GByte/s]
[OGL LOG][Proc: 0]nuTilda: solve_multi_gpu: 60.332 [ms]
BJhipGKOBiCGStab:  Solving for nuTilda, Initial residual = 0.04662146558716111, Final residual = 0.004382486382774376, No Iterations 2
[INFO] TimeStep: 2631.172 [ms]
ExecutionTime = 40.14 s  ClockTime = 40 s

Time = 8

velocityDampingConstraint velocityDamping damped 0 (0%) of cells, with max limit 300
[INFO] MatrixAssemblyU: 849.55 [ms]
[OGL LOG][Proc: 0]: global_index_init: 0.226 [ms]
[OGL LOG][Proc: 0]Ux_local_coeffs: call_update: 0 [ms]
[OGL LOG][Proc: 0]Ux_non_local_coeffs: call_update: 0 [ms]
[OGL LOG][Proc: 0]Ux: update_local_matrix_data: 20.856 [ms]
[OGL LOG][Proc: 0]Ux: update_non_local_matrix_data: 0.08799999999999999 [ms]
[OGL LOG][Proc: 0]Ux_matrix: call_update: 4.68 [ms]
[OGL LOG][Proc: 0]Ux_rhs: call_update: 5.715 [ms]
[OGL LOG][Preconditioner.H:121] Generate preconditioner BJ MaxBlockSize 1
[OGL LOG][Proc: 0]Ux: init_precond: 0.665 [ms]
[OGL LOG][StoppingCriterion.H:373] Creating stopping criterion with minIter 12 frequency 1
[OGL LOG][Proc: 0]Ux: generate_solver: 0 [ms]
[OGL LOG][Proc: 0]Ux: solve: 64.91 [ms]
[OGL LOG][Proc: 0]Ux: copy_x_back: 1.959 [ms]
[OGL LOG][lduLduBase.H:336] 
Statistics:
	Time per iteration: 6491 [mu s]
	Time per residual norm calculation: 303.000000 [mu s]
	Time per iteration and DOF: 0.514576 [ns]
	Retrieve results bandwidth 1.934000 [GByte/s]
[OGL LOG][Proc: 0]Ux: solve_multi_gpu: 79.157 [ms]
BJhipGKOBiCGStab:  Solving for Ux, Initial residual = 0.02054112157114266, Final residual = 0.001948828293481818, No Iterations 10
[OGL LOG][Proc: 0]: global_index_init: 0.198 [ms]
[OGL LOG][Proc: 0]Uy_local_coeffs: call_update: 0 [ms]
[OGL LOG][Proc: 0]Uy_non_local_coeffs: call_update: 0 [ms]
[OGL LOG][Proc: 0]Uy: update_local_matrix_data: 20.832 [ms]
[OGL LOG][Proc: 0]Uy: update_non_local_matrix_data: 0.094 [ms]
[OGL LOG][Proc: 0]Uy_matrix: call_update: 7.677 [ms]
[OGL LOG][Proc: 0]Uy_rhs: call_update: 3.181 [ms]
[OGL LOG][Preconditioner.H:121] Generate preconditioner BJ MaxBlockSize 1
[OGL LOG][Proc: 0]Uy: init_precond: 0.653 [ms]
[OGL LOG][StoppingCriterion.H:373] Creating stopping criterion with minIter 13 frequency 1
[OGL LOG][Proc: 0]Uy: generate_solver: 0.001 [ms]
[OGL LOG][Proc: 0]Uy: solve: 73.538 [ms]
[OGL LOG][Proc: 0]Uy: copy_x_back: 2.014 [ms]
[OGL LOG][lduLduBase.H:336] 
Statistics:
	Time per iteration: 6685 [mu s]
	Time per residual norm calculation: 322.000000 [mu s]
	Time per iteration and DOF: 0.529955 [ns]
	Retrieve results bandwidth 1.882000 [GByte/s]
[OGL LOG][Proc: 0]Uy: solve_multi_gpu: 88.252 [ms]
BJhipGKOBiCGStab:  Solving for Uy, Initial residual = 0.05592095026911772, Final residual = 0.004375035739877692, No Iterations 11
[OGL LOG][Proc: 0]: global_index_init: 0.418 [ms]
[OGL LOG][Proc: 0]Uz_local_coeffs: call_update: 0 [ms]
[OGL LOG][Proc: 0]Uz_non_local_coeffs: call_update: 0 [ms]
[OGL LOG][Proc: 0]Uz: update_local_matrix_data: 22.569 [ms]
[OGL LOG][Proc: 0]Uz: update_non_local_matrix_data: 0.095 [ms]
[OGL LOG][Proc: 0]Uz_matrix: call_update: 6.122 [ms]
[OGL LOG][Proc: 0]Uz_rhs: call_update: 4.944 [ms]
[OGL LOG][Preconditioner.H:121] Generate preconditioner BJ MaxBlockSize 1
[OGL LOG][Proc: 0]Uz: init_precond: 0.661 [ms]
[OGL LOG][StoppingCriterion.H:373] Creating stopping criterion with minIter 15 frequency 1
[OGL LOG][Proc: 0]Uz: generate_solver: 0.001 [ms]
[OGL LOG][Proc: 0]Uz: solve: 76.843 [ms]
[OGL LOG][Proc: 0]Uz: copy_x_back: 2.031 [ms]
[OGL LOG][lduLduBase.H:336] 
Statistics:
	Time per iteration: 6985 [mu s]
	Time per residual norm calculation: 314.000000 [mu s]
	Time per iteration and DOF: 0.553738 [ns]
	Retrieve results bandwidth 1.866000 [GByte/s]
[OGL LOG][Proc: 0]Uz: solve_multi_gpu: 91.82300000000001 [ms]
BJhipGKOBiCGStab:  Solving for Uz, Initial residual = 0.0622952407855985, Final residual = 0.00568448638961308, No Iterations 11
[INFO] MomentumPredictor: 401.141 [ms]
[INFO] MatrixAssemblyPI: 157.225 [ms]
[INFO] MatrixAssemblyPII: 75.199 [ms]
GAMG:  Solving for p, Initial residual = 0.07312206257084233, Final residual = 0.0006495771643684188, No Iterations 6
[INFO] SolveP: 479.653 [ms]
time step continuity errors : sum local = 0.006035688367737212, global = -2.574087285703101e-05, cumulative = -0.0005292241733918109
[INFO] postSolveP: 38.133 [ms]
[OGL LOG][Proc: 0]: global_index_init: 0.106 [ms]
[OGL LOG][Proc: 0]nuTilda_local_coeffs: call_update: 0 [ms]
[OGL LOG][Proc: 0]nuTilda_non_local_coeffs: call_update: 0 [ms]
[OGL LOG][Proc: 0]nuTilda: update_local_matrix_data: 22.39 [ms]
[OGL LOG][Proc: 0]nuTilda: update_non_local_matrix_data: 0.093 [ms]
[OGL LOG][Proc: 0]nuTilda_matrix: call_update: 6.59 [ms]
[OGL LOG][Proc: 0]nuTilda_rhs: call_update: 2.676 [ms]
[OGL LOG][Preconditioner.H:121] Generate preconditioner BJ MaxBlockSize 1
[OGL LOG][Proc: 0]nuTilda: init_precond: 0.665 [ms]
[OGL LOG][StoppingCriterion.H:373] Creating stopping criterion with minIter 2 frequency 1
[OGL LOG][Proc: 0]nuTilda: generate_solver: 0 [ms]
[OGL LOG][Proc: 0]nuTilda: solve: 45.708 [ms]
[OGL LOG][Proc: 0]nuTilda: copy_x_back: 1.969 [ms]
[OGL LOG][lduLduBase.H:336] 
Statistics:
	Time per iteration: 22854 [mu s]
	Time per residual norm calculation: 318.000000 [mu s]
	Time per iteration and DOF: 1.811757 [ns]
	Retrieve results bandwidth 1.925000 [GByte/s]
[OGL LOG][Proc: 0]nuTilda: solve_multi_gpu: 58.884 [ms]
BJhipGKOBiCGStab:  Solving for nuTilda, Initial residual = 0.0526960014124769, Final residual = 0.002657316899839869, No Iterations 2
[INFO] TimeStep: 2550.261 [ms]
ExecutionTime = 43.33 s  ClockTime = 44 s

Time = 9

velocityDampingConstraint velocityDamping damped 0 (0%) of cells, with max limit 300
[INFO] MatrixAssemblyU: 845.502 [ms]
[OGL LOG][Proc: 0]: global_index_init: 0.307 [ms]
[OGL LOG][Proc: 0]Ux_local_coeffs: call_update: 0 [ms]
[OGL LOG][Proc: 0]Ux_non_local_coeffs: call_update: 0 [ms]
[OGL LOG][Proc: 0]Ux: update_local_matrix_data: 19.483 [ms]
[OGL LOG][Proc: 0]Ux: update_non_local_matrix_data: 0.179 [ms]
[OGL LOG][Proc: 0]Ux_matrix: call_update: 5.971 [ms]
[OGL LOG][Proc: 0]Ux_rhs: call_update: 5.778 [ms]
[OGL LOG][Preconditioner.H:121] Generate preconditioner BJ MaxBlockSize 1
[OGL LOG][Proc: 0]Ux: init_precond: 0.577 [ms]
[OGL LOG][StoppingCriterion.H:373] Creating stopping criterion with minIter 12 frequency 1
[OGL LOG][Proc: 0]Ux: generate_solver: 0.001 [ms]
[OGL LOG][Proc: 0]Ux: solve: 65.56400000000001 [ms]
[OGL LOG][Proc: 0]Ux: copy_x_back: 1.998 [ms]
[OGL LOG][lduLduBase.H:336] 
Statistics:
	Time per iteration: 6556 [mu s]
	Time per residual norm calculation: 318.000000 [mu s]
	Time per iteration and DOF: 0.519729 [ns]
	Retrieve results bandwidth 1.897000 [GByte/s]
[OGL LOG][Proc: 0]Ux: solve_multi_gpu: 81.123 [ms]
BJhipGKOBiCGStab:  Solving for Ux, Initial residual = 0.01727389343072562, Final residual = 0.001657437370389805, No Iterations 10
[OGL LOG][Proc: 0]: global_index_init: 0.298 [ms]
[OGL LOG][Proc: 0]Uy_local_coeffs: call_update: 0 [ms]
[OGL LOG][Proc: 0]Uy_non_local_coeffs: call_update: 0 [ms]
[OGL LOG][Proc: 0]Uy: update_local_matrix_data: 19.981 [ms]
[OGL LOG][Proc: 0]Uy: update_non_local_matrix_data: 0.091 [ms]
[OGL LOG][Proc: 0]Uy_matrix: call_update: 5.997 [ms]
[OGL LOG][Proc: 0]Uy_rhs: call_update: 4.01 [ms]
[OGL LOG][Preconditioner.H:121] Generate preconditioner BJ MaxBlockSize 1
[OGL LOG][Proc: 0]Uy: init_precond: 0.658 [ms]
[OGL LOG][StoppingCriterion.H:373] Creating stopping criterion with minIter 13 frequency 1
[OGL LOG][Proc: 0]Uy: generate_solver: 0.001 [ms]
[OGL LOG][Proc: 0]Uy: solve: 69.833 [ms]
[OGL LOG][Proc: 0]Uy: copy_x_back: 2.011 [ms]
[OGL LOG][lduLduBase.H:336] 
Statistics:
	Time per iteration: 6348 [mu s]
	Time per residual norm calculation: 318.000000 [mu s]
	Time per iteration and DOF: 0.503240 [ns]
	Retrieve results bandwidth 1.884000 [GByte/s]
[OGL LOG][Proc: 0]Uy: solve_multi_gpu: 83.697 [ms]
BJhipGKOBiCGStab:  Solving for Uy, Initial residual = 0.04871054376535957, Final residual = 0.004780095022189196, No Iterations 11
[OGL LOG][Proc: 0]: global_index_init: 0.259 [ms]
[OGL LOG][Proc: 0]Uz_local_coeffs: call_update: 0 [ms]
[OGL LOG][Proc: 0]Uz_non_local_coeffs: call_update: 0 [ms]
[OGL LOG][Proc: 0]Uz: update_local_matrix_data: 19.694 [ms]
[OGL LOG][Proc: 0]Uz: update_non_local_matrix_data: 0.181 [ms]
[OGL LOG][Proc: 0]Uz_matrix: call_update: 6.129 [ms]
[OGL LOG][Proc: 0]Uz_rhs: call_update: 4.2 [ms]
[OGL LOG][Preconditioner.H:121] Generate preconditioner BJ MaxBlockSize 1
[OGL LOG][Proc: 0]Uz: init_precond: 0.5750000000000001 [ms]
[OGL LOG][StoppingCriterion.H:373] Creating stopping criterion with minIter 13 frequency 1
[OGL LOG][Proc: 0]Uz: generate_solver: 0.001 [ms]
[OGL LOG][Proc: 0]Uz: solve: 75.181 [ms]
[OGL LOG][Proc: 0]Uz: copy_x_back: 2.005 [ms]
[OGL LOG][lduLduBase.H:336] 
Statistics:
	Time per iteration: 7518 [mu s]
	Time per residual norm calculation: 301.000000 [mu s]
	Time per iteration and DOF: 0.595992 [ns]
	Retrieve results bandwidth 1.890000 [GByte/s]
[OGL LOG][Proc: 0]Uz: solve_multi_gpu: 89.289 [ms]
BJhipGKOBiCGStab:  Solving for Uz, Initial residual = 0.04945162038259288, Final residual = 0.004734391015042826, No Iterations 10
[INFO] MomentumPredictor: 390.445 [ms]
[INFO] MatrixAssemblyPI: 159.477 [ms]
[INFO] MatrixAssemblyPII: 76.245 [ms]
GAMG:  Solving for p, Initial residual = 0.0665301586431316, Final residual = 0.0004681313635361449, No Iterations 6
[INFO] SolveP: 473.806 [ms]
time step continuity errors : sum local = 0.004326300459173471, global = -4.431958148644789e-05, cumulative = -0.0005735437548782588
[INFO] postSolveP: 38.372 [ms]
[OGL LOG][Proc: 0]: global_index_init: 2.101 [ms]
[OGL LOG][Proc: 0]nuTilda_local_coeffs: call_update: 0 [ms]
[OGL LOG][Proc: 0]nuTilda_non_local_coeffs: call_update: 0 [ms]
[OGL LOG][Proc: 0]nuTilda: update_local_matrix_data: 21.227 [ms]
[OGL LOG][Proc: 0]nuTilda: update_non_local_matrix_data: 0.091 [ms]
[OGL LOG][Proc: 0]nuTilda_matrix: call_update: 7.408 [ms]
[OGL LOG][Proc: 0]nuTilda_rhs: call_update: 2.292 [ms]
[OGL LOG][Preconditioner.H:121] Generate preconditioner BJ MaxBlockSize 1
[OGL LOG][Proc: 0]nuTilda: init_precond: 0.638 [ms]
[OGL LOG][StoppingCriterion.H:373] Creating stopping criterion with minIter 3 frequency 1
[OGL LOG][Proc: 0]nuTilda: generate_solver: 0.001 [ms]
[OGL LOG][Proc: 0]nuTilda: solve: 44.3 [ms]
[OGL LOG][Proc: 0]nuTilda: copy_x_back: 2.011 [ms]
[OGL LOG][lduLduBase.H:336] 
Statistics:
	Time per iteration: 22150 [mu s]
	Time per residual norm calculation: 324.000000 [mu s]
	Time per iteration and DOF: 1.755948 [ns]
	Retrieve results bandwidth 1.884000 [GByte/s]
[OGL LOG][Proc: 0]nuTilda: solve_multi_gpu: 57.86 [ms]
BJhipGKOBiCGStab:  Solving for nuTilda, Initial residual = 0.04134330109763315, Final residual = 0.003885462851119796, No Iterations 2
[INFO] TimeStep: 2530.828 [ms]
ExecutionTime = 46.49 s  ClockTime = 47 s

Time = 10

velocityDampingConstraint velocityDamping damped 0 (0%) of cells, with max limit 300
[INFO] MatrixAssemblyU: 847.744 [ms]
[OGL LOG][Proc: 0]: global_index_init: 0.187 [ms]
[OGL LOG][Proc: 0]Ux_local_coeffs: call_update: 0 [ms]
[OGL LOG][Proc: 0]Ux_non_local_coeffs: call_update: 0 [ms]
[OGL LOG][Proc: 0]Ux: update_local_matrix_data: 20.263 [ms]
[OGL LOG][Proc: 0]Ux: update_non_local_matrix_data: 0.08700000000000001 [ms]
[OGL LOG][Proc: 0]Ux_matrix: call_update: 6.581 [ms]
[OGL LOG][Proc: 0]Ux_rhs: call_update: 4.53 [ms]
[OGL LOG][Preconditioner.H:121] Generate preconditioner BJ MaxBlockSize 1
[OGL LOG][Proc: 0]Ux: init_precond: 0.637 [ms]
[OGL LOG][StoppingCriterion.H:373] Creating stopping criterion with minIter 12 frequency 1
[OGL LOG][Proc: 0]Ux: generate_solver: 0.001 [ms]
[OGL LOG][Proc: 0]Ux: solve: 72.727 [ms]
[OGL LOG][Proc: 0]Ux: copy_x_back: 1.986 [ms]
[OGL LOG][lduLduBase.H:336] 
Statistics:
	Time per iteration: 7272 [mu s]
	Time per residual norm calculation: 325.000000 [mu s]
	Time per iteration and DOF: 0.576490 [ns]
	Retrieve results bandwidth 1.908000 [GByte/s]
[OGL LOG][Proc: 0]Ux: solve_multi_gpu: 87.693 [ms]
BJhipGKOBiCGStab:  Solving for Ux, Initial residual = 0.01532967476397937, Final residual = 0.001527866156122439, No Iterations 10
[OGL LOG][Proc: 0]: global_index_init: 0.508 [ms]
[OGL LOG][Proc: 0]Uy_local_coeffs: call_update: 0 [ms]
[OGL LOG][Proc: 0]Uy_non_local_coeffs: call_update: 0 [ms]
[OGL LOG][Proc: 0]Uy: update_local_matrix_data: 20.09 [ms]
[OGL LOG][Proc: 0]Uy: update_non_local_matrix_data: 0.08 [ms]
[OGL LOG][Proc: 0]Uy_matrix: call_update: 6.059 [ms]
[OGL LOG][Proc: 0]Uy_rhs: call_update: 4.88 [ms]
[OGL LOG][Preconditioner.H:121] Generate preconditioner BJ MaxBlockSize 1
[OGL LOG][Proc: 0]Uy: init_precond: 0.668 [ms]
[OGL LOG][StoppingCriterion.H:373] Creating stopping criterion with minIter 13 frequency 1
[OGL LOG][Proc: 0]Uy: generate_solver: 0.001 [ms]
[OGL LOG][Proc: 0]Uy: solve: 79.81400000000001 [ms]
[OGL LOG][Proc: 0]Uy: copy_x_back: 2.015 [ms]
[OGL LOG][lduLduBase.H:336] 
Statistics:
	Time per iteration: 7981 [mu s]
	Time per residual norm calculation: 312.000000 [mu s]
	Time per iteration and DOF: 0.632696 [ns]
	Retrieve results bandwidth 1.881000 [GByte/s]
[OGL LOG][Proc: 0]Uy: solve_multi_gpu: 94.65000000000001 [ms]
BJhipGKOBiCGStab:  Solving for Uy, Initial residual = 0.04928440547565396, Final residual = 0.004487725579952278, No Iterations 10
[OGL LOG][Proc: 0]: global_index_init: 0.193 [ms]
[OGL LOG][Proc: 0]Uz_local_coeffs: call_update: 0 [ms]
[OGL LOG][Proc: 0]Uz_non_local_coeffs: call_update: 0 [ms]
[OGL LOG][Proc: 0]Uz: update_local_matrix_data: 20.494 [ms]
[OGL LOG][Proc: 0]Uz: update_non_local_matrix_data: 0.092 [ms]
[OGL LOG][Proc: 0]Uz_matrix: call_update: 5.087 [ms]
[OGL LOG][Proc: 0]Uz_rhs: call_update: 5.651 [ms]
[OGL LOG][Preconditioner.H:121] Generate preconditioner BJ MaxBlockSize 1
[OGL LOG][Proc: 0]Uz: init_precond: 0.63 [ms]
[OGL LOG][StoppingCriterion.H:373] Creating stopping criterion with minIter 12 frequency 1
[OGL LOG][Proc: 0]Uz: generate_solver: 0.001 [ms]
[OGL LOG][Proc: 0]Uz: solve: 72.63500000000001 [ms]
[OGL LOG][Proc: 0]Uz: copy_x_back: 1.681 [ms]
[OGL LOG][lduLduBase.H:336] 
Statistics:
	Time per iteration: 7263 [mu s]
	Time per residual norm calculation: 299.000000 [mu s]
	Time per iteration and DOF: 0.575776 [ns]
	Retrieve results bandwidth 2.254000 [GByte/s]
[OGL LOG][Proc: 0]Uz: solve_multi_gpu: 86.818 [ms]
BJhipGKOBiCGStab:  Solving for Uz, Initial residual = 0.04465846002067829, Final residual = 0.004378467919094031, No Iterations 10
[INFO] MomentumPredictor: 408.55 [ms]
[INFO] MatrixAssemblyPI: 157.672 [ms]
[INFO] MatrixAssemblyPII: 71.486 [ms]
GAMG:  Solving for p, Initial residual = 0.06137199316646996, Final residual = 0.0004484751564285007, No Iterations 6
[INFO] SolveP: 480.801 [ms]
time step continuity errors : sum local = 0.004082249133548585, global = -1.960190050508192e-05, cumulative = -0.0005931456553833407
[INFO] postSolveP: 38.698 [ms]
[OGL LOG][Proc: 0]: global_index_init: 0.6930000000000001 [ms]
[OGL LOG][Proc: 0]nuTilda_local_coeffs: call_update: 0 [ms]
[OGL LOG][Proc: 0]nuTilda_non_local_coeffs: call_update: 0 [ms]
[OGL LOG][Proc: 0]nuTilda: update_local_matrix_data: 21.258 [ms]
[OGL LOG][Proc: 0]nuTilda: update_non_local_matrix_data: 0.107 [ms]
[OGL LOG][Proc: 0]nuTilda_matrix: call_update: 5.355 [ms]
[OGL LOG][Proc: 0]nuTilda_rhs: call_update: 5.539 [ms]
[OGL LOG][Preconditioner.H:121] Generate preconditioner BJ MaxBlockSize 1
[OGL LOG][Proc: 0]nuTilda: init_precond: 0.643 [ms]
[OGL LOG][StoppingCriterion.H:373] Creating stopping criterion with minIter 2 frequency 1
[OGL LOG][Proc: 0]nuTilda: generate_solver: 0.001 [ms]
[OGL LOG][Proc: 0]nuTilda: solve: 43.78 [ms]
[OGL LOG][Proc: 0]nuTilda: copy_x_back: 2.005 [ms]
[OGL LOG][lduLduBase.H:336] 
Statistics:
	Time per iteration: 21890 [mu s]
	Time per residual norm calculation: 307.000000 [mu s]
	Time per iteration and DOF: 1.735336 [ns]
	Retrieve results bandwidth 1.890000 [GByte/s]
[OGL LOG][Proc: 0]nuTilda: solve_multi_gpu: 58.531 [ms]
BJhipGKOBiCGStab:  Solving for nuTilda, Initial residual = 0.05794675448398973, Final residual = 0.002707189068252529, No Iterations 2
[INFO] TimeStep: 2555.714 [ms]
ExecutionTime = 49.69 s  ClockTime = 50 s

Time = 11

velocityDampingConstraint velocityDamping damped 0 (0%) of cells, with max limit 300
[INFO] MatrixAssemblyU: 844.79 [ms]
[OGL LOG][Proc: 0]: global_index_init: 0.192 [ms]
[OGL LOG][Proc: 0]Ux_local_coeffs: call_update: 0 [ms]
[OGL LOG][Proc: 0]Ux_non_local_coeffs: call_update: 0 [ms]
[OGL LOG][Proc: 0]Ux: update_local_matrix_data: 19.798 [ms]
[OGL LOG][Proc: 0]Ux: update_non_local_matrix_data: 0.1 [ms]
[OGL LOG][Proc: 0]Ux_matrix: call_update: 6.158 [ms]
[OGL LOG][Proc: 0]Ux_rhs: call_update: 5.347 [ms]
[OGL LOG][Preconditioner.H:121] Generate preconditioner BJ MaxBlockSize 1
[OGL LOG][Proc: 0]Ux: init_precond: 0.637 [ms]
[OGL LOG][StoppingCriterion.H:373] Creating stopping criterion with minIter 12 frequency 1
[OGL LOG][Proc: 0]Ux: generate_solver: 0.002 [ms]
[OGL LOG][Proc: 0]Ux: solve: 74.71000000000001 [ms]
[OGL LOG][Proc: 0]Ux: copy_x_back: 1.966 [ms]
[OGL LOG][lduLduBase.H:336] 
Statistics:
	Time per iteration: 6791 [mu s]
	Time per residual norm calculation: 325.000000 [mu s]
	Time per iteration and DOF: 0.538358 [ns]
	Retrieve results bandwidth 1.928000 [GByte/s]
[OGL LOG][Proc: 0]Ux: solve_multi_gpu: 89.998 [ms]
BJhipGKOBiCGStab:  Solving for Ux, Initial residual = 0.01392934095563743, Final residual = 0.0009909635282083246, No Iterations 11
[OGL LOG][Proc: 0]: global_index_init: 0.293 [ms]
[OGL LOG][Proc: 0]Uy_local_coeffs: call_update: 0 [ms]
[OGL LOG][Proc: 0]Uy_non_local_coeffs: call_update: 0 [ms]
[OGL LOG][Proc: 0]Uy: update_local_matrix_data: 19.909 [ms]
[OGL LOG][Proc: 0]Uy: update_non_local_matrix_data: 0.172 [ms]
[OGL LOG][Proc: 0]Uy_matrix: call_update: 6.497 [ms]
[OGL LOG][Proc: 0]Uy_rhs: call_update: 3.717 [ms]
[OGL LOG][Preconditioner.H:121] Generate preconditioner BJ MaxBlockSize 1
[OGL LOG][Proc: 0]Uy: init_precond: 0.617 [ms]
[OGL LOG][StoppingCriterion.H:373] Creating stopping criterion with minIter 12 frequency 1
[OGL LOG][Proc: 0]Uy: generate_solver: 0.001 [ms]
[OGL LOG][Proc: 0]Uy: solve: 74.396 [ms]
[OGL LOG][Proc: 0]Uy: copy_x_back: 2.017 [ms]
[OGL LOG][lduLduBase.H:336] 
Statistics:
	Time per iteration: 6763 [mu s]
	Time per residual norm calculation: 331.000000 [mu s]
	Time per iteration and DOF: 0.536139 [ns]
	Retrieve results bandwidth 1.879000 [GByte/s]
[OGL LOG][Proc: 0]Uy: solve_multi_gpu: 88.461 [ms]
BJhipGKOBiCGStab:  Solving for Uy, Initial residual = 0.04298967987900656, Final residual = 0.00313848547208651, No Iterations 11
[OGL LOG][Proc: 0]: global_index_init: 0.137 [ms]
[OGL LOG][Proc: 0]Uz_local_coeffs: call_update: 0 [ms]
[OGL LOG][Proc: 0]Uz_non_local_coeffs: call_update: 0 [ms]
[OGL LOG][Proc: 0]Uz: update_local_matrix_data: 20.09 [ms]
[OGL LOG][Proc: 0]Uz: update_non_local_matrix_data: 0.092 [ms]
[OGL LOG][Proc: 0]Uz_matrix: call_update: 7.556 [ms]
[OGL LOG][Proc: 0]Uz_rhs: call_update: 5.686 [ms]
[OGL LOG][Preconditioner.H:121] Generate preconditioner BJ MaxBlockSize 1
[OGL LOG][Proc: 0]Uz: init_precond: 0.641 [ms]
[OGL LOG][StoppingCriterion.H:373] Creating stopping criterion with minIter 12 frequency 1
[OGL LOG][Proc: 0]Uz: generate_solver: 0.001 [ms]
[OGL LOG][Proc: 0]Uz: solve: 88.15900000000001 [ms]
[OGL LOG][Proc: 0]Uz: copy_x_back: 2.01 [ms]
[OGL LOG][lduLduBase.H:336] 
Statistics:
	Time per iteration: 8014 [mu s]
	Time per residual norm calculation: 301.000000 [mu s]
	Time per iteration and DOF: 0.635312 [ns]
	Retrieve results bandwidth 1.885000 [GByte/s]
[OGL LOG][Proc: 0]Uz: solve_multi_gpu: 105.213 [ms]
BJhipGKOBiCGStab:  Solving for Uz, Initial residual = 0.04092546184738545, Final residual = 0.00397172410621549, No Iterations 11
[INFO] MomentumPredictor: 422.2 [ms]
[INFO] MatrixAssemblyPI: 157.346 [ms]
[INFO] MatrixAssemblyPII: 75.797 [ms]
GAMG:  Solving for p, Initial residual = 0.05945307997878221, Final residual = 0.0004551202528560399, No Iterations 6
[INFO] SolveP: 482.113 [ms]
time step continuity errors : sum local = 0.004063703667980655, global = -4.58542763693107e-06, cumulative = -0.0005977310830202718
[INFO] postSolveP: 38.823 [ms]
[OGL LOG][Proc: 0]: global_index_init: 1.966 [ms]
[OGL LOG][Proc: 0]nuTilda_local_coeffs: call_update: 0 [ms]
[OGL LOG][Proc: 0]nuTilda_non_local_coeffs: call_update: 0 [ms]
[OGL LOG][Proc: 0]nuTilda: update_local_matrix_data: 21.243 [ms]
[OGL LOG][Proc: 0]nuTilda: update_non_local_matrix_data: 0.078 [ms]
[OGL LOG][Proc: 0]nuTilda_matrix: call_update: 5.002 [ms]
[OGL LOG][Proc: 0]nuTilda_rhs: call_update: 6.211 [ms]
[OGL LOG][Preconditioner.H:121] Generate preconditioner BJ MaxBlockSize 1
[OGL LOG][Proc: 0]nuTilda: init_precond: 0.644 [ms]
[OGL LOG][StoppingCriterion.H:373] Creating stopping criterion with minIter 3 frequency 1
[OGL LOG][Proc: 0]nuTilda: generate_solver: 0.001 [ms]
[OGL LOG][Proc: 0]nuTilda: solve: 43.411 [ms]
[OGL LOG][Proc: 0]nuTilda: copy_x_back: 2.005 [ms]
[OGL LOG][lduLduBase.H:336] 
Statistics:
	Time per iteration: 21705 [mu s]
	Time per residual norm calculation: 306.000000 [mu s]
	Time per iteration and DOF: 1.720670 [ns]
	Retrieve results bandwidth 1.890000 [GByte/s]
[OGL LOG][Proc: 0]nuTilda: solve_multi_gpu: 58.519 [ms]
BJhipGKOBiCGStab:  Solving for nuTilda, Initial residual = 0.03720249014101955, Final residual = 0.001843771857409237, No Iterations 2
[INFO] TimeStep: 2570.201 [ms]
ExecutionTime = 52.89 s  ClockTime = 53 s

Time = 12

velocityDampingConstraint velocityDamping damped 0 (0%) of cells, with max limit 300
[INFO] MatrixAssemblyU: 842.548 [ms]
[OGL LOG][Proc: 0]: global_index_init: 0.227 [ms]
[OGL LOG][Proc: 0]Ux_local_coeffs: call_update: 0 [ms]
[OGL LOG][Proc: 0]Ux_non_local_coeffs: call_update: 0 [ms]
[OGL LOG][Proc: 0]Ux: update_local_matrix_data: 19.51 [ms]
[OGL LOG][Proc: 0]Ux: update_non_local_matrix_data: 0.077 [ms]
[OGL LOG][Proc: 0]Ux_matrix: call_update: 6.335 [ms]
[OGL LOG][Proc: 0]Ux_rhs: call_update: 4.787 [ms]
[OGL LOG][Preconditioner.H:121] Generate preconditioner BJ MaxBlockSize 1
[OGL LOG][Proc: 0]Ux: init_precond: 0.676 [ms]
[OGL LOG][StoppingCriterion.H:373] Creating stopping criterion with minIter 13 frequency 1
[OGL LOG][Proc: 0]Ux: generate_solver: 0.001 [ms]
[OGL LOG][Proc: 0]Ux: solve: 68.003 [ms]
[OGL LOG][Proc: 0]Ux: copy_x_back: 1.963 [ms]
[OGL LOG][lduLduBase.H:336] 
Statistics:
	Time per iteration: 6182 [mu s]
	Time per residual norm calculation: 331.000000 [mu s]
	Time per iteration and DOF: 0.490080 [ns]
	Retrieve results bandwidth 1.930000 [GByte/s]
[OGL LOG][Proc: 0]Ux: solve_multi_gpu: 83.008 [ms]
BJhipGKOBiCGStab:  Solving for Ux, Initial residual = 0.01488656371006471, Final residual = 0.001186764795103453, No Iterations 11
[OGL LOG][Proc: 0]: global_index_init: 4.159 [ms]
[OGL LOG][Proc: 0]Uy_local_coeffs: call_update: 0 [ms]
[OGL LOG][Proc: 0]Uy_non_local_coeffs: call_update: 0 [ms]
[OGL LOG][Proc: 0]Uy: update_local_matrix_data: 19.655 [ms]
[OGL LOG][Proc: 0]Uy: update_non_local_matrix_data: 0.121 [ms]
[OGL LOG][Proc: 0]Uy_matrix: call_update: 7.03 [ms]
[OGL LOG][Proc: 0]Uy_rhs: call_update: 5.736 [ms]
[OGL LOG][Preconditioner.H:121] Generate preconditioner BJ MaxBlockSize 1
[OGL LOG][Proc: 0]Uy: init_precond: 0.667 [ms]
[OGL LOG][StoppingCriterion.H:373] Creating stopping criterion with minIter 13 frequency 1
[OGL LOG][Proc: 0]Uy: generate_solver: 0.001 [ms]
[OGL LOG][Proc: 0]Uy: solve: 68.441 [ms]
[OGL LOG][Proc: 0]Uy: copy_x_back: 1.961 [ms]
[OGL LOG][lduLduBase.H:336] 
Statistics:
	Time per iteration: 5703 [mu s]
	Time per residual norm calculation: 331.000000 [mu s]
	Time per iteration and DOF: 0.452107 [ns]
	Retrieve results bandwidth 1.932000 [GByte/s]
[OGL LOG][Proc: 0]Uy: solve_multi_gpu: 85.063 [ms]
BJhipGKOBiCGStab:  Solving for Uy, Initial residual = 0.0404480854660703, Final residual = 0.003083567127319082, No Iterations 12
[OGL LOG][Proc: 0]: global_index_init: 0.202 [ms]
[OGL LOG][Proc: 0]Uz_local_coeffs: call_update: 0 [ms]
[OGL LOG][Proc: 0]Uz_non_local_coeffs: call_update: 0 [ms]
[OGL LOG][Proc: 0]Uz: update_local_matrix_data: 19.542 [ms]
[OGL LOG][Proc: 0]Uz: update_non_local_matrix_data: 0.128 [ms]
[OGL LOG][Proc: 0]Uz_matrix: call_update: 8.94 [ms]
[OGL LOG][Proc: 0]Uz_rhs: call_update: 5.194 [ms]
[OGL LOG][Preconditioner.H:121] Generate preconditioner BJ MaxBlockSize 1
[OGL LOG][Proc: 0]Uz: init_precond: 0.578 [ms]
[OGL LOG][StoppingCriterion.H:373] Creating stopping criterion with minIter 13 frequency 1
[OGL LOG][Proc: 0]Uz: generate_solver: 0.001 [ms]
[OGL LOG][Proc: 0]Uz: solve: 70.321 [ms]
[OGL LOG][Proc: 0]Uz: copy_x_back: 2.01 [ms]
[OGL LOG][lduLduBase.H:336] 
Statistics:
	Time per iteration: 6392 [mu s]
	Time per residual norm calculation: 307.000000 [mu s]
	Time per iteration and DOF: 0.506728 [ns]
	Retrieve results bandwidth 1.885000 [GByte/s]
[OGL LOG][Proc: 0]Uz: solve_multi_gpu: 88.28400000000001 [ms]
BJhipGKOBiCGStab:  Solving for Uz, Initial residual = 0.0387002107583694, Final residual = 0.003548945373869165, No Iterations 11
[INFO] MomentumPredictor: 395.715 [ms]
[INFO] MatrixAssemblyPI: 158.863 [ms]
[INFO] MatrixAssemblyPII: 75.48999999999999 [ms]
GAMG:  Solving for p, Initial residual = 0.05473124575426527, Final residual = 0.0003858059795328979, No Iterations 6
[INFO] SolveP: 472.234 [ms]
time step continuity errors : sum local = 0.003390943923057075, global = 4.226100225487089e-05, cumulative = -0.0005554700807654008
[INFO] postSolveP: 38.368 [ms]
[OGL LOG][Proc: 0]: global_index_init: 0.647 [ms]
[OGL LOG][Proc: 0]nuTilda_local_coeffs: call_update: 0 [ms]
[OGL LOG][Proc: 0]nuTilda_non_local_coeffs: call_update: 0 [ms]
[OGL LOG][Proc: 0]nuTilda: update_local_matrix_data: 20.812 [ms]
[OGL LOG][Proc: 0]nuTilda: update_non_local_matrix_data: 0.383 [ms]
[OGL LOG][Proc: 0]nuTilda_matrix: call_update: 4.704 [ms]
[OGL LOG][Proc: 0]nuTilda_rhs: call_update: 7.787 [ms]
[OGL LOG][Preconditioner.H:121] Generate preconditioner BJ MaxBlockSize 1
[OGL LOG][Proc: 0]nuTilda: init_precond: 0.628 [ms]
[OGL LOG][StoppingCriterion.H:373] Creating stopping criterion with minIter 3 frequency 1
[OGL LOG][Proc: 0]nuTilda: generate_solver: 0.001 [ms]
[OGL LOG][Proc: 0]nuTilda: solve: 41.748 [ms]
[OGL LOG][Proc: 0]nuTilda: copy_x_back: 2.001 [ms]
[OGL LOG][lduLduBase.H:336] 
Statistics:
	Time per iteration: 20874 [mu s]
	Time per residual norm calculation: 320.000000 [mu s]
	Time per iteration and DOF: 1.654792 [ns]
	Retrieve results bandwidth 1.894000 [GByte/s]
[OGL LOG][Proc: 0]nuTilda: solve_multi_gpu: 58.066 [ms]
BJhipGKOBiCGStab:  Solving for nuTilda, Initial residual = 0.06055603123101996, Final residual = 0.004856356813640023, No Iterations 2
[INFO] TimeStep: 2529.774 [ms]
ExecutionTime = 56.06 s  ClockTime = 57 s

Time = 13

velocityDampingConstraint velocityDamping damped 0 (0%) of cells, with max limit 300
[INFO] MatrixAssemblyU: 839.2190000000001 [ms]
[OGL LOG][Proc: 0]: global_index_init: 1.092 [ms]
[...]
[OGL LOG][Proc: 0]Uy_rhs: call_update: 5.647 [ms]
[OGL LOG][Preconditioner.H:121] Generate preconditioner BJ MaxBlockSize 1
[OGL LOG][Proc: 0]Uy: init_precond: 0.623 [ms]
[OGL LOG][StoppingCriterion.H:373] Creating stopping criterion with minIter 13 frequency 1
[OGL LOG][Proc: 0]Uy: generate_solver: 0.001 [ms]
[OGL LOG][Proc: 0]Uy: solve: 77.465 [ms]
[OGL LOG][Proc: 0]Uy: copy_x_back: 2.028 [ms]
[OGL LOG][lduLduBase.H:336] 
Statistics:
	Time per iteration: 5958 [mu s]
	Time per residual norm calculation: 328.000000 [mu s]
	Time per iteration and DOF: 0.472322 [ns]
	Retrieve results bandwidth 1.869000 [GByte/s]
[OGL LOG][Proc: 0]Uy: solve_multi_gpu: 92.18600000000001 [ms]
BJhipGKOBiCGStab:  Solving for Uy, Initial residual = 0.05878572469026441, Final residual = 0.0054724102417524, No Iterations 13
[OGL LOG][Proc: 0]: global_index_init: 0.319 [ms]
[OGL LOG][Proc: 0]Uz_local_coeffs: call_update: 0 [ms]
[OGL LOG][Proc: 0]Uz_non_local_coeffs: call_update: 0 [ms]
[OGL LOG][Proc: 0]Uz: update_local_matrix_data: 19.748 [ms]
[OGL LOG][Proc: 0]Uz: update_non_local_matrix_data: 0.093 [ms]
[OGL LOG][Proc: 0]Uz_matrix: call_update: 5.748 [ms]
[OGL LOG][Proc: 0]Uz_rhs: call_update: 5.026 [ms]
[OGL LOG][Preconditioner.H:121] Generate preconditioner BJ MaxBlockSize 1
[OGL LOG][Proc: 0]Uz: init_precond: 0.644 [ms]
[OGL LOG][StoppingCriterion.H:373] Creating stopping criterion with minIter 13 frequency 1
[OGL LOG][Proc: 0]Uz: generate_solver: 0.001 [ms]
[OGL LOG][Proc: 0]Uz: solve: 71.642 [ms]
[OGL LOG][Proc: 0]Uz: copy_x_back: 2.019 [ms]
[OGL LOG][lduLduBase.H:336] 
Statistics:
	Time per iteration: 5970 [mu s]
	Time per residual norm calculation: 328.000000 [mu s]
	Time per iteration and DOF: 0.473273 [ns]
	Retrieve results bandwidth 1.877000 [GByte/s]
[OGL LOG][Proc: 0]Uz: solve_multi_gpu: 86.29300000000001 [ms]
BJhipGKOBiCGStab:  Solving for Uz, Initial residual = 0.06785075951412026, Final residual = 0.006684512454899549, No Iterations 12
[INFO] MomentumPredictor: 406.876 [ms]
[INFO] MatrixAssemblyPI: 157.144 [ms]
[INFO] MatrixAssemblyPII: 73.72799999999999 [ms]
GAMG:  Solving for p, Initial residual = 0.0547995719955419, Final residual = 0.0004628399147017246, No Iterations 5
[INFO] SolveP: 394.36 [ms]
time step continuity errors : sum local = 0.004728173051592294, global = 2.16013469246573e-05, cumulative = 0.0002526998475725539
[INFO] postSolveP: 38.66 [ms]
[OGL LOG][Proc: 0]: global_index_init: 4.529 [ms]
[OGL LOG][Proc: 0]nuTilda_local_coeffs: call_update: 0 [ms]
[OGL LOG][Proc: 0]nuTilda_non_local_coeffs: call_update: 0 [ms]
[OGL LOG][Proc: 0]nuTilda: update_local_matrix_data: 20.455 [ms]
[OGL LOG][Proc: 0]nuTilda: update_non_local_matrix_data: 0.101 [ms]
[OGL LOG][Proc: 0]nuTilda_matrix: call_update: 10.081 [ms]
[OGL LOG][Proc: 0]nuTilda_rhs: call_update: 0.882 [ms]
[OGL LOG][Preconditioner.H:121] Generate preconditioner BJ MaxBlockSize 1
[OGL LOG][Proc: 0]nuTilda: init_precond: 0.547 [ms]
[OGL LOG][StoppingCriterion.H:373] Creating stopping criterion with minIter 2 frequency 1
[OGL LOG][Proc: 0]nuTilda: generate_solver: 0.001 [ms]
[OGL LOG][Proc: 0]nuTilda: solve: 50.831 [ms]
[OGL LOG][Proc: 0]nuTilda: copy_x_back: 1.995 [ms]
[OGL LOG][lduLduBase.H:336] 
Statistics:
	Time per iteration: 25415 [mu s]
	Time per residual norm calculation: 308.000000 [mu s]
	Time per iteration and DOF: 2.014781 [ns]
	Retrieve results bandwidth 1.899000 [GByte/s]
[OGL LOG][Proc: 0]nuTilda: solve_multi_gpu: 65.57600000000001 [ms]
BJhipGKOBiCGStab:  Solving for nuTilda, Initial residual = 0.01195068647857591, Final residual = 0.0007784827490145103, No Iterations 2
bounding nuTilda, min: -0.0001302737956774402 max: 0.006925304730949842 average: 0.0003368841829947756
[INFO] TimeStep: 2478.615 [ms]
ExecutionTime = 166.06 s  ClockTime = 167 s

Time = 48

velocityDampingConstraint velocityDamping damped 0 (0%) of cells, with max limit 300
[INFO] MatrixAssemblyU: 832.269 [ms]
[OGL LOG][Proc: 0]: global_index_init: 0.246 [ms]
[OGL LOG][Proc: 0]Ux_local_coeffs: call_update: 0 [ms]
[OGL LOG][Proc: 0]Ux_non_local_coeffs: call_update: 0 [ms]
[OGL LOG][Proc: 0]Ux: update_local_matrix_data: 19.876 [ms]
[OGL LOG][Proc: 0]Ux: update_non_local_matrix_data: 0.098 [ms]
[OGL LOG][Proc: 0]Ux_matrix: call_update: 5.111 [ms]
[OGL LOG][Proc: 0]Ux_rhs: call_update: 6.374000000000001 [ms]
[OGL LOG][Preconditioner.H:121] Generate preconditioner BJ MaxBlockSize 1
[OGL LOG][Proc: 0]Ux: init_precond: 0.594 [ms]
[OGL LOG][StoppingCriterion.H:373] Creating stopping criterion with minIter 15 frequency 1
[OGL LOG][Proc: 0]Ux: generate_solver: 0.001 [ms]
[OGL LOG][Proc: 0]Ux: solve: 73.73099999999999 [ms]
[OGL LOG][Proc: 0]Ux: copy_x_back: 1.976 [ms]
[OGL LOG][lduLduBase.H:336] 
Statistics:
	Time per iteration: 5671 [mu s]
	Time per residual norm calculation: 317.000000 [mu s]
	Time per iteration and DOF: 0.449570 [ns]
	Retrieve results bandwidth 1.918000 [GByte/s]
[OGL LOG][Proc: 0]Ux: solve_multi_gpu: 88.968 [ms]
BJhipGKOBiCGStab:  Solving for Ux, Initial residual = 0.0116067164396145, Final residual = 0.001016397870004012, No Iterations 13
[OGL LOG][Proc: 0]: global_index_init: 2.63 [ms]
[OGL LOG][Proc: 0]Uy_local_coeffs: call_update: 0 [ms]
[OGL LOG][Proc: 0]Uy_non_local_coeffs: call_update: 0 [ms]
[OGL LOG][Proc: 0]Uy: update_local_matrix_data: 19.628 [ms]
[OGL LOG][Proc: 0]Uy: update_non_local_matrix_data: 0.093 [ms]
[OGL LOG][Proc: 0]Uy_matrix: call_update: 5.274 [ms]
[OGL LOG][Proc: 0]Uy_rhs: call_update: 6.805 [ms]
[OGL LOG][Preconditioner.H:121] Generate preconditioner BJ MaxBlockSize 1
[OGL LOG][Proc: 0]Uy: init_precond: 0.584 [ms]
[OGL LOG][StoppingCriterion.H:373] Creating stopping criterion with minIter 15 frequency 1
[OGL LOG][Proc: 0]Uy: generate_solver: 0.001 [ms]
[OGL LOG][Proc: 0]Uy: solve: 79.163 [ms]
[OGL LOG][Proc: 0]Uy: copy_x_back: 2.001 [ms]
[OGL LOG][lduLduBase.H:336] 
Statistics:
	Time per iteration: 7196 [mu s]
	Time per residual norm calculation: 324.000000 [mu s]
	Time per iteration and DOF: 0.570465 [ns]
	Retrieve results bandwidth 1.894000 [GByte/s]
[OGL LOG][Proc: 0]Uy: solve_multi_gpu: 94.986 [ms]
BJhipGKOBiCGStab:  Solving for Uy, Initial residual = 0.05631322451082643, Final residual = 0.004940307751944986, No Iterations 11
[OGL LOG][Proc: 0]: global_index_init: 0.294 [ms]
[OGL LOG][Proc: 0]Uz_local_coeffs: call_update: 0 [ms]
[OGL LOG][Proc: 0]Uz_non_local_coeffs: call_update: 0 [ms]
[OGL LOG][Proc: 0]Uz: update_local_matrix_data: 19.873 [ms]
[OGL LOG][Proc: 0]Uz: update_non_local_matrix_data: 0.146 [ms]
[OGL LOG][Proc: 0]Uz_matrix: call_update: 8.49 [ms]
[OGL LOG][Proc: 0]Uz_rhs: call_update: 1.958 [ms]
[OGL LOG][Preconditioner.H:121] Generate preconditioner BJ MaxBlockSize 1
[OGL LOG][Proc: 0]Uz: init_precond: 0.578 [ms]
[OGL LOG][StoppingCriterion.H:373] Creating stopping criterion with minIter 14 frequency 1
[OGL LOG][Proc: 0]Uz: generate_solver: 0.001 [ms]
[OGL LOG][Proc: 0]Uz: solve: 87.68600000000001 [ms]
[OGL LOG][Proc: 0]Uz: copy_x_back: 2.019 [ms]
[OGL LOG][lduLduBase.H:336] 
Statistics:
	Time per iteration: 6745 [mu s]
	Time per residual norm calculation: 328.000000 [mu s]
	Time per iteration and DOF: 0.534712 [ns]
	Retrieve results bandwidth 1.877000 [GByte/s]
[OGL LOG][Proc: 0]Uz: solve_multi_gpu: 101.935 [ms]
BJhipGKOBiCGStab:  Solving for Uz, Initial residual = 0.06917545914798144, Final residual = 0.006422129148800458, No Iterations 13
[INFO] MomentumPredictor: 425.544 [ms]
[INFO] MatrixAssemblyPI: 158.985 [ms]
[INFO] MatrixAssemblyPII: 72.58 [ms]
GAMG:  Solving for p, Initial residual = 0.09108119824873151, Final residual = 0.0006167675255160104, No Iterations 5
[INFO] SolveP: 400.616 [ms]
time step continuity errors : sum local = 0.00639551633028047, global = -6.730236492497866e-06, cumulative = 0.000245969611080056
[INFO] postSolveP: 43.436 [ms]
[OGL LOG][Proc: 0]: global_index_init: 0.37 [ms]
[OGL LOG][Proc: 0]nuTilda_local_coeffs: call_update: 0 [ms]
[OGL LOG][Proc: 0]nuTilda_non_local_coeffs: call_update: 0 [ms]
[OGL LOG][Proc: 0]nuTilda: update_local_matrix_data: 21.317 [ms]
[OGL LOG][Proc: 0]nuTilda: update_non_local_matrix_data: 0.109 [ms]
[OGL LOG][Proc: 0]nuTilda_matrix: call_update: 5.738 [ms]
[OGL LOG][Proc: 0]nuTilda_rhs: call_update: 5.447 [ms]
[OGL LOG][Preconditioner.H:121] Generate preconditioner BJ MaxBlockSize 1
[OGL LOG][Proc: 0]nuTilda: init_precond: 0.578 [ms]
[OGL LOG][StoppingCriterion.H:373] Creating stopping criterion with minIter 3 frequency 1
[OGL LOG][Proc: 0]nuTilda: generate_solver: 0.001 [ms]
[OGL LOG][Proc: 0]nuTilda: solve: 47.106 [ms]
[OGL LOG][Proc: 0]nuTilda: copy_x_back: 2.032 [ms]
[OGL LOG][lduLduBase.H:336] 
Statistics:
	Time per iteration: 23553 [mu s]
	Time per residual norm calculation: 642.000000 [mu s]
	Time per iteration and DOF: 1.867171 [ns]
	Retrieve results bandwidth 1.865000 [GByte/s]
[OGL LOG][Proc: 0]nuTilda: solve_multi_gpu: 62.139 [ms]
BJhipGKOBiCGStab:  Solving for nuTilda, Initial residual = 0.01526333656397908, Final residual = 0.001434634617032271, No Iterations 2
bounding nuTilda, min: -0.0003884350140427652 max: 0.00696477018971147 average: 0.0003439437616956321
[INFO] TimeStep: 2512.387 [ms]
ExecutionTime = 169.2 s  ClockTime = 170 s

Time = 49

velocityDampingConstraint velocityDamping damped 0 (0%) of cells, with max limit 300
[INFO] MatrixAssemblyU: 836.54 [ms]
[OGL LOG][Proc: 0]: global_index_init: 0.208 [ms]
[OGL LOG][Proc: 0]Ux_local_coeffs: call_update: 0 [ms]
[OGL LOG][Proc: 0]Ux_non_local_coeffs: call_update: 0 [ms]
[OGL LOG][Proc: 0]Ux: update_local_matrix_data: 19.964 [ms]
[OGL LOG][Proc: 0]Ux: update_non_local_matrix_data: 0.097 [ms]
[OGL LOG][Proc: 0]Ux_matrix: call_update: 5.047 [ms]
[OGL LOG][Proc: 0]Ux_rhs: call_update: 6.571 [ms]
[OGL LOG][Preconditioner.H:121] Generate preconditioner BJ MaxBlockSize 1
[OGL LOG][Proc: 0]Ux: init_precond: 0.663 [ms]
[OGL LOG][StoppingCriterion.H:373] Creating stopping criterion with minIter 16 frequency 1
[OGL LOG][Proc: 0]Ux: generate_solver: 0.001 [ms]
[OGL LOG][Proc: 0]Ux: solve: 72.85899999999999 [ms]
[OGL LOG][Proc: 0]Ux: copy_x_back: 1.99 [ms]
[OGL LOG][lduLduBase.H:336] 
Statistics:
	Time per iteration: 6623 [mu s]
	Time per residual norm calculation: 324.000000 [mu s]
	Time per iteration and DOF: 0.525040 [ns]
	Retrieve results bandwidth 1.904000 [GByte/s]
[OGL LOG][Proc: 0]Ux: solve_multi_gpu: 88.337 [ms]
BJhipGKOBiCGStab:  Solving for Ux, Initial residual = 0.01193976818111982, Final residual = 0.001167890779091189, No Iterations 11
[OGL LOG][Proc: 0]: global_index_init: 0.388 [ms]
[OGL LOG][Proc: 0]Uy_local_coeffs: call_update: 0 [ms]
[OGL LOG][Proc: 0]Uy_non_local_coeffs: call_update: 0 [ms]
[OGL LOG][Proc: 0]Uy: update_local_matrix_data: 20.887 [ms]
[OGL LOG][Proc: 0]Uy: update_non_local_matrix_data: 0.08700000000000001 [ms]
[OGL LOG][Proc: 0]Uy_matrix: call_update: 7.71 [ms]
[OGL LOG][Proc: 0]Uy_rhs: call_update: 3.401 [ms]
[OGL LOG][Preconditioner.H:121] Generate preconditioner BJ MaxBlockSize 1
[OGL LOG][Proc: 0]Uy: init_precond: 0.5670000000000001 [ms]
[OGL LOG][StoppingCriterion.H:373] Creating stopping criterion with minIter 13 frequency 1
[OGL LOG][Proc: 0]Uy: generate_solver: 0.001 [ms]
[OGL LOG][Proc: 0]Uy: solve: 80.78100000000001 [ms]
[OGL LOG][Proc: 0]Uy: copy_x_back: 2.009 [ms]
[OGL LOG][lduLduBase.H:336] 
Statistics:
	Time per iteration: 6213 [mu s]
	Time per residual norm calculation: 382.000000 [mu s]
	Time per iteration and DOF: 0.492537 [ns]
	Retrieve results bandwidth 1.886000 [GByte/s]
[OGL LOG][Proc: 0]Uy: solve_multi_gpu: 95.666 [ms]
BJhipGKOBiCGStab:  Solving for Uy, Initial residual = 0.06019747012181895, Final residual = 0.00593853233714802, No Iterations 13
[OGL LOG][Proc: 0]: global_index_init: 0.329 [ms]
[OGL LOG][Proc: 0]Uz_local_coeffs: call_update: 0 [ms]
[OGL LOG][Proc: 0]Uz_non_local_coeffs: call_update: 0 [ms]
[OGL LOG][Proc: 0]Uz: update_local_matrix_data: 19.99 [ms]
[OGL LOG][Proc: 0]Uz: update_non_local_matrix_data: 0.145 [ms]
[OGL LOG][Proc: 0]Uz_matrix: call_update: 4.559 [ms]
[OGL LOG][Proc: 0]Uz_rhs: call_update: 7.458 [ms]
[OGL LOG][Preconditioner.H:121] Generate preconditioner BJ MaxBlockSize 1
[OGL LOG][Proc: 0]Uz: init_precond: 0.639 [ms]
[OGL LOG][StoppingCriterion.H:373] Creating stopping criterion with minIter 15 frequency 1
[OGL LOG][Proc: 0]Uz: generate_solver: 0.001 [ms]
[OGL LOG][Proc: 0]Uz: solve: 72.46900000000001 [ms]
[OGL LOG][Proc: 0]Uz: copy_x_back: 1.974 [ms]
[OGL LOG][lduLduBase.H:336] 
Statistics:
	Time per iteration: 6588 [mu s]
	Time per residual norm calculation: 323.000000 [mu s]
	Time per iteration and DOF: 0.522266 [ns]
	Retrieve results bandwidth 1.920000 [GByte/s]
[OGL LOG][Proc: 0]Uz: solve_multi_gpu: 88.255 [ms]
BJhipGKOBiCGStab:  Solving for Uz, Initial residual = 0.1731981973528068, Final residual = 0.01612182990429323, No Iterations 11
[INFO] MomentumPredictor: 411.618 [ms]
[INFO] MatrixAssemblyPI: 156.888 [ms]
[INFO] MatrixAssemblyPII: 75.65300000000001 [ms]
GAMG:  Solving for p, Initial residual = 0.06754460831316106, Final residual = 0.0006392269415619221, No Iterations 5
[INFO] SolveP: 399.9 [ms]
time step continuity errors : sum local = 0.006707142353635009, global = 3.288500904687141e-05, cumulative = 0.0002788546201269274
[INFO] postSolveP: 39.385 [ms]
[OGL LOG][Proc: 0]: global_index_init: 2.749 [ms]
[OGL LOG][Proc: 0]nuTilda_local_coeffs: call_update: 0 [ms]
[OGL LOG][Proc: 0]nuTilda_non_local_coeffs: call_update: 0 [ms]
[OGL LOG][Proc: 0]nuTilda: update_local_matrix_data: 21.803 [ms]
[OGL LOG][Proc: 0]nuTilda: update_non_local_matrix_data: 0.09 [ms]
[OGL LOG][Proc: 0]nuTilda_matrix: call_update: 4.057 [ms]
[OGL LOG][Proc: 0]nuTilda_rhs: call_update: 12.601 [ms]
[OGL LOG][Preconditioner.H:121] Generate preconditioner BJ MaxBlockSize 1
[OGL LOG][Proc: 0]nuTilda: init_precond: 0.649 [ms]
[OGL LOG][StoppingCriterion.H:373] Creating stopping criterion with minIter 2 frequency 1
[OGL LOG][Proc: 0]nuTilda: generate_solver: 0.001 [ms]
[OGL LOG][Proc: 0]nuTilda: solve: 44.202 [ms]
[OGL LOG][Proc: 0]nuTilda: copy_x_back: 2.024 [ms]
[OGL LOG][lduLduBase.H:336] 
Statistics:
	Time per iteration: 22101 [mu s]
	Time per residual norm calculation: 304.000000 [mu s]
	Time per iteration and DOF: 1.752063 [ns]
	Retrieve results bandwidth 1.872000 [GByte/s]
[OGL LOG][Proc: 0]nuTilda: solve_multi_gpu: 64.78700000000001 [ms]
BJhipGKOBiCGStab:  Solving for nuTilda, Initial residual = 0.0115089386811371, Final residual = 0.000760643864682079, No Iterations 2
bounding nuTilda, min: -0.0001440158522820207 max: 0.00701619987850438 average: 0.0003533983218910961
[INFO] TimeStep: 2500.976 [ms]
ExecutionTime = 172.33 s  ClockTime = 174 s

Time = 50

velocityDampingConstraint velocityDamping damped 0 (0%) of cells, with max limit 300
[INFO] MatrixAssemblyU: 832.202 [ms]
[OGL LOG][Proc: 0]: global_index_init: 0.218 [ms]
[OGL LOG][Proc: 0]Ux_local_coeffs: call_update: 0 [ms]
[OGL LOG][Proc: 0]Ux_non_local_coeffs: call_update: 0 [ms]
[OGL LOG][Proc: 0]Ux: update_local_matrix_data: 20.528 [ms]
[OGL LOG][Proc: 0]Ux: update_non_local_matrix_data: 0.08600000000000001 [ms]
[OGL LOG][Proc: 0]Ux_matrix: call_update: 4.911 [ms]
[OGL LOG][Proc: 0]Ux_rhs: call_update: 5.992 [ms]
[OGL LOG][Preconditioner.H:121] Generate preconditioner BJ MaxBlockSize 1
[OGL LOG][Proc: 0]Ux: init_precond: 0.58 [ms]
[OGL LOG][StoppingCriterion.H:373] Creating stopping criterion with minIter 13 frequency 1
[OGL LOG][Proc: 0]Ux: generate_solver: 0.002 [ms]
[OGL LOG][Proc: 0]Ux: solve: 97.985 [ms]
[OGL LOG][Proc: 0]Ux: copy_x_back: 1.943 [ms]
[OGL LOG][lduLduBase.H:336] 
Statistics:
	Time per iteration: 6532 [mu s]
	Time per residual norm calculation: 493.000000 [mu s]
	Time per iteration and DOF: 0.517826 [ns]
	Retrieve results bandwidth 1.950000 [GByte/s]
[OGL LOG][Proc: 0]Ux: solve_multi_gpu: 112.661 [ms]
BJhipGKOBiCGStab:  Solving for Ux, Initial residual = 0.0120777963085873, Final residual = 0.001054659624702869, No Iterations 15
[OGL LOG][Proc: 0]: global_index_init: 0.364 [ms]
[OGL LOG][Proc: 0]Uy_local_coeffs: call_update: 0 [ms]
[OGL LOG][Proc: 0]Uy_non_local_coeffs: call_update: 0 [ms]
[OGL LOG][Proc: 0]Uy: update_local_matrix_data: 20.047 [ms]
[OGL LOG][Proc: 0]Uy: update_non_local_matrix_data: 0.096 [ms]
[OGL LOG][Proc: 0]Uy_matrix: call_update: 5.5 [ms]
[OGL LOG][Proc: 0]Uy_rhs: call_update: 9.039 [ms]
[OGL LOG][Preconditioner.H:121] Generate preconditioner BJ MaxBlockSize 1
[OGL LOG][Proc: 0]Uy: init_precond: 0.678 [ms]
[OGL LOG][StoppingCriterion.H:373] Creating stopping criterion with minIter 16 frequency 1
[OGL LOG][Proc: 0]Uy: generate_solver: 0 [ms]
[OGL LOG][Proc: 0]Uy: solve: 71.84700000000001 [ms]
[OGL LOG][Proc: 0]Uy: copy_x_back: 2.011 [ms]
[OGL LOG][lduLduBase.H:336] 
Statistics:
	Time per iteration: 7184 [mu s]
	Time per residual norm calculation: 299.000000 [mu s]
	Time per iteration and DOF: 0.569514 [ns]
	Retrieve results bandwidth 1.884000 [GByte/s]
[OGL LOG][Proc: 0]Uy: solve_multi_gpu: 90.252 [ms]
BJhipGKOBiCGStab:  Solving for Uy, Initial residual = 0.05834995779661638, Final residual = 0.005355796495764412, No Iterations 10
[OGL LOG][Proc: 0]: global_index_init: 0.332 [ms]
[OGL LOG][Proc: 0]Uz_local_coeffs: call_update: 0 [ms]
[OGL LOG][Proc: 0]Uz_non_local_coeffs: call_update: 0 [ms]
[OGL LOG][Proc: 0]Uz: update_local_matrix_data: 20.176 [ms]
[OGL LOG][Proc: 0]Uz: update_non_local_matrix_data: 0.093 [ms]
[OGL LOG][Proc: 0]Uz_matrix: call_update: 6.055 [ms]
[OGL LOG][Proc: 0]Uz_rhs: call_update: 8.205 [ms]
[OGL LOG][Preconditioner.H:121] Generate preconditioner BJ MaxBlockSize 1
[OGL LOG][Proc: 0]Uz: init_precond: 0.592 [ms]
[OGL LOG][StoppingCriterion.H:373] Creating stopping criterion with minIter 13 frequency 1
[OGL LOG][Proc: 0]Uz: generate_solver: 0.001 [ms]
[OGL LOG][Proc: 0]Uz: solve: 73.747 [ms]
[OGL LOG][Proc: 0]Uz: copy_x_back: 2.015 [ms]
[OGL LOG][lduLduBase.H:336] 
Statistics:
	Time per iteration: 6704 [mu s]
	Time per residual norm calculation: 302.000000 [mu s]
	Time per iteration and DOF: 0.531462 [ns]
	Retrieve results bandwidth 1.881000 [GByte/s]
[OGL LOG][Proc: 0]Uz: solve_multi_gpu: 91.84700000000001 [ms]
BJhipGKOBiCGStab:  Solving for Uz, Initial residual = 0.09057053804011134, Final residual = 0.008602726944999821, No Iterations 11
[INFO] MomentumPredictor: 435.279 [ms]
[INFO] MatrixAssemblyPI: 157.692 [ms]
[INFO] MatrixAssemblyPII: 75.81 [ms]
GAMG:  Solving for p, Initial residual = 0.0582370818214431, Final residual = 0.0005616943536951817, No Iterations 5
[INFO] SolveP: 398.448 [ms]
time step continuity errors : sum local = 0.005807447575487719, global = 5.656433018958077e-05, cumulative = 0.0003354189503165082
[INFO] postSolveP: 40.817 [ms]
[OGL LOG][Proc: 0]: global_index_init: 1.643 [ms]
[OGL LOG][Proc: 0]nuTilda_local_coeffs: call_update: 0 [ms]
[OGL LOG][Proc: 0]nuTilda_non_local_coeffs: call_update: 0 [ms]
[OGL LOG][Proc: 0]nuTilda: update_local_matrix_data: 20.478 [ms]
[OGL LOG][Proc: 0]nuTilda: update_non_local_matrix_data: 0.172 [ms]
[OGL LOG][Proc: 0]nuTilda_matrix: call_update: 6.444 [ms]
[OGL LOG][Proc: 0]nuTilda_rhs: call_update: 6.645 [ms]
[OGL LOG][Preconditioner.H:121] Generate preconditioner BJ MaxBlockSize 1
[OGL LOG][Proc: 0]nuTilda: init_precond: 0.643 [ms]
[OGL LOG][StoppingCriterion.H:373] Creating stopping criterion with minIter 3 frequency 1
[OGL LOG][Proc: 0]nuTilda: generate_solver: 0.001 [ms]
[OGL LOG][Proc: 0]nuTilda: solve: 54.73 [ms]
[OGL LOG][Proc: 0]nuTilda: copy_x_back: 2.005 [ms]
[OGL LOG][lduLduBase.H:336] 
Statistics:
	Time per iteration: 27365 [mu s]
	Time per residual norm calculation: 340.000000 [mu s]
	Time per iteration and DOF: 2.169368 [ns]
	Retrieve results bandwidth 1.890000 [GByte/s]
[OGL LOG][Proc: 0]nuTilda: solve_multi_gpu: 71.636 [ms]
BJhipGKOBiCGStab:  Solving for nuTilda, Initial residual = 0.014583755494451, Final residual = 0.001404783623083037, No Iterations 2
bounding nuTilda, min: -0.0004542754329714035 max: 0.007048613495528889 average: 0.0003603485420818685
[INFO] TimeStep: 2526.453 [ms]
ExecutionTime = 175.49 s  ClockTime = 177 s

End

Finalising parallel run
