/*---------------------------------------------------------------------------*\
| =========                 |                                                 |
| \\      /  F ield         | OpenFOAM: The Open Source CFD Toolbox           |
|  \\    /   O peration     | Version:  2312                                  |
|   \\  /    A nd           | Website:  www.openfoam.com                      |
|    \\/     M anipulation  |                                                 |
\*---------------------------------------------------------------------------*/
Build  : a46b310f-20240104 OPENFOAM=2312 version=v2312
Arch   : "LSB;label=32;scalar=64"
Exec   : icoFoam -parallel -case /hppfs/scratch/0B/di35yan/lidDriven3D/workspace/87940b517c28b08ccd46485507c977cf/case
Date   : Feb 17 2024
Time   : 10:32:35
Host   : i20r01c05s04
PID    : 118950
I/O    : uncollated
Case   : /hppfs/scratch/0B/di35yan/lidDriven3D/workspace/87940b517c28b08ccd46485507c977cf/case
nProcs : 448
Hosts  :
(
    (i20r01c05s04 112)
    (i20r01c05s06 112)
    (i20r01c05s08 112)
    (i20r01c06s02 112)
)
Pstream initialized with:
    floatTransfer      : false
    nProcsSimpleSum    : 0
    nonBlockingExchange: 0 (tuning: 0)
    exchange algorithm : 0
    commsType          : nonBlocking
    polling iterations : 0
trapFpe: Floating point exception trapping enabled (FOAM_SIGFPE).
fileModificationChecking : Monitoring run-time modified files using timeStampMaster (fileModificationSkew 5, maxFileModificationPolls 20)
allowSystemOperations : Allowing user-supplied system call operations

// * * * * * * * * * * * * * * * * * * * * * * * * * * * * * * * * * * * * * //
Create time

--> FOAM Warning : 
    From void* Foam::dlLibraryTable::openLibrary(const Foam::fileName&, bool)
    in file db/dynamicLibrary/dlLibraryTable/dlLibraryTable.C at line 188
    Could not load "libpetscFoam.so"
libpetscFoam.so: cannot open shared object file: No such file or directory
Create mesh for time = 0


PISO: Operating solver in PISO mode

Reading transportProperties

Reading field p

Reading field U

Reading/calculating face flux field phi


Starting time loop

Time = 0.000125

Courant Number mean: 8.02505e-18 max: 4.85723e-14
DILUPBiCGStab:  Solving for Ux, Initial residual = 1, Final residual = 0.0242502, No Iterations 5
DILUPBiCGStab:  Solving for Uy:  solution singularity
DILUPBiCGStab:  Solving for Uz:  solution singularity
[2] [3] [4] [6] [15] [24] [28] [33] [41] [45] [62] [63] [69] [71] [72] [78] [88] [89] [102] [105] [106] [0] [1] [5] [7] [8] [9] [10] [11] [12] [13] [14] [16] [17] [18] [19] [20] [21] [22] [23] [25] [26] [27] [29] [30] [31] [32] [34] [35] [36] [37] [38] [39] [40] [42] [43] [44] [46] [47] [48] [49] [50] [51] [52] [53] [54] [55] [56] [57] [58] [59] [60] [61] [64] [65] [66] [67] [68] [70] [73] [74] [75] [76] [77] [79] [80] [81] [82] [83] [84] [85] [86] [87] [90] [91] [92] [93] [94] [95] [96] [97] [98] [99] [100] [101] [103] [104] [107] [108] [109] [110] [111] 
[2] 
[2] --> FOAM FATAL IO ERROR: (openfoam-2312)
[2] Entry 'smoother' not found in dictionary 
[2] 
[2] 
[2]     From const Foam::entry& Foam::dictionary::lookupEntry(const Foam::word&, Foam::keyType::option) const
[2]     in file db/dictionary/dictionary.C at line 363.
[2] 
FOAM parallel run exiting
[2] 

[6] 
[6] --> FOAM FATAL IO ERROR: (openfoam-2312)
[6] Entry 'smoother' not found in dictionary 
[6] 
[6] 
[6]     From const Foam::entry& Foam::dictionary::lookupEntry(const Foam::word&, Foam::keyType::option) const
[6]     in file db/dictionary/dictionary.C at line 363.
[6] 
FOAM parallel run exiting
[6] 

[33] 
[33] --> FOAM FATAL IO ERROR: (openfoam-2312)
[33] Entry 'smoother' not found in dictionary 
[33] 
[33] 
[33]     From const Foam::entry& Foam::dictionary::lookupEntry(const Foam::word&, Foam::keyType::option) const
[33]     in file db/dictionary/dictionary.C at line 363.
[33] 
FOAM parallel run exiting
[33] 

[41] 
[41] --> FOAM FATAL IO ERROR: (openfoam-2312)
[41] Entry 'smoother' not found in dictionary 
[41] 
[41] 
[41]     From const Foam::entry& Foam::dictionary::lookupEntry(const Foam::word&, Foam::keyType::option) const
[41]     in file db/dictionary/dictionary.C at line 363.
[41] 
FOAM parallel run exiting
[41] 

[45] 
[45] --> FOAM FATAL IO ERROR: (openfoam-2312)
[45] Entry 'smoother' not found in dictionary 
[45] 
[45] 
[45]     From const Foam::entry& Foam::dictionary::lookupEntry(const Foam::word&, Foam::keyType::option) const
[45]     in file db/dictionary/dictionary.C at line 363.
[45] 
FOAM parallel run exiting
[45] 

[71] 
[71] --> FOAM FATAL IO ERROR: (openfoam-2312)
[71] Entry 'smoother' not found in dictionary 
[71] 
[71] 
[71]     From const Foam::entry& Foam::dictionary::lookupEntry(const Foam::word&, Foam::keyType::option) const
[71]     in file db/dictionary/dictionary.C at line 363.
[71] 
FOAM parallel run exiting
[71] 

[88] 
[88] --> FOAM FATAL IO ERROR: (openfoam-2312)
[88] Entry 'smoother' not found in dictionary 
[88] 
[88] 
[88]     From const Foam::entry& Foam::dictionary::lookupEntry(const Foam::word&, Foam::keyType::option) const
[88]     in file db/dictionary/dictionary.C at line 363.
[88] 
FOAM parallel run exiting
[88] 

[89] 
[89] --> FOAM FATAL IO ERROR: (openfoam-2312)
[89] Entry 'smoother' not found in dictionary 
[89] 
[89] 
[89]     From const Foam::entry& Foam::dictionary::lookupEntry(const Foam::word&, Foam::keyType::option) const
[89]     in file db/dictionary/dictionary.C at line 363.
[89] 
FOAM parallel run exiting
[89] 

[0] 
[0] --> FOAM FATAL IO ERROR: (openfoam-2312)
[0] Entry 'smoother' not found in dictionary 
[0] 
[0] 
[0]     From const Foam::entry& Foam::dictionary::lookupEntry(const Foam::word&, Foam::keyType::option) const
[0]     in file db/dictionary/dictionary.C at line 
[1] 
[1] --> FOAM FATAL IO ERROR: (openfoam-
[3] 
[3] --> FOAM FATAL IO ERROR: (openfoam-2312)
[3] Entry 'smoother' not found in dictionary 
[3] 
[3] 
[3]     From const Foam::entry& Foam::dictionary::lookupEntry(const Foam::word&, Foam::keyType::option) const
[3]     in file db/dictionary/dictionary.C at line 363.
[3] 
FOAM parallel run exiting
[3] 

[5] 
[5] --> FOAM FATAL IO ERROR: (openfoam-2312)
[5] Entry 'smoother' not found in dictionary 
[5] 
[5] 
[5]     From const Foam::entry& Foam::dictionary::lookupEntry(const Foam::word&, Foam::keyType::option) const
[5]     in file db/dictionary/dictionary.C
[11] 
[11] --> FOAM FATAL IO ERROR: (openfoam-2312)
[11] Entry 'smoother' not found in dictionary 
[11] 
[11] 
[11]     From const Foam::entry& Foam::dictionary::lookupEntry(const Foam::word&, Foam::keyType::option) const
[11]     in file db/dictionary/dictionary.C at line 363.
[11] 
FOAM parallel run exiting

[24] 
[24] --> FOAM FATAL IO ERROR: (openfoam-2312)
[24] Entry 'smoother' not found in dictionary 
[24] 
[24] 
[24]     From const Foam::entry& Foam::dictionary::lookupEntry(const Foam::word&, Foam::keyType::option) const
[24]     in file db/dictionary/dictionary.C at line 363.
[24] 
FOAM parallel run exiting
[24] 

[78] 
[78] --> FOAM FATAL IO ERROR: (openfoam-2312)
[78] Entry 'smoother' not found in dictionary 
[78] 
[78] 
[78]     From const Foam::entry& Foam::dictionary::lookupEntry(const Foam::word&, Foam::keyType::option) const
[78]     in file db/dictionary/dictionary.C at line 363.
[78] 
FOAM parallel run exiting
[78] 

[102] 
[102] --> FOAM FATAL IO ERROR: (openfoam-2312)
[102] Entry 'smoother' not found in dictionary 
[102] 
[102] 
[102]     From const Foam::entry& Foam::dictionary::lookupEntry(const Foam::word&, Foam::keyType::option) const
[102]     in file db/dictionary/dictionary.C at line 363.
[102] 
FOAM parallel run exiting
[102] 
363.
[0] 
FOAM parallel run exiting
[0] 
2312)
[1] Entry 'smoother' not found in dictionary 
[1] 
[1] 
[1]     From const Foam::entry& Foam::dictionary::lookupEntry(const Foam::word&, Foam::keyType::option) const
[1]     in file db/dictionary/dictionary.C at line 363.
[1] 
FOAM parallel run exiting
[1] 
 at line 363.
[5] 
FOAM parallel run exiting
[5] 
[11] 

[21] 
[21] --> FOAM FATAL IO ERROR: (openfoam-2312)
[21] Entry 'smoother' not found in dictionary 
[21] 
[21] 
[21]     From const Foam::entry& Foam::dictionary::lookupEntry(const Foam::word&, Foam::keyType::option) const
[21]     in file db/dictionary/dictionary.C at line 363.
[21] 
FOAM parallel run exiting
[21] 

[23] 
[23] --> FOAM FATAL IO ERROR: (openfoam-2312)
[23] Entry 'smoother' not found in dictionary 
[23] 
[23] 
[23]     From const Foam::entry& Foam::dictionary::lookupEntry(const Foam::word&, Foam::keyType::option) const
[23]     in file db/dictionary/dictionary.C at line 363.
[23] 
FOAM parallel run exiting
[23] 

[25] 
[25] --> FOAM FATAL IO ERROR: (openfoam-2312)
[25] Entry 'smoother' not found in dictionary 
[25] 
[25] 
[25]     From const Foam::entry& Foam::dictionary::lookupEntry(const Foam::word&, Foam::keyType::option) const
[25]     in file db/dictionary/dictionary.C at line 363.
[25] 
FOAM parallel run exiting
[25] 

[28] 
[28] --> FOAM FATAL IO ERROR: (openfoam-2312)
[28] Entry 'smoother' not found in dictionary 
[28] 
[28] 
[28]     From const Foam::entry& Foam::dictionary::lookupEntry(const Foam::word&, Foam::keyType::option) const
[28]     in file db/dictionary/dictionary.C at line 363.
[28] 
FOAM parallel run exiting
[28] 

[53] 
[53] --> FOAM FATAL IO ERROR: (openfoam-2312)
[53] Entry 'smoother' not found in dictionary 
[53] 
[53] 
[53]     From const Foam::entry& Foam::dictionary::lookupEntry(const Foam::word&, Foam::keyType::option) const
[53]     in file db/dictionary/dictionary.C at line 363.
[53] 
FOAM parallel run exiting
[53] 

[63] 
[63] --> FOAM FATAL IO ERROR: (openfoam-2312)
[63] Entry 'smoother' not found in dictionary 
[63] 
[63] 
[63]     From const Foam::entry& Foam::dictionary::lookupEntry(const Foam::word&, Foam::keyType::option) const
[63]     in file db/dictionary/dictionary.C at line 363.
[63] 
FOAM parallel run exiting
[63] 

[69] 
[69] --> FOAM FATAL IO ERROR: (openfoam-2312)
[69] Entry 'smoother' not found in dictionary 
[69] 
[69] 
[69]     From const Foam::entry& Foam::dictionary::lookupEntry(const Foam::word&, Foam::keyType::option) const
[69]     in file db/dictionary/dictionary.C at line 363.
[69] 
FOAM parallel run exiting
[69] 

[72] 
[72] --> FOAM FATAL IO ERROR: (openfoam-2312)
[72] Entry 'smoother' not found in dictionary 
[72] 
[72] 
[72]     From const Foam::entry& Foam::dictionary::lookupEntry(const Foam::word&, Foam::keyType::option) const
[72]     in file db/dictionary/dictionary.C at line 363.
[72] 
FOAM parallel run exiting
[72] 

[105] 
[105] --> FOAM FATAL IO ERROR: (openfoam-2312)
[105] Entry 'smoother' not found in dictionary 
[105] 
[105] 
[105]     From const Foam::entry& Foam::dictionary::lookupEntry(const Foam::word&, Foam::keyType::option) const
[105]     in file db/dictionary/dictionary.C at line 363.
[105] 
FOAM parallel run exiting
[105] 

[12] 
[12] --> FOAM FATAL IO ERROR: (openfoam-2312)
[12] Entry 'smoother' not found in dictionary 
[12] 
[12] 
[12]     From const Foam::entry& Foam::dictionary::lookupEntry(const Foam::word&, Foam::keyType::option) const
[12]     in file db/dictionary/dictionary.C at line 363.
[12] 
FOAM parallel run exiting
[12] 

[14] 
[14] --> FOAM FATAL IO ERROR: (openfoam-2312)
[14] Entry 'smoother' not found in dictionary 
[14] 
[14] 
[14]     From const Foam::entry& Foam::dictionary::lookupEntry(const Foam::word&, Foam::keyType::option) const
[14]     in file db/dictionary/dictionary.C at line 363.
[14] 
FOAM parallel run exiting
[14] 

[19] 
[19] --> FOAM FATAL IO ERROR: (openfoam-2312)
[19] Entry 'smoother' not found in dictionary 
[19] 
[19] 
[19]     From const Foam::entry& Foam::dictionary::lookupEntry(const Foam::word&, Foam::keyType::option) const
[19]     in file db/dictionary/dictionary.C at line 363.
[19] 
FOAM parallel run exiting
[19] 

[22] 
[22] --> FOAM FATAL IO ERROR: (openfoam-2312)
[22] Entry 'smoother' not found in dictionary 
[22] 
[22] 
[22]     From const Foam::entry& Foam::dictionary::lookupEntry(const Foam::word&, Foam::keyType::option) const
[22]     in file db/dictionary/dictionary.C at line 363.
[22] 
FOAM parallel run exiting
[22] 

[26] 
[26] --> FOAM FATAL IO ERROR: (openfoam-2312)
[26] Entry 'smoother' not found in dictionary 
[26] 
[26] 
[26]     From const Foam::entry& Foam::dictionary::lookupEntry(const Foam::word&, Foam::keyType::option) const
[26]     in file db/dictionary/dictionary.C at line 363.
[26] 
FOAM parallel run exiting
[26] 

[27] 
[27] --> FOAM FATAL IO ERROR: (openfoam-2312)
[27] Entry 'smoother' not found in dictionary 
[27] 
[27] 
[27]     From const Foam::entry& Foam::dictionary::lookupEntry(const Foam::word&, Foam::keyType::option) const
[27] 
[51] 
[51] --> FOAM FATAL IO ERROR: (openfoam-2312)
[51] Entry 'smoother' not found in dictionary 
[51] 
[51] 
[51]     From const Foam::entry& Foam::dictionary::lookupEntry(const Foam::word&, Foam::keyType::option) const
[51]     in file db/dictionary/dictionary.C at line 363.
[51] 
FOAM parallel run exiting
[51] 

[58] 
[58] --> FOAM FATAL IO ERROR: (openfoam-2312)
[58] Entry 'smoother' not found in dictionary 
[58] 
[58] 
[58]     From const Foam::entry& Foam::dictionary::lookupEntry(const Foam::word&, Foam::keyType::option) const
[58]     in file db/dictionary/dictionary.C at line 363.
[58] 
FOAM parallel run exiting
[58] 

[73] 
[73] --> FOAM FATAL IO ERROR: (openfoam-2312)
[73] Entry 'smoother' not found in dictionary 
[73] 
[73] 
[73]     From const Foam::entry& Foam::dictionary::lookupEntry(const Foam::word&, Foam::keyType::option) const
[73]     in file db/dictionary/dictionary.C at line 363.
[73] 
FOAM parallel run exiting
[73] 

[106] 
[106] --> FOAM FATAL IO ERROR: (openfoam-2312)
[106] Entry 'smoother' not found in dictionary 
[106] 
[106] 
[106]     From const Foam::entry& Foam::dictionary::lookupEntry(const Foam::word&, Foam::keyType::option) const
[106]     in file db/dictionary/dictionary.C at line 363.
[106] 
FOAM parallel run exiting
[106] 
    in file db/dictionary/dictionary.C at line 363.
[27] 
FOAM parallel run exiting
[27] 

[29] 
[29] --> FOAM FATAL IO ERROR: (openfoam-2312)
[29] Entry 'smoother' not found in dictionary 
[29] 
[29] 
[29]     From const Foam::entry& Foam::dictionary::lookupEntry(const Foam::word&, Foam::keyType::option) const
[29]     in file db/dictionary/dictionary.C at line 363.
[29] 
FOAM parallel run exiting
[29] 

[31] 
[31] --> FOAM FATAL IO ERROR: (openfoam-2312)
[31] Entry 'smoother' not found in dictionary 
[31] 
[31] 
[31]     From const Foam::entry& Foam::dictionary::lookupEntry(const Foam::word&, Foam::keyType::option) const
[31]     in file db/dictionary/dictionary.C at line 363.
[31] 
FOAM parallel run exiting
[31] 

[35] 
[35] --> FOAM FATAL IO ERROR: (openfoam-2312)
[35] Entry 'smoother' not found in dictionary 
[35] 
[35] 
[35]     From const Foam::entry& Foam::dictionary::lookupEntry(const Foam::word&, Foam::keyType::option) const
[35]     in file db/dictionary/dictionary.C at line 363.
[35] 
FOAM parallel run exiting
[35] 

[37] 
[37] --> FOAM FATAL IO ERROR: (openfoam-2312)
[37] Entry 'smoother' not found in dictionary 
[37] 
[37] 
[39] 
[39] --> FOAM FATAL IO ERROR: (openfoam-2312)
[39] Entry 'smoother' not found in dictionary 
[39] 
[39] 
[39]     From const Foam::entry& Foam::dictionary::lookupEntry(const Foam::word&, Foam::keyType::option) const
[39]     in file db/dictionary/dictionary.C at line 363.
[39] 
FOAM parallel run exiting
[39] 

[40] 
[40] --> FOAM FATAL IO ERROR: (openfoam-2312)
[40] Entry 'smoother' not found in dictionary 
[40] 
[40] 
[40]     From const Foam::entry& Foam::dictionary::lookupEntry(const Foam::word&, Foam::keyType::option) const
[40]     in file db/dictionary/dictionary.C at line 363.
[40] 
FOAM parallel run exiting
[40] 

[94] 
[94] --> FOAM FATAL IO ERROR: (openfoam-2312)
[94] Entry 'smoother' not found in dictionary 
[94] 
[94] 
[94]     From const Foam::entry& Foam::dictionary::lookupEntry(const Foam::word&, Foam::keyType::option) const
[94]     in file db/dictionary/dictionary.C at line 363.
[94] 
FOAM parallel run exiting
[94] 

[100] 
[100] --> FOAM FATAL IO ERROR: (openfoam-2312)
[100] Entry 'smoother' not found in dictionary 
[100] 
[100] 
[100]     From const Foam::entry& Foam::dictionary::lookupEntry(const Foam::word&, Foam::keyType::option) const
[100]     in file db/dictionary/dictionary.C at line 363.
[100] 
FOAM parallel run exiting
[100] 

[7] 
[7] --> FOAM FATAL IO ERROR: (openfoam-2312)
[7] Entry 'smoother' not found in dictionary 
[7] 
[7] 

[9] 
[9] --> FOAM FATAL IO ERROR: (openfoam-2312)
[9] Entry 'smoother' not found in dictionary 
[9] 
[9] 
[9]     From const Foam::entry& Foam::dictionary::lookupEntry(const Foam::word&, Foam::keyType::option) const
[18] 
[18] --> FOAM FATAL IO ERROR: (openfoam-2312)
[18] Entry 'smoother' not found in dictionary 
[18] 
[18] 

[37]     From const Foam::entry& Foam::dictionary::lookupEntry(const Foam::word&, Foam::keyType::option) const
[37]     in file db/dictionary/dictionary.C at line 363.
[37] 
FOAM parallel run exiting
[37] 

[42] 
[42] --> FOAM FATAL IO ERROR: (openfoam-2312)
[42] Entry 'smoother' not found in dictionary 
[42] 
[42] 
[42]     From const Foam::entry& Foam::dictionary::lookupEntry(const Foam::word&, Foam::keyType::option) const
[42]     in file db/dictionary/dictionary.C at line 363.
[42] 
FOAM parallel run exiting
[42] 
[44] 
[44] --> FOAM FATAL IO ERROR: (openfoam-2312)
[44] Entry 'smoother' not found in dictionary 
[44] 
[44] 
[44]     From const Foam::entry& Foam::dictionary::lookupEntry(const Foam::word&, Foam::keyType::option) const
[44]     in file db/dictionary/dictionary.C at line 363.
[44] 
FOAM parallel run exiting
[44] 

[46] 
[46] --> FOAM FATAL IO ERROR: (openfoam-2312)
[46] Entry 'smoother' not found in dictionary 
[46] 
[46] 
[46]     From const Foam::entry& Foam::dictionary::lookupEntry(const Foam::word&, Foam::keyType::option) const
[46]     in file db/dictionary/dictionary.C at line 363.
[46] 
FOAM parallel run exiting
[46] 

[68] 
[68] --> FOAM FATAL IO ERROR: (openfoam-2312)
[68] Entry 'smoother' not found in dictionary 
[68] 
[68] 
[68]     From const Foam::entry& Foam::dictionary::lookupEntry(const Foam::word&, Foam::keyType::option) const
[68]     in file db/dictionary/dictionary.C at line 363.
[68] 
FOAM parallel run exiting
[68] 

[82] 
[82] --> FOAM FATAL IO ERROR: (openfoam-2312)
[82] Entry 'smoother' not found in dictionary 
[82] 
[82] 
[82]     From const Foam::entry& Foam::dictionary::lookupEntry(const Foam::word&, Foam::keyType::option) const
[82]     in file db/dictionary/dictionary.C at line 363.
[82] 
FOAM parallel run exiting
[82] 

[86] 
[86] --> FOAM FATAL IO ERROR: (openfoam-2312)
[86] Entry 'smoother' not found in dictionary 
[86] 
[86] 
[86]     From const Foam::entry& Foam::dictionary::lookupEntry(const Foam::word&, Foam::keyType::option) const
[86]     in file db/dictionary/dictionary.C at line 363.
[86] 
FOAM parallel run exiting
[86] 
[7]     From const Foam::entry& Foam::dictionary::lookupEntry(const Foam::word&, Foam::keyType::option) const
[7]     in file db/dictionary/dictionary.C at line 363.
[7] 
FOAM parallel run exiting
[7] 

[9]     in file db/dictionary/dictionary.C at line 363.
[9] 
FOAM parallel run exiting
[9] 

[15] 
[15] --> FOAM FATAL IO ERROR: (openfoam-2312)
[15] Entry 'smoother' not found in dictionary 
[15] 
[15] 
[15]     From const Foam::entry& Foam::dictionary::lookupEntry(const Foam::word&, Foam::keyType::option) const
[15]     in file db/dictionary/dictionary.C at line 363.
[15] 
FOAM parallel run exiting
[15] 

[17] 
[17] --> FOAM FATAL IO ERROR: (openfoam-2312)
[17] Entry 'smoother' not found in dictionary 
[17] 
[17] 
[17]     From const Foam::entry& Foam::dictionary::lookupEntry(const Foam::word&, Foam::keyType::option) const
[17]     in file db/dictionary/dictionary.C at line 363.
[17] 
FOAM parallel run exiting
[17] 
[18]     From const Foam::entry& Foam::dictionary::lookupEntry(const Foam::word&, Foam::keyType::option) const
[18]     in file db/dictionary/dictionary.C at line 363.
[18] 
FOAM parallel run exiting
[18] 

[20] 
[20] --> FOAM FATAL IO ERROR: (openfoam-2312)
[20] Entry 'smoother' not found in dictionary 
[20] 
[20] 
[20]     From const Foam::entry& Foam::dictionary::lookupEntry(const Foam::word&, Foam::keyType::option) const
[20]     in file db/dictionary/dictionary.C at line 363.
[20] 
FOAM parallel run exiting
[20] 

[30] 
[30] --> FOAM FATAL IO ERROR: (openfoam-2312)
[30] Entry 'smoother' not found in dictionary 
[30] 
[30] 
[30]     From const Foam::entry& Foam::dictionary::lookupEntry(const Foam::word&, Foam::keyType::option) const
[30]     in file db/dictionary/dictionary.C at line 363.
[30] 
FOAM parallel run exiting
[30] 

[32] 
[32] --> FOAM FATAL IO ERROR: (openfoam-2312)
[32] Entry 'smoother' not found in dictionary 
[32] 
[32] 
[32]     From const Foam::entry& Foam::dictionary::lookupEntry(const Foam::word&, Foam::keyType::option) const
[32]     in file db/dictionary/dictionary.C at line 363.
[32] 
FOAM parallel run exiting
[32] 


[47] 
[47] --> FOAM FATAL IO ERROR: (openfoam-2312)
[47] Entry 'smoother' not found in dictionary 
[47] 
[47] 
[47]     From const Foam::entry& Foam::dictionary::lookupEntry(const Foam::word&, Foam::keyType::option) const
[47]     in file db/dictionary/dictionary.C at line 363.
[47] 
FOAM parallel run exiting
[47] 

[49] 
[49] --> FOAM FATAL IO ERROR: (openfoam-2312)
[49] Entry 'smoother' not found in dictionary 
[49] 
[49] 
[49]     From const Foam::entry& Foam::dictionary::lookupEntry(const Foam::word&, Foam::keyType::option) const
[49]     in file db/dictionary/dictionary.C at line 363.
[49] 
FOAM parallel run exiting
[49] 

[50] 
[50] --> FOAM FATAL IO ERROR: (openfoam-2312)
[50] Entry 'smoother' not found in dictionary 
[50] 
[50] 
[50]     From const Foam::entry& Foam::dictionary::lookupEntry(const Foam::word&, Foam::keyType::option) const
[50]     in file db/dictionary/dictionary.C at line 363.
[50] 
FOAM parallel run exiting
[50] 

[54] 
[54] --> FOAM FATAL IO ERROR: (openfoam-2312)
[54] Entry 'smoother' not found in dictionary 
[54] 
[54] 
[54]     From const Foam::entry& Foam::dictionary::lookupEntry(const Foam::word&, Foam::keyType::option) const
[54]     in file db/dictionary/dictionary.C at line 363.
[54] 
FOAM parallel run exiting
[54] 

[75] 
[75] --> FOAM FATAL IO ERROR: (openfoam-2312)
[75] Entry 'smoother' not found in dictionary 
[75] 
[75] 
[75]     From const Foam::entry& Foam::dictionary::lookupEntry(const Foam::word&, Foam::keyType::option) const
[75]     in file db/dictionary/dictionary.C at line 363.
[75] 
FOAM parallel run exiting
[75] 

[83] 
[83] --> FOAM FATAL IO ERROR: (openfoam-2312)
[83] Entry 'smoother' not found in dictionary 
[83] 
[83] 
[83]     From const Foam::entry& Foam::dictionary::lookupEntry(const Foam::word&, Foam::keyType::option) const
[83]     in file db/dictionary/dictionary.C at line 363.
[83] 
FOAM parallel run exiting
[83] 

[95] 
[95] --> FOAM FATAL IO ERROR: (openfoam-2312)
[95] Entry 'smoother' not found in dictionary 
[95] 
[95] 
[95]     From const Foam::entry& Foam::dictionary::lookupEntry(const Foam::word&, Foam::keyType::option) const
[95]     in file db/dictionary/dictionary.C at line 363.
[95] 
FOAM parallel run exiting
[95] 

[8] 
[8] --> FOAM FATAL IO ERROR: (openfoam-2312)
[8] Entry 'smoother' not found in dictionary 
[8] 
[8] 
[8]     From const Foam::entry& Foam::dictionary::lookupEntry(const Foam::word&, Foam::keyType::option) const
[8]     in file db/dictionary/dictionary.C at line 363.
[8] 
FOAM parallel run exiting

[13] 
[13] --> FOAM FATAL IO ERROR: (openfoam-2312)
[13] Entry 'smoother' not found in dictionary 
[13] 
[13] 
[13]     From const Foam::entry& Foam::dictionary::lookupEntry(const Foam::word&, Foam::keyType::option) const
[13]     in file db/dictionary/dictionary.C at line 363.
[13] 
FOAM parallel run exiting
[13] 

[16] 
[16] --> FOAM FATAL IO ERROR: (openfoam-2312)
[16] Entry 'smoother' not found in dictionary 
[16] 
[16] 
[16]     From const Foam::entry& Foam::dictionary::lookupEntry(const Foam::word&, Foam::keyType::option) const
[16]     in file db/dictionary/dictionary.C at line 363.
[16] 
FOAM parallel run exiting
[16] 

[34] 
[34] --> FOAM FATAL IO ERROR: (openfoam-2312)
[34] Entry 'smoother' not found in dictionary 
[34] 
[34] 
[34]     From const Foam::entry& Foam::dictionary::lookupEntry(const Foam::word&, Foam::keyType::option) const
[34]     in file db/dictionary/dictionary.C at line 363.
[34] 
FOAM parallel run exiting
[34] 

[43] 
[43] --> FOAM FATAL IO ERROR: (openfoam-2312)
[43] Entry 'smoother' not found in dictionary 
[43] 
[43] 
[43]     From const Foam::entry& Foam::dictionary::lookupEntry(const Foam::word&, Foam::keyType::option) const
[43]     in file db/dictionary/dictionary.C at line 363.
[43] 
FOAM parallel run exiting
[43] 

[48] 
[48] --> FOAM FATAL IO ERROR: (openfoam-2312)
[48] Entry 'smoother' not found in dictionary 
[48] 
[48] 
[48]     From const Foam::entry& Foam::dictionary::lookupEntry(const Foam::word&, Foam::keyType::option) const
[48]     in file db/dictionary/dictionary.C at line 363.
[48] 
FOAM parallel run exiting
[48] 

[52] 
[52] --> FOAM FATAL IO ERROR: (openfoam-2312)
[52] Entry 'smoother' not found in dictionary 
[52] 
[52] 
[52]     From const Foam::entry& Foam::dictionary::lookupEntry(const Foam::word&, Foam::keyType::option) const
[52]     in file db/dictionary/dictionary.C at line 363.
[52] 
FOAM parallel run exiting
[52] 

[55] 
[55] --> FOAM FATAL IO ERROR: (openfoam-2312)
[55] Entry 'smoother' not found in dictionary 
[55] 
[55] 
[55]     From const Foam::entry& Foam::dictionary::lookupEntry(const Foam::word&, Foam::keyType::option) const
[55]     in file db/dictionary/dictionary.C at line 363.
[55] 
FOAM parallel run exiting
[55] 

[56] 
[56] --> FOAM FATAL IO ERROR: (openfoam-2312)
[56] Entry 'smoother' not found in dictionary 
[56] 
[56] 
[56]     From const Foam::entry& Foam::dictionary::lookupEntry(const Foam::word&, Foam::keyType::option) const
[56]     in file db/dictionary/dictionary.C at line 363.
[56] 
FOAM parallel run exiting
[56] 

[57] 
[57] --> FOAM FATAL IO ERROR: (openfoam-2312)
[57] Entry 'smoother' not found in dictionary 
[57] 
[57] 
[57]     From const Foam::entry& Foam::dictionary::lookupEntry(const Foam::word&, Foam::keyType::option) const
[57]     in file db/dictionary/dictionary.C at line 363.
[57] 
FOAM parallel run exiting
[57] 

[59] 
[59] --> FOAM FATAL IO ERROR: (openfoam-2312)
[59] Entry 'smoother' not found in dictionary 
[59] 
[59] 
[59]     From const Foam::entry& Foam::dictionary::lookupEntry(const Foam::word&, Foam::keyType::option) const
[59]     in file db/dictionary/dictionary.C at line 363.
[59] 
FOAM parallel run exiting
[59] 

[61] 
[61] --> FOAM FATAL IO ERROR: (openfoam-2312)
[61] Entry 'smoother' not found in dictionary 
[61] 
[61] 
[61]     From const Foam::entry& Foam::dictionary::lookupEntry(const Foam::word&, Foam::keyType::option) const
[61]     in file db/dictionary/dictionary.C at line 363.
[61] 
FOAM parallel run exiting
[61] 

[64] 
[64] --> FOAM FATAL IO ERROR: (openfoam-2312)
[64] Entry 'smoother' not found in dictionary 
[64] 
[64] 
[64]     From const Foam::entry& Foam::dictionary::lookupEntry(const Foam::word&, Foam::keyType::option) const
[64]     in file db/dictionary/dictionary.C at line 363.
[64] 
FOAM parallel run exiting
[64] 

[65] 
[65] --> FOAM FATAL IO ERROR: (openfoam-2312)
[65] Entry 'smoother' not found in dictionary 
[65] 
[65] 
[65]     From const Foam::entry& Foam::dictionary::lookupEntry(const Foam::word&, Foam::keyType::option) const
[65]     in file db/dictionary/dictionary.C at line 363.
[65] 
FOAM parallel run exiting
[65] 

[66] 
[66] --> FOAM FATAL IO ERROR: (openfoam-2312)
[66] Entry 'smoother' not found in dictionary 
[66] 
[66] 
[66]     From const Foam::entry& Foam::dictionary::lookupEntry(const Foam::word&, Foam::keyType::option) const
[66]     in file db/dictionary/dictionary.C at line 363.
[66] 
FOAM parallel run exiting
[66] 

[67] 
[67] --> FOAM FATAL IO ERROR: (openfoam-2312)
[67] Entry 'smoother' not found in dictionary 
[67] 
[67] 
[67]     From const Foam::entry& Foam::dictionary::lookupEntry(const Foam::word&, Foam::keyType::option) const
[67]     in file db/dictionary/dictionary.C at line 363.
[67] 
FOAM parallel run exiting
[67] 

[70] 
[70] --> FOAM FATAL IO ERROR: (openfoam-2312)
[70] Entry 'smoother' not found in dictionary 
[70] 
[70] 
[70]     From const Foam::entry& Foam::dictionary::lookupEntry(const Foam::word&, Foam::keyType::option) const
[70]     in file db/dictionary/dictionary.C at line 363.
[70] 
FOAM parallel run exiting
[70] 

[76] 
[76] --> FOAM FATAL IO ERROR: (openfoam-2312)
[76] Entry 'smoother' not found in dictionary 
[76] 
[76] 
[76]     From const Foam::entry& Foam::dictionary::lookupEntry(const Foam::word&, Foam::keyType::option) const
[76]     in file db/dictionary/dictionary.C at line 363.
[76] 
FOAM parallel run exiting
[76] 

[77] 
[77] --> FOAM FATAL IO ERROR: (openfoam-2312)
[77] Entry 'smoother' not found in dictionary 
[77] 
[77] 
[77]     From const Foam::entry& Foam::dictionary::lookupEntry(const Foam::word&, Foam::keyType::option) const
[77]     in file db/dictionary/dictionary.C at line 363.
[77] 
FOAM parallel run exiting
[77] 

[79] 
[79] --> FOAM FATAL IO ERROR: (openfoam-2312)
[79] Entry 'smoother' not found in dictionary 
[79] 
[79] 
[79]     From const Foam::entry& Foam::dictionary::lookupEntry(const Foam::word&, Foam::keyType::option) const
[79]     in file db/dictionary/dictionary.C at line 363.
[79] 
FOAM parallel run exiting
[79] 

[80] 
[80] --> FOAM FATAL IO ERROR: (openfoam-2312)
[80] Entry 'smoother' not found in dictionary 
[80] 
[80] 
[80]     From const Foam::entry& Foam::dictionary::lookupEntry(const Foam::word&, Foam::keyType::option) const
[80]     in file db/dictionary/dictionary.C at line 363.
[80] 
FOAM parallel run exiting
[80] 

[81] 
[81] --> FOAM FATAL IO ERROR: (openfoam-2312)
[81] Entry 'smoother' not found in dictionary 
[81] 
[81] 
[81]     From const Foam::entry& Foam::dictionary::lookupEntry(const Foam::word&, Foam::keyType::option) const
[81]     in file db/dictionary/dictionary.C at line 363.
[81] 
FOAM parallel run exiting
[81] 

[85] 
[85] --> FOAM FATAL IO ERROR: (openfoam-2312)
[85] Entry 'smoother' not found in dictionary 
[85] 
[85] 
[85]     From const Foam::entry& Foam::dictionary::lookupEntry(const Foam::word&, Foam::keyType::option) const
[85]     in file db/dictionary/dictionary.C at line 363.
[85] 
FOAM parallel run exiting
[85] 

[87] 
[87] --> FOAM FATAL IO ERROR: (openfoam-2312)
[87] Entry 'smoother' not found in dictionary 
[87] 
[87] 
[87]     From const Foam::entry& Foam::dictionary::lookupEntry(const Foam::word&, Foam::keyType::option) const
[87]     in file db/dictionary/dictionary.C at line 363.
[87] 
FOAM parallel run exiting
[87] 

[90] 
[90] --> FOAM FATAL IO ERROR: (openfoam-2312)
[90] Entry 'smoother' not found in dictionary 
[90] 
[90] 
[90]     From const Foam::entry& Foam::dictionary::lookupEntry(const Foam::word&, Foam::keyType::option) const
[90]     in file db/dictionary/dictionary.C at line 363.
[90] 
FOAM parallel run exiting
[90] 

[91] 
[91] --> FOAM FATAL IO ERROR: (openfoam-2312)
[91] Entry 'smoother' not found in dictionary 
[91] 
[91] 
[91]     From const Foam::entry& Foam::dictionary::lookupEntry(const Foam::word&, Foam::keyType::option) const
[91]     in file db/dictionary/dictionary.C at line 363.
[91] 
FOAM parallel run exiting
[91] 

[92] 
[92] --> FOAM FATAL IO ERROR: (openfoam-2312)
[92] Entry 'smoother' not found in dictionary 
[92] 
[92] 
[92]     From const Foam::entry& Foam::dictionary::lookupEntry(const Foam::word&, Foam::keyType::option) const
[92]     in file db/dictionary/dictionary.C at line 363.
[92] 
FOAM parallel run exiting
[92] 

[96] 
[96] --> FOAM FATAL IO ERROR: (openfoam-2312)
[96] Entry 'smoother' not found in dictionary 
[96] 
[96] 
[96]     From const Foam::entry& Foam::dictionary::lookupEntry(const Foam::word&, Foam::keyType::option) const
[96]     in file db/dictionary/dictionary.C at line 363.
[96] 
FOAM parallel run exiting
[96] 

[97] 
[97] --> FOAM FATAL IO ERROR: (openfoam-2312)
[97] Entry 'smoother' not found in dictionary 
[97] 
[97] 
[97]     From const Foam::entry& Foam::dictionary::lookupEntry(const Foam::word&, Foam::keyType::option) const
[97]     in file db/dictionary/dictionary.C at line 363.
[97] 
FOAM parallel run exiting
[97] 

[98] 
[98] --> FOAM FATAL IO ERROR: (openfoam-2312)
[98] Entry 'smoother' not found in dictionary 
[98] 
[98] 
[98]     From const Foam::entry& Foam::dictionary::lookupEntry(const Foam::word&, Foam::keyType::option) const
[98]     in file db/dictionary/dictionary.C at line 363.
[98] 
FOAM parallel run exiting
[98] 

[99] 
[99] --> FOAM FATAL IO ERROR: (openfoam-2312)
[99] Entry 'smoother' not found in dictionary 
[99] 
[99] 
[99]     From const Foam::entry& Foam::dictionary::lookupEntry(const Foam::word&, Foam::keyType::option) const
[99]     in file db/dictionary/dictionary.C at line 363.
[99] 
FOAM parallel run exiting
[99] 

[103] 
[103] --> FOAM FATAL IO ERROR: (openfoam-2312)
[103] Entry 'smoother' not found in dictionary 
[103] 
[103] 
[103]     From const Foam::entry& Foam::dictionary::lookupEntry(const Foam::word&, Foam::keyType::option) const
[103]     in file db/dictionary/dictionary.C at line 363.
[103] 
FOAM parallel run exiting
[103] 

[104] 
[104] --> FOAM FATAL IO ERROR: (openfoam-2312)
[104] Entry 'smoother' not found in dictionary 
[104] 
[104] 
[104]     From const Foam::entry& Foam::dictionary::lookupEntry(const Foam::word&, Foam::keyType::option) const
[104]     in file db/dictionary/dictionary.C at line 363.
[104] 
FOAM parallel run exiting
[104] 

[107] 
[107] --> FOAM FATAL IO ERROR: (openfoam-2312)
[107] Entry 'smoother' not found in dictionary 
[107] 
[107] 
[107]     From const Foam::entry& Foam::dictionary::lookupEntry(const Foam::word&, Foam::keyType::option) const
[107]     in file db/dictionary/dictionary.C at line 363.
[107] 
FOAM parallel run exiting
[107] 

[108] 
[108] --> FOAM FATAL IO ERROR: (openfoam-2312)
[108] Entry 'smoother' not found in dictionary 
[108] 
[108] 
[108]     From const Foam::entry& Foam::dictionary::lookupEntry(const Foam::word&, Foam::keyType::option) const
[108]     in file db/dictionary/dictionary.C at line 363.
[108] 
FOAM parallel run exiting
[108] 

[109] 
[109] --> FOAM FATAL IO ERROR: (openfoam-2312)
[109] Entry 'smoother' not found in dictionary 
[109] 
[109] 
[109]     From const Foam::entry& Foam::dictionary::lookupEntry(const Foam::word&, Foam::keyType::option) const
[109]     in file db/dictionary/dictionary.C at line 363.
[109] 
FOAM parallel run exiting
[109] 

[110] 
[110] --> FOAM FATAL IO ERROR: (openfoam-2312)
[110] Entry 'smoother' not found in dictionary 
[110] 
[110] 
[110]     From const Foam::entry& Foam::dictionary::lookupEntry(const Foam::word&, Foam::keyType::option) const
[110]     in file db/dictionary/dictionary.C at line 363.
[110] 
FOAM parallel run exiting
[110] 

[111] 
[111] --> FOAM FATAL IO ERROR: (openfoam-2312)
[111] Entry 'smoother' not found in dictionary 
[111] 
[111] 
[111]     From const Foam::entry& Foam::dictionary::lookupEntry(const Foam::word&, Foam::keyType::option) const
[111]     in file db/dictionary/dictionary.C at line 363.
[111] 
FOAM parallel run exiting
[111] 

[4] 
[4] --> FOAM FATAL IO ERROR: (openfoam-2312)
[4] Entry 'smoother' not found in dictionary 
[4] 
[4] 
[4]     From const Foam::entry& Foam::dictionary::lookupEntry(const Foam::word&, Foam::keyType::option) const
[4]     in file db/dictionary/dictionary.C at line 363.
[4] 
FOAM parallel run exiting
[4] 
[8] 

[10] 
[10] --> FOAM FATAL IO ERROR: (openfoam-2312)
[10] Entry 'smoother' not found in dictionary 
[10] 
[10] 
[10]     From const Foam::entry& Foam::dictionary::lookupEntry(const Foam::word&, Foam::keyType::option) const
[10]     in file db/dictionary/dictionary.C at line 363.
[10] 
FOAM parallel run exiting
[10] 

[36] 
[36] --> FOAM FATAL IO ERROR: (openfoam-2312)
[36] Entry 'smoother' not found in dictionary 
[36] 
[36] 
[36]     From const Foam::entry& Foam::dictionary::lookupEntry(const Foam::word&, Foam::keyType::option) const
[36]     in file db/dictionary/dictionary.C at line 363.
[36] 
FOAM parallel run exiting
[36] 

[38] 
[38] --> FOAM FATAL IO ERROR: (openfoam-2312)
[38] Entry 'smoother' not found in dictionary 
[38] 
[38] 
[38]     From const Foam::entry& Foam::dictionary::lookupEntry(const Foam::word&, Foam::keyType::option) const
[38]     in file db/dictionary/dictionary.C at line 363.
[38] 
FOAM parallel run exiting
[38] 

[60] 
[60] --> FOAM FATAL IO ERROR: (openfoam-2312)
[60] Entry 'smoother' not found in dictionary 
[60] 
[60] 
[60]     From const Foam::entry& Foam::dictionary::lookupEntry(const Foam::word&, Foam::keyType::option) const
[60]     in file db/dictionary/dictionary.C at line 363.
[60] 
FOAM parallel run exiting
[60] 

[62] 
[62] --> FOAM FATAL IO ERROR: (openfoam-2312)
[62] Entry 'smoother' not found in dictionary 
[62] 
[62] 
[62]     From const Foam::entry& Foam::dictionary::lookupEntry(const Foam::word&, Foam::keyType::option) const
[62]     in file db/dictionary/dictionary.C at line 363.
[62] 
FOAM parallel run exiting
[62] 

[74] 
[74] --> FOAM FATAL IO ERROR: (openfoam-2312)
[74] Entry 'smoother' not found in dictionary 
[74] 
[74] 
[74]     From const Foam::entry& Foam::dictionary::lookupEntry(const Foam::word&, Foam::keyType::option) const
[74]     in file db/dictionary/dictionary.C at line 363.
[74] 
FOAM parallel run exiting
[74] 

[84] 
[84] --> FOAM FATAL IO ERROR: (openfoam-2312)
[84] Entry 'smoother' not found in dictionary 
[84] 
[84] 
[84]     From const Foam::entry& Foam::dictionary::lookupEntry(const Foam::word&, Foam::keyType::option) const
[84]     in file db/dictionary/dictionary.C at line 363.
[84] 
FOAM parallel run exiting
[84] 

[93] 
[93] --> FOAM FATAL IO ERROR: (openfoam-2312)
[93] Entry 'smoother' not found in dictionary 
[93] 
[93] 
[93]     From const Foam::entry& Foam::dictionary::lookupEntry(const Foam::word&, Foam::keyType::option) const
[93]     in file db/dictionary/dictionary.C at line 363.
[93] 
FOAM parallel run exiting
[93] 

[101] 
[101] --> FOAM FATAL IO ERROR: (openfoam-2312)
[101] Entry 'smoother' not found in dictionary 
[101] 
[101] 
[101]     From const Foam::entry& Foam::dictionary::lookupEntry(const Foam::word&, Foam::keyType::option) const
[101]     in file db/dictionary/dictionary.C at line 363.
[101] 
FOAM parallel run exiting
[101] 
Abort(1) on node 2 (rank 2 in comm 0): application called MPI_Abort(MPI_COMM_WORLD, 1) - process 2
Abort(1) on node 24 (rank 24 in comm 0): application called MPI_Abort(MPI_COMM_WORLD, 1) - process 24
[228] 
[228] 
[228] --> FOAM FATAL IO ERROR: (openfoam-2312)
[228] Entry 'smoother' not found in dictionary 
[228] 
[228] 
[228]     From const Foam::entry& Foam::dictionary::lookupEntry(const Foam::word&, Foam::keyType::option) const
[228]     in file db/dictionary/dictionary.C at line 363.
[228] 
FOAM parallel run exiting
[228] 
[237] 
[237] 
[237] --> FOAM FATAL IO ERROR: (openfoam-2312)
[237] Entry 'smoother' not found in dictionary 
[237] 
[237] 
[237]     From const Foam::entry& Foam::dictionary::lookupEntry(const Foam::word&, Foam::keyType::option) const
[237]     in file db/dictionary/dictionary.C at line 363.
[237] 
FOAM parallel run exiting
[237] 
[238] 
[238] 
[238] --> FOAM FATAL IO ERROR: (openfoam-2312)
[238] Entry 'smoother' not found in dictionary 
[238] 
[238] 
[238]     From const Foam::entry& Foam::dictionary::lookupEntry(const Foam::word&, Foam::keyType::option) const
[238]     in file db/dictionary/dictionary.C at line 363.
[238] 
FOAM parallel run exiting
[238] 
[239] 
[239] 
[239] --> FOAM FATAL IO ERROR: (openfoam-2312)
[239] Entry 'smoother' not found in dictionary 
[239] 
[239] 
[239]     From const Foam::entry& Foam::dictionary::lookupEntry(const Foam::word&, Foam::keyType::option) const
[239]     in file db/dictionary/dictionary.C at line 363.
[239] 
FOAM parallel run exiting
[239] 
[259] 
[259] 
[259] --> FOAM FATAL IO ERROR: (openfoam-2312)
[259] Entry 'smoother' not found in dictionary 
[259] 
[259] 
[259]     From const Foam::entry& Foam::dictionary::lookupEntry(const Foam::word&, Foam::keyType::option) const
[259]     in file db/dictionary/dictionary.C at line 363.
[259] 
FOAM parallel run exiting
[259] 
Abort(1) on node 259 (rank 259 in comm 0): application called MPI_Abort(MPI_COMM_WORLD, 1) - process 259
[272] 
[272] 
[272] --> FOAM FATAL IO ERROR: (openfoam-2312)
[272] Entry 'smoother' not found in dictionary 
[272] 
[272] 
[272]     From const Foam::entry& Foam::dictionary::lookupEntry(const Foam::word&, Foam::keyType::option) const
[272]     in file db/dictionary/dictionary.C at line 363.
[272] 
FOAM parallel run exiting
[272] 
[274] 
[274] 
[274] --> FOAM FATAL IO ERROR: (openfoam-2312)
[274] Entry 'smoother' not found in dictionary 
[274] 
[274] 
[274]     From const Foam::entry& Foam::dictionary::lookupEntry(const Foam::word&, Foam::keyType::option) const
[274]     in file db/dictionary/dictionary.C at line 363.
[274] 
FOAM parallel run exiting
[274] 
Abort(1) on node 274 (rank 274 in comm 0): application called MPI_Abort(MPI_COMM_WORLD, 1) - process 274
[281] 
[281] 
[281] --> FOAM FATAL IO ERROR: (openfoam-2312)
[281] Entry 'smoother' not found in dictionary 
[281] 
[281] 
[281]     From const Foam::entry& Foam::dictionary::lookupEntry(const Foam::word&, Foam::keyType::option) const
[281]     in file db/dictionary/dictionary.C at line 363.
[281] 
FOAM parallel run exiting
[281] 
Abort(1) on node 281 (rank 281 in comm 0): application called MPI_Abort(MPI_COMM_WORLD, 1) - process 281
[282] 
[282] 
[282] --> FOAM FATAL IO ERROR: (openfoam-2312)
[282] Entry 'smoother' not found in dictionary 
[282] 
[282] 
[282]     From const Foam::entry& Foam::dictionary::lookupEntry(const Foam::word&, Foam::keyType::option) const
[282]     in file db/dictionary/dictionary.C at line 363.
[282] 
FOAM parallel run exiting
[282] 
Abort(1) on node 282 (rank 282 in comm 0): application called MPI_Abort(MPI_COMM_WORLD, 1) - process 282
[287] 
[287] 
[287] --> FOAM FATAL IO ERROR: (openfoam-2312)
[287] Entry 'smoother' not found in dictionary 
[287] 
[287] 
[287]     From const Foam::entry& Foam::dictionary::lookupEntry(const Foam::word&, Foam::keyType::option) const
[287]     in file db/dictionary/dictionary.C at line 363.
[287] 
FOAM parallel run exiting
[287] 
Abort(1) on node 287 (rank 287 in comm 0): application called MPI_Abort(MPI_COMM_WORLD, 1) - process 287
[293] 
[293] 
[293] --> FOAM FATAL IO ERROR: (openfoam-2312)
[293] Entry 'smoother' not found in dictionary 
[293] 
[293] 
[293]     From const Foam::entry& Foam::dictionary::lookupEntry(const Foam::word&, Foam::keyType::option) const
[293]     in file db/dictionary/dictionary.C at line 363.
[293] 
FOAM parallel run exiting
[293] 
Abort(1) on node 293 (rank 293 in comm 0): application called MPI_Abort(MPI_COMM_WORLD, 1) - process 293
[294] 
[294] 
[294] --> FOAM FATAL IO ERROR: (openfoam-2312)
[294] Entry 'smoother' not found in dictionary 
[294] 
[294] 
[294]     From const Foam::entry& Foam::dictionary::lookupEntry(const Foam::word&, Foam::keyType::option) const
[294]     in file db/dictionary/dictionary.C at line 363.
[294] 
FOAM parallel run exiting
[294] 
Abort(1) on node 294 (rank 294 in comm 0): application called MPI_Abort(MPI_COMM_WORLD, 1) - process 294
[295] 
[295] 
[295] --> FOAM FATAL IO ERROR: (openfoam-2312)
[295] Entry 'smoother' not found in dictionary 
[295] 
[295] 
[295]     From const Foam::entry& Foam::dictionary::lookupEntry(const Foam::word&, Foam::keyType::option) const
[295]     in file db/dictionary/dictionary.C at line 363.
[295] 
FOAM parallel run exiting
[295] 
Abort(1) on node 295 (rank 295 in comm 0): application called MPI_Abort(MPI_COMM_WORLD, 1) - process 295
[296] 
[296] 
[296] --> FOAM FATAL IO ERROR: (openfoam-2312)
[296] Entry 'smoother' not found in dictionary 
[296] 
[296] 
[296]     From const Foam::entry& Foam::dictionary::lookupEntry(const Foam::word&, Foam::keyType::option) const
[296]     in file db/dictionary/dictionary.C at line 363.
[296] 
FOAM parallel run exiting
[296] 
Abort(1) on node 296 (rank 296 in comm 0): application called MPI_Abort(MPI_COMM_WORLD, 1) - process 296
[302] 
[302] 
[302] --> FOAM FATAL IO ERROR: (openfoam-2312)
[302] Entry 'smoother' not found in dictionary 
[302] 
[302] 
[302]     From const Foam::entry& Foam::dictionary::lookupEntry(const Foam::word&, Foam::keyType::option) const
[302]     in file db/dictionary/dictionary.C at line 363.
[302] 
FOAM parallel run exiting
[302] 
Abort(1) on node 302 (rank 302 in comm 0): application called MPI_Abort(MPI_COMM_WORLD, 1) - process 302
[312] 
[312] 
[312] --> FOAM FATAL IO ERROR: (openfoam-2312)
[312] Entry 'smoother' not found in dictionary 
[312] 
[312] 
[312]     From const Foam::entry& Foam::dictionary::lookupEntry(const Foam::word&, Foam::keyType::option) const
[312]     in file db/dictionary/dictionary.C at line 363.
[312] 
FOAM parallel run exiting
[312] 
Abort(1) on node 312 (rank 312 in comm 0): application called MPI_Abort(MPI_COMM_WORLD, 1) - process 312
[322] 
[322] 
[322] --> FOAM FATAL IO ERROR: (openfoam-2312)
[322] Entry 'smoother' not found in dictionary 
[322] 
[322] 
[322]     From const Foam::entry& Foam::dictionary::lookupEntry(const Foam::word&, Foam::keyType::option) const
[322]     in file db/dictionary/dictionary.C at line 363.
[322] 
FOAM parallel run exiting
[322] 
Abort(1) on node 322 (rank 322 in comm 0): application called MPI_Abort(MPI_COMM_WORLD, 1) - process 322
[325] 
[325] 
[325] --> FOAM FATAL IO ERROR: (openfoam-2312)
[325] Entry 'smoother' not found in dictionary 
[325] 
[325] 
[325]     From const Foam::entry& Foam::dictionary::lookupEntry(const Foam::word&, Foam::keyType::option) const
[325]     in file db/dictionary/dictionary.C at line 363.
[325] 
FOAM parallel run exiting
[325] 
Abort(1) on node 325 (rank 325 in comm 0): application called MPI_Abort(MPI_COMM_WORLD, 1) - process 325
[330] 
[330] 
[330] --> FOAM FATAL IO ERROR: (openfoam-2312)
[330] Entry 'smoother' not found in dictionary 
[330] 
[330] 
[330]     From const Foam::entry& Foam::dictionary::lookupEntry(const Foam::word&, Foam::keyType::option) const
[330]     in file db/dictionary/dictionary.C at line 363.
[330] 
FOAM parallel run exiting
[330] 
Abort(1) on node 330 (rank 330 in comm 0): application called MPI_Abort(MPI_COMM_WORLD, 1) - process 330
[185] [186] [187] [188] [189] [190] [191] [192] [193] [194] 
[194] 
[194] --> FOAM FATAL IO ERROR: (openfoam-2312)
[194] Entry 'smoother' not found in dictionary 
[194] 
[194] 
[194]     From const Foam::entry& Foam::dictionary::lookupEntry(const Foam::word&, Foam::keyType::option) const
[194]     in file db/dictionary/dictionary.C at line 363.
[194] 
FOAM parallel run exiting
[194] 
[195] 
[195] 
[195] --> FOAM FATAL IO ERROR: (openfoam-2312)
[195] Entry 'smoother' not found in dictionary 
[195] 
[195] 
[195]     From const Foam::entry& Foam::dictionary::lookupEntry(const Foam::word&, Foam::keyType::option) const
[195]     in file db/dictionary/dictionary.C at line 363.
[195] 
FOAM parallel run exiting
[195] 
[196] 
[196] 
[196] --> FOAM FATAL IO ERROR: (openfoam-2312)
[196] Entry 'smoother' not found in dictionary 
[196] 
[196] 
[196]     From const Foam::entry& Foam::dictionary::lookupEntry(const Foam::word&, Foam::keyType::option) const
[196]     in file db/dictionary/dictionary.C at line 363.
[196] 
FOAM parallel run exiting
[196] 
[197] 
[197] 
[197] --> FOAM FATAL IO ERROR: (openfoam-2312)
[197] Entry 'smoother' not found in dictionary 
[197] 
[197] 
[197]     From const Foam::entry& Foam::dictionary::lookupEntry(const Foam::word&, Foam::keyType::option) const
[197]     in file db/dictionary/dictionary.C at line 363.
[197] 
FOAM parallel run exiting
[197] 
[198] 
[198] 
[198] --> FOAM FATAL IO ERROR: (openfoam-2312)
[198] Entry 'smoother' not found in dictionary 
[198] 
[198] 
[198]     From const Foam::entry& Foam::dictionary::lookupEntry(const Foam::word&, Foam::keyType::option) const
[198]     in file db/dictionary/dictionary.C at line 363.
[198] 
FOAM parallel run exiting
[198] 
[199] 
[199] 
[199] --> FOAM FATAL IO ERROR: (openfoam-2312)
[199] Entry 'smoother' not found in dictionary 
[199] 
[199] 
[199]     From const Foam::entry& Foam::dictionary::lookupEntry(const Foam::word&, Foam::keyType::option) const
[199]     in file db/dictionary/dictionary.C at line 363.
[199] 
FOAM parallel run exiting
[199] 
[200] 
[200] 
[200] --> FOAM FATAL IO ERROR: (openfoam-2312)
[200] Entry 'smoother' not found in dictionary 
[200] 
[200] 
[200]     From const Foam::entry& Foam::dictionary::lookupEntry(const Foam::word&, Foam::keyType::option) const
[200]     in file db/dictionary/dictionary.C at line 363.
[200] 
FOAM parallel run exiting
[200] 
[201] 
[201] 
[201] --> FOAM FATAL IO ERROR: (openfoam-2312)
[201] Entry 'smoother' not found in dictionary 
[201] 
[201] 
[201]     From const Foam::entry& Foam::dictionary::lookupEntry(const Foam::word&, Foam::keyType::option) const
[201]     in file db/dictionary/dictionary.C at line 363.
[201] 
FOAM parallel run exiting
[201] 
[202] 
[202] 
[202] --> FOAM FATAL IO ERROR: (openfoam-2312)
[202] Entry 'smoother' not found in dictionary 
[202] 
[202] 
[202]     From const Foam::entry& Foam::dictionary::lookupEntry(const Foam::word&, Foam::keyType::option) const
[202]     in file db/dictionary/dictionary.C at line 363.
[202] 
FOAM parallel run exiting
[202] 
[203] 
[203] 
[203] --> FOAM FATAL IO ERROR: (openfoam-2312)
[203] Entry 'smoother' not found in dictionary 
[203] 
[203] 
[203]     From const Foam::entry& Foam::dictionary::lookupEntry(const Foam::word&, Foam::keyType::option) const
[203]     in file db/dictionary/dictionary.C at line 363.
[203] 
FOAM parallel run exiting
[203] 
[204] 
[204] 
[204] --> FOAM FATAL IO ERROR: (openfoam-2312)
[204] Entry 'smoother' not found in dictionary 
[204] 
[204] 
[204]     From const Foam::entry& Foam::dictionary::lookupEntry(const Foam::word&, Foam::keyType::option) const
[204]     in file db/dictionary/dictionary.C at line 363.
[204] 
FOAM parallel run exiting
[204] 
[205] 
[205] 
[205] --> FOAM FATAL IO ERROR: (openfoam-2312)
[205] Entry 'smoother' not found in dictionary 
[205] 
[205] 
[205]     From const Foam::entry& Foam::dictionary::lookupEntry(const Foam::word&, Foam::keyType::option) const
[205]     in file db/dictionary/dictionary.C at line 363.
[205] 
FOAM parallel run exiting
[205] 
[206] 
[206] 
[206] --> FOAM FATAL IO ERROR: (openfoam-2312)
[206] Entry 'smoother' not found in dictionary 
[206] 
[206] 
[206]     From const Foam::entry& Foam::dictionary::lookupEntry(const Foam::word&, Foam::keyType::option) const
[206]     in file db/dictionary/dictionary.C at line 363.
[206] 
FOAM parallel run exiting
[206] 
[207] 
[207] 
[207] --> FOAM FATAL IO ERROR: (openfoam-2312)
[207] Entry 'smoother' not found in dictionary 
[207] 
[207] 
[207]     From const Foam::entry& Foam::dictionary::lookupEntry(const Foam::word&, Foam::keyType::option) const
[207]     in file db/dictionary/dictionary.C at line 363.
[207] 
FOAM parallel run exiting
[207] 
[208] 
[208] 
[208] --> FOAM FATAL IO ERROR: (openfoam-2312)
[208] Entry 'smoother' not found in dictionary 
[208] 
[208] 
[208]     From const Foam::entry& Foam::dictionary::lookupEntry(const Foam::word&, Foam::keyType::option) const
[208]     in file db/dictionary/dictionary.C at line 363.
[208] 
FOAM parallel run exiting
[208] 
[209] 
[209] 
[209] --> FOAM FATAL IO ERROR: (openfoam-2312)
[209] Entry 'smoother' not found in dictionary 
[209] 
[209] 
[209]     From const Foam::entry& Foam::dictionary::lookupEntry(const Foam::word&, Foam::keyType::option) const
[209]     in file db/dictionary/dictionary.C at line 363.
[209] 
FOAM parallel run exiting
[209] 
[210] 
[210] 
[210] --> FOAM FATAL IO ERROR: (openfoam-2312)
[210] Entry 'smoother' not found in dictionary 
[210] 
[210] 
[210]     From const Foam::entry& Foam::dictionary::lookupEntry(const Foam::word&, Foam::keyType::option) const
[210]     in file db/dictionary/dictionary.C at line 363.
[210] 
FOAM parallel run exiting
[210] 
[211] 
[211] 
[211] --> FOAM FATAL IO ERROR: (openfoam-2312)
[211] Entry 'smoother' not found in dictionary 
[211] 
[211] 
[211]     From const Foam::entry& Foam::dictionary::lookupEntry(const Foam::word&, Foam::keyType::option) const
[211]     in file db/dictionary/dictionary.C at line 363.
[211] 
FOAM parallel run exiting
[211] 
[212] 
[212] 
[212] --> FOAM FATAL IO ERROR: (openfoam-2312)
[212] Entry 'smoother' not found in dictionary 
[212] 
[212] 
[212]     From const Foam::entry& Foam::dictionary::lookupEntry(const Foam::word&, Foam::keyType::option) const
[212]     in file db/dictionary/dictionary.C at line 363.
[212] 
FOAM parallel run exiting
[212] 
[213] 
[213] 
[213] --> FOAM FATAL IO ERROR: (openfoam-2312)
[213] Entry 'smoother' not found in dictionary 
[213] 
[213] 
[213]     From const Foam::entry& Foam::dictionary::lookupEntry(const Foam::word&, Foam::keyType::option) const
[213]     in file db/dictionary/dictionary.C at line 363.
[213] 
FOAM parallel run exiting
[213] 
[214] 
[214] 
[214] --> FOAM FATAL IO ERROR: (openfoam-2312)
[214] Entry 'smoother' not found in dictionary 
[214] 
[214] 
[214]     From const Foam::entry& Foam::dictionary::lookupEntry(const Foam::word&, Foam::keyType::option) const
[214]     in file db/dictionary/dictionary.C at line 363.
[214] 
FOAM parallel run exiting
[214] 
[215] 
[215] 
[215] --> FOAM FATAL IO ERROR: (openfoam-2312)
[215] Entry 'smoother' not found in dictionary 
[215] 
[215] 
[215]     From const Foam::entry& Foam::dictionary::lookupEntry(const Foam::word&, Foam::keyType::option) const
[215]     in file db/dictionary/dictionary.C at line 363.
[215] 
FOAM parallel run exiting
[215] 
[216] 
[216] 
[216] --> FOAM FATAL IO ERROR: (openfoam-2312)
[216] Entry 'smoother' not found in dictionary 
[216] 
[216] 
[216]     From const Foam::entry& Foam::dictionary::lookupEntry(const Foam::word&, Foam::keyType::option) const
[216]     in file db/dictionary/dictionary.C at line 363.
[216] 
FOAM parallel run exiting
[216] 
[217] 
[217] 
[217] --> FOAM FATAL IO ERROR: (openfoam-2312)
[217] Entry 'smoother' not found in dictionary 
[217] 
[217] 
[217]     From const Foam::entry& Foam::dictionary::lookupEntry(const Foam::word&, Foam::keyType::option) const
[217]     in file db/dictionary/dictionary.C at line 363.
[217] 
FOAM parallel run exiting
[217] 
[218] 
[218] 
[218] --> FOAM FATAL IO ERROR: (openfoam-2312)
[218] Entry 'smoother' not found in dictionary 
[218] 
[218] 
[218]     From const Foam::entry& Foam::dictionary::lookupEntry(const Foam::word&, Foam::keyType::option) const
[218]     in file db/dictionary/dictionary.C at line 363.
[218] 
FOAM parallel run exiting
[218] 
[219] 
[219] 
[219] --> FOAM FATAL IO ERROR: (openfoam-2312)
[219] Entry 'smoother' not found in dictionary 
[219] 
[219] 
[219]     From const Foam::entry& Foam::dictionary::lookupEntry(const Foam::word&, Foam::keyType::option) const
[219]     in file db/dictionary/dictionary.C at line 363.
[219] 
FOAM parallel run exiting
[219] 
[220] 
[220] 
[220] --> FOAM FATAL IO ERROR: (openfoam-2312)
[220] Entry 'smoother' not found in dictionary 
[220] 
[220] 
[220]     From const Foam::entry& Foam::dictionary::lookupEntry(const Foam::word&, Foam::keyType::option) const
[220]     in file db/dictionary/dictionary.C at line 363.
[220] 
FOAM parallel run exiting
[220] 
Abort(1) on node 220 (rank 220 in comm 0): application called MPI_Abort(MPI_COMM_WORLD, 1) - process 220
[221] 
[221] 
[221] --> FOAM FATAL IO ERROR: (openfoam-2312)
[221] Entry 'smoother' not found in dictionary 
[221] 
[221] 
[221]     From const Foam::entry& Foam::dictionary::lookupEntry(const Foam::word&, Foam::keyType::option) const
[221]     in file db/dictionary/dictionary.C at line 363.
[221] 
FOAM parallel run exiting
[221] 
Abort(1) on node 221 (rank 221 in comm 0): application called MPI_Abort(MPI_COMM_WORLD, 1) - process 221
[222] 
[222] 
[222] --> FOAM FATAL IO ERROR: (openfoam-2312)
[222] Entry 'smoother' not found in dictionary 
[222] 
[222] 
[222]     From const Foam::entry& Foam::dictionary::lookupEntry(const Foam::word&, Foam::keyType::option) const
[222]     in file db/dictionary/dictionary.C at line 363.
[222] 
FOAM parallel run exiting
[222] 
Abort(1) on node 222 (rank 222 in comm 0): application called MPI_Abort(MPI_COMM_WORLD, 1) - process 222
[223] 
[223] 
[223] --> FOAM FATAL IO ERROR: (openfoam-2312)
[223] Entry 'smoother' not found in dictionary 
[223] 
[223] 
[223]     From const Foam::entry& Foam::dictionary::lookupEntry(const Foam::word&, Foam::keyType::option) const
[223]     in file db/dictionary/dictionary.C at line 363.
[223] 
FOAM parallel run exiting
[223] 
Abort(1) on node 223 (rank 223 in comm 0): application called MPI_Abort(MPI_COMM_WORLD, 1) - process 223
[396] [397] [398] [399] [400] [401] [402] [403] [404] [405] [406] [407] [408] [409] [410] 
[410] 
[410] --> FOAM FATAL IO ERROR: (openfoam-2312)
[410] Entry 'smoother' not found in dictionary 
[410] 
[410] 
[410]     From const Foam::entry& Foam::dictionary::lookupEntry(const Foam::word&, Foam::keyType::option) const
[410]     in file db/dictionary/dictionary.C at line 363.
[410] 
FOAM parallel run exiting
[410] 
[411] [412] [413] [414] [415] 
[415] 
[415] --> FOAM FATAL IO ERROR: (openfoam-2312)
[415] Entry 'smoother' not found in dictionary 
[415] 
[415] 
[415]     From const Foam::entry& Foam::dictionary::lookupEntry(const Foam::word&, Foam::keyType::option) const
[415]     in file db/dictionary/dictionary.C at line 363.
[415] 
FOAM parallel run exiting
[415] 
Abort(1) on node 415 (rank 415 in comm 0): application called MPI_Abort(MPI_COMM_WORLD, 1) - process 415
[416] 
[416] 
[416] --> FOAM FATAL IO ERROR: (openfoam-2312)
[416] Entry 'smoother' not found in dictionary 
[416] 
[416] 
[416]     From const Foam::entry& Foam::dictionary::lookupEntry(const Foam::word&, Foam::keyType::option) const
[416]     in file db/dictionary/dictionary.C at line 363.
[416] 
FOAM parallel run exiting
[416] 
Abort(1) on node 416 (rank 416 in comm 0): application called MPI_Abort(MPI_COMM_WORLD, 1) - process 416
[417] 
[417] 
[417] --> FOAM FATAL IO ERROR: (openfoam-2312)
[417] Entry 'smoother' not found in dictionary 
[417] 
[417] 
[417]     From const Foam::entry& Foam::dictionary::lookupEntry(const Foam::word&, Foam::keyType::option) const
[417]     in file db/dictionary/dictionary.C at line 363.
[417] 
FOAM parallel run exiting
[417] 
Abort(1) on node 417 (rank 417 in comm 0): application called MPI_Abort(MPI_COMM_WORLD, 1) - process 417
Abort(1) on node 41 (rank 41 in comm 0): application called MPI_Abort(MPI_COMM_WORLD, 1) - process 41
[418] 
[418] 
[418] --> FOAM FATAL IO ERROR: (openfoam-2312)
[418] Entry 'smoother' not found in dictionary 
[418] 
[418] 
[418]     From const Foam::entry& Foam::dictionary::lookupEntry(const Foam::word&, Foam::keyType::option) const
[418]     in file db/dictionary/dictionary.C at line 363.
[418] 
FOAM parallel run exiting
[418] 
Abort(1) on node 418 (rank 418 in comm 0): application called MPI_Abort(MPI_COMM_WORLD, 1) - process 418
Abort(1) on node 78 (rank 78 in comm 0): application called MPI_Abort(MPI_COMM_WORLD, 1) - process 78
[419] 
[419] 
[419] --> FOAM FATAL IO ERROR: (openfoam-2312)
[419] Entry 'smoother' not found in dictionary 
[419] 
[419] 
[419]     From const Foam::entry& Foam::dictionary::lookupEntry(const Foam::word&, Foam::keyType::option) const
[419]     in file db/dictionary/dictionary.C at line 363.
[419] 
FOAM parallel run exiting
[419] 
Abort(1) on node 419 (rank 419 in comm 0): application called MPI_Abort(MPI_COMM_WORLD, 1) - process 419
Abort(1) on node 5 (rank 5 in comm 0): application called MPI_Abort(MPI_COMM_WORLD, 1) - process 5
[420] 
[420] 
[420] --> FOAM FATAL IO ERROR: (openfoam-2312)
[420] Entry 'smoother' not found in dictionary 
[420] 
[420] 
[420]     From const Foam::entry& Foam::dictionary::lookupEntry(const Foam::word&, Foam::keyType::option) const
[420]     in file db/dictionary/dictionary.C at line 363.
[420] 
FOAM parallel run exiting
[420] 
Abort(1) on node 420 (rank 420 in comm 0): application called MPI_Abort(MPI_COMM_WORLD, 1) - process 420
Abort(1) on node 6 (rank 6 in comm 0): application called MPI_Abort(MPI_COMM_WORLD, 1) - process 6
[421] 
[421] 
[421] --> FOAM FATAL IO ERROR: (openfoam-2312)
[421] Entry 'smoother' not found in dictionary 
[421] 
[421] 
[421]     From const Foam::entry& Foam::dictionary::lookupEntry(const Foam::word&, Foam::keyType::option) const
[421]     in file db/dictionary/dictionary.C at line 363.
[421] 
FOAM parallel run exiting
[421] 
Abort(1) on node 421 (rank 421 in comm 0): application called MPI_Abort(MPI_COMM_WORLD, 1) - process 421
Abort(1) on node 7 (rank 7 in comm 0): application called MPI_Abort(MPI_COMM_WORLD, 1) - process 7
[422] 
[422] 
[422] --> FOAM FATAL IO ERROR: (openfoam-2312)
[422] Entry 'smoother' not found in dictionary 
[422] 
[422] 
[422]     From const Foam::entry& Foam::dictionary::lookupEntry(const Foam::word&, Foam::keyType::option) const
[422]     in file db/dictionary/dictionary.C at line 363.
[422] 
FOAM parallel run exiting
[422] 
Abort(1) on node 422 (rank 422 in comm 0): application called MPI_Abort(MPI_COMM_WORLD, 1) - process 422
Abort(1) on node 8 (rank 8 in comm 0): application called MPI_Abort(MPI_COMM_WORLD, 1) - process 8
[423] 
[423] 
[423] --> FOAM FATAL IO ERROR: (openfoam-2312)
[423] Entry 'smoother' not found in dictionary 
[423] 
[423] 
[423]     From const Foam::entry& Foam::dictionary::lookupEntry(const Foam::word&, Foam::keyType::option) const
[423]     in file db/dictionary/dictionary.C at line 363.
[423] 
FOAM parallel run exiting
[423] 
Abort(1) on node 423 (rank 423 in comm 0): application called MPI_Abort(MPI_COMM_WORLD, 1) - process 423
Abort(1) on node 9 (rank 9 in comm 0): application called MPI_Abort(MPI_COMM_WORLD, 1) - process 9
[424] 
[424] 
[424] --> FOAM FATAL IO ERROR: (openfoam-2312)
[424] Entry 'smoother' not found in dictionary 
[424] 
[424] 
[424]     From const Foam::entry& Foam::dictionary::lookupEntry(const Foam::word&, Foam::keyType::option) const
[424]     in file db/dictionary/dictionary.C at line 363.
[424] 
FOAM parallel run exiting
[424] 
Abort(1) on node 424 (rank 424 in comm 0): application called MPI_Abort(MPI_COMM_WORLD, 1) - process 424
Abort(1) on node 10 (rank 10 in comm 0): application called MPI_Abort(MPI_COMM_WORLD, 1) - process 10
[425] 
[425] 
[425] --> FOAM FATAL IO ERROR: (openfoam-2312)
[425] Entry 'smoother' not found in dictionary 
[425] 
[425] 
[425]     From const Foam::entry& Foam::dictionary::lookupEntry(const Foam::word&, Foam::keyType::option) const
[425]     in file db/dictionary/dictionary.C at line 363.
[425] 
FOAM parallel run exiting
[425] 
Abort(1) on node 425 (rank 425 in comm 0): application called MPI_Abort(MPI_COMM_WORLD, 1) - process 425
Abort(1) on node 11 (rank 11 in comm 0): application called MPI_Abort(MPI_COMM_WORLD, 1) - process 11
[426] 
[426] 
[426] --> FOAM FATAL IO ERROR: (openfoam-2312)
[426] Entry 'smoother' not found in dictionary 
[426] 
[426] 
[426]     From const Foam::entry& Foam::dictionary::lookupEntry(const Foam::word&, Foam::keyType::option) const
[426]     in file db/dictionary/dictionary.C at line 363.
[426] 
FOAM parallel run exiting
[426] 
Abort(1) on node 426 (rank 426 in comm 0): application called MPI_Abort(MPI_COMM_WORLD, 1) - process 426
Abort(1) on node 12 (rank 12 in comm 0): application called MPI_Abort(MPI_COMM_WORLD, 1) - process 12
[427] 
[427] 
[427] --> FOAM FATAL IO ERROR: (openfoam-2312)
[427] Entry 'smoother' not found in dictionary 
[427] 
[427] 
[427]     From const Foam::entry& Foam::dictionary::lookupEntry(const Foam::word&, Foam::keyType::option) const
[427]     in file db/dictionary/dictionary.C at line 363.
[427] 
FOAM parallel run exiting
[427] 
Abort(1) on node 427 (rank 427 in comm 0): application called MPI_Abort(MPI_COMM_WORLD, 1) - process 427
Abort(1) on node 13 (rank 13 in comm 0): application called MPI_Abort(MPI_COMM_WORLD, 1) - process 13
[428] 
[428] 
[428] --> FOAM FATAL IO ERROR: (openfoam-2312)
[428] Entry 'smoother' not found in dictionary 
[428] 
[428] 
[428]     From const Foam::entry& Foam::dictionary::lookupEntry(const Foam::word&, Foam::keyType::option) const
[428]     in file db/dictionary/dictionary.C at line 363.
[428] 
FOAM parallel run exiting
[428] 
Abort(1) on node 428 (rank 428 in comm 0): application called MPI_Abort(MPI_COMM_WORLD, 1) - process 428
Abort(1) on node 14 (rank 14 in comm 0): application called MPI_Abort(MPI_COMM_WORLD, 1) - process 14
[429] 
[429] 
[429] --> FOAM FATAL IO ERROR: (openfoam-2312)
[429] Entry 'smoother' not found in dictionary 
[429] 
[429] 
[429]     From const Foam::entry& Foam::dictionary::lookupEntry(const Foam::word&, Foam::keyType::option) const
[429]     in file db/dictionary/dictionary.C at line 363.
[429] 
FOAM parallel run exiting
[429] 
Abort(1) on node 429 (rank 429 in comm 0): application called MPI_Abort(MPI_COMM_WORLD, 1) - process 429
Abort(1) on node 15 (rank 15 in comm 0): application called MPI_Abort(MPI_COMM_WORLD, 1) - process 15
[430] 
[430] 
[430] --> FOAM FATAL IO ERROR: (openfoam-2312)
[430] Entry 'smoother' not found in dictionary 
[430] 
[430] 
[430]     From const Foam::entry& Foam::dictionary::lookupEntry(const Foam::word&, Foam::keyType::option) const
[430]     in file db/dictionary/dictionary.C at line 363.
[430] 
FOAM parallel run exiting
[430] 
Abort(1) on node 430 (rank 430 in comm 0): application called MPI_Abort(MPI_COMM_WORLD, 1) - process 430
Abort(1) on node 16 (rank 16 in comm 0): application called MPI_Abort(MPI_COMM_WORLD, 1) - process 16
[431] 
[431] 
[431] --> FOAM FATAL IO ERROR: (openfoam-2312)
[431] Entry 'smoother' not found in dictionary 
[431] 
[431] 
[431]     From const Foam::entry& Foam::dictionary::lookupEntry(const Foam::word&, Foam::keyType::option) const
[431]     in file db/dictionary/dictionary.C at line 363.
[431] 
FOAM parallel run exiting
[431] 
Abort(1) on node 431 (rank 431 in comm 0): application called MPI_Abort(MPI_COMM_WORLD, 1) - process 431
Abort(1) on node 17 (rank 17 in comm 0): application called MPI_Abort(MPI_COMM_WORLD, 1) - process 17
[432] 
[432] 
[432] --> FOAM FATAL IO ERROR: (openfoam-2312)
[432] Entry 'smoother' not found in dictionary 
[432] 
[432] 
[432]     From const Foam::entry& Foam::dictionary::lookupEntry(const Foam::word&, Foam::keyType::option) const
[432]     in file db/dictionary/dictionary.C at line 363.
[432] 
FOAM parallel run exiting
[432] 
Abort(1) on node 432 (rank 432 in comm 0): application called MPI_Abort(MPI_COMM_WORLD, 1) - process 432
Abort(1) on node 18 (rank 18 in comm 0): application called MPI_Abort(MPI_COMM_WORLD, 1) - process 18
[433] 
[433] 
[433] --> FOAM FATAL IO ERROR: (openfoam-2312)
[433] Entry 'smoother' not found in dictionary 
[433] 
[433] 
[433]     From const Foam::entry& Foam::dictionary::lookupEntry(const Foam::word&, Foam::keyType::option) const
[433]     in file db/dictionary/dictionary.C at line 363.
[433] 
FOAM parallel run exiting
[433] 
Abort(1) on node 433 (rank 433 in comm 0): application called MPI_Abort(MPI_COMM_WORLD, 1) - process 433
Abort(1) on node 19 (rank 19 in comm 0): application called MPI_Abort(MPI_COMM_WORLD, 1) - process 19
[434] 
[434] 
[434] --> FOAM FATAL IO ERROR: (openfoam-2312)
[434] Entry 'smoother' not found in dictionary 
[434] 
[434] 
[434]     From const Foam::entry& Foam::dictionary::lookupEntry(const Foam::word&, Foam::keyType::option) const
[434]     in file db/dictionary/dictionary.C at line 363.
[434] 
FOAM parallel run exiting
[434] 
Abort(1) on node 434 (rank 434 in comm 0): application called MPI_Abort(MPI_COMM_WORLD, 1) - process 434
Abort(1) on node 20 (rank 20 in comm 0): application called MPI_Abort(MPI_COMM_WORLD, 1) - process 20
[435] 
[435] 
[435] --> FOAM FATAL IO ERROR: (openfoam-2312)
[435] Entry 'smoother' not found in dictionary 
[435] 
[435] 
[435]     From const Foam::entry& Foam::dictionary::lookupEntry(const Foam::word&, Foam::keyType::option) const
[435]     in file db/dictionary/dictionary.C at line 363.
[435] 
FOAM parallel run exiting
[435] 
Abort(1) on node 435 (rank 435 in comm 0): application called MPI_Abort(MPI_COMM_WORLD, 1) - process 435
Abort(1) on node 21 (rank 21 in comm 0): application called MPI_Abort(MPI_COMM_WORLD, 1) - process 21
[436] 
[436] 
[436] --> FOAM FATAL IO ERROR: (openfoam-2312)
[436] Entry 'smoother' not found in dictionary 
[436] 
[436] 
[436]     From const Foam::entry& Foam::dictionary::lookupEntry(const Foam::word&, Foam::keyType::option) const
[436]     in file db/dictionary/dictionary.C at line 363.
[436] 
FOAM parallel run exiting
[436] 
Abort(1) on node 436 (rank 436 in comm 0): application called MPI_Abort(MPI_COMM_WORLD, 1) - process 436
Abort(1) on node 22 (rank 22 in comm 0): application called MPI_Abort(MPI_COMM_WORLD, 1) - process 22
[437] 
[437] 
[437] --> FOAM FATAL IO ERROR: (openfoam-2312)
[437] Entry 'smoother' not found in dictionary 
[437] 
[437] 
[437]     From const Foam::entry& Foam::dictionary::lookupEntry(const Foam::word&, Foam::keyType::option) const
[437]     in file db/dictionary/dictionary.C at line 363.
[437] 
FOAM parallel run exiting
[437] 
Abort(1) on node 437 (rank 437 in comm 0): application called MPI_Abort(MPI_COMM_WORLD, 1) - process 437
Abort(1) on node 23 (rank 23 in comm 0): application called MPI_Abort(MPI_COMM_WORLD, 1) - process 23
[438] 
[438] 
[438] --> FOAM FATAL IO ERROR: (openfoam-2312)
[438] Entry 'smoother' not found in dictionary 
[438] 
[438] 
[438]     From const Foam::entry& Foam::dictionary::lookupEntry(const Foam::word&, Foam::keyType::option) const
[438]     in file db/dictionary/dictionary.C at line 363.
[438] 
FOAM parallel run exiting
[438] 
Abort(1) on node 438 (rank 438 in comm 0): application called MPI_Abort(MPI_COMM_WORLD, 1) - process 438
Abort(1) on node 25 (rank 25 in comm 0): application called MPI_Abort(MPI_COMM_WORLD, 1) - process 25
[439] 
[439] 
[439] --> FOAM FATAL IO ERROR: (openfoam-2312)
[439] Entry 'smoother' not found in dictionary 
[439] 
[439] 
[439]     From const Foam::entry& Foam::dictionary::lookupEntry(const Foam::word&, Foam::keyType::option) const
[439]     in file db/dictionary/dictionary.C at line 363.
[439] 
FOAM parallel run exiting
[439] 
Abort(1) on node 439 (rank 439 in comm 0): application called MPI_Abort(MPI_COMM_WORLD, 1) - process 439
Abort(1) on node 26 (rank 26 in comm 0): application called MPI_Abort(MPI_COMM_WORLD, 1) - process 26
[440] 
[440] 
[440] --> FOAM FATAL IO ERROR: (openfoam-2312)
[440] Entry 'smoother' not found in dictionary 
[440] 
[440] 
[440]     From const Foam::entry& Foam::dictionary::lookupEntry(const Foam::word&, Foam::keyType::option) const
[440]     in file db/dictionary/dictionary.C at line 363.
[440] 
FOAM parallel run exiting
[440] 
Abort(1) on node 440 (rank 440 in comm 0): application called MPI_Abort(MPI_COMM_WORLD, 1) - process 440
Abort(1) on node 27 (rank 27 in comm 0): application called MPI_Abort(MPI_COMM_WORLD, 1) - process 27
[441] 
[441] 
[441] --> FOAM FATAL IO ERROR: (openfoam-2312)
[441] Entry 'smoother' not found in dictionary 
[441] 
[441] 
[441]     From const Foam::entry& Foam::dictionary::lookupEntry(const Foam::word&, Foam::keyType::option) const
[441]     in file db/dictionary/dictionary.C at line 363.
[441] 
FOAM parallel run exiting
[441] 
Abort(1) on node 441 (rank 441 in comm 0): application called MPI_Abort(MPI_COMM_WORLD, 1) - process 441
Abort(1) on node 28 (rank 28 in comm 0): application called MPI_Abort(MPI_COMM_WORLD, 1) - process 28
[442] 
[442] 
[442] --> FOAM FATAL IO ERROR: (openfoam-2312)
[442] Entry 'smoother' not found in dictionary 
[442] 
[442] 
[442]     From const Foam::entry& Foam::dictionary::lookupEntry(const Foam::word&, Foam::keyType::option) const
[442]     in file db/dictionary/dictionary.C at line 363.
[442] 
FOAM parallel run exiting
[442] 
Abort(1) on node 442 (rank 442 in comm 0): application called MPI_Abort(MPI_COMM_WORLD, 1) - process 442
Abort(1) on node 29 (rank 29 in comm 0): application called MPI_Abort(MPI_COMM_WORLD, 1) - process 29
[443] 
[443] 
[443] --> FOAM FATAL IO ERROR: (openfoam-2312)
[443] Entry 'smoother' not found in dictionary 
[443] 
[443] 
[443]     From const Foam::entry& Foam::dictionary::lookupEntry(const Foam::word&, Foam::keyType::option) const
[443]     in file db/dictionary/dictionary.C at line 363.
[443] 
FOAM parallel run exiting
[443] 
Abort(1) on node 443 (rank 443 in comm 0): application called MPI_Abort(MPI_COMM_WORLD, 1) - process 443
Abort(1) on node 30 (rank 30 in comm 0): application called MPI_Abort(MPI_COMM_WORLD, 1) - process 30
[444] 
[444] 
[444] --> FOAM FATAL IO ERROR: (openfoam-2312)
[444] Entry 'smoother' not found in dictionary 
[444] 
[444] 
[444]     From const Foam::entry& Foam::dictionary::lookupEntry(const Foam::word&, Foam::keyType::option) const
[444]     in file db/dictionary/dictionary.C at line 363.
[444] 
FOAM parallel run exiting
[444] 
Abort(1) on node 444 (rank 444 in comm 0): application called MPI_Abort(MPI_COMM_WORLD, 1) - process 444
Abort(1) on node 31 (rank 31 in comm 0): application called MPI_Abort(MPI_COMM_WORLD, 1) - process 31
[445] 
[445] 
[445] --> FOAM FATAL IO ERROR: (openfoam-2312)
[445] Entry 'smoother' not found in dictionary 
[445] 
[445] 
[445]     From const Foam::entry& Foam::dictionary::lookupEntry(const Foam::word&, Foam::keyType::option) const
[445]     in file db/dictionary/dictionary.C at line 363.
[445] 
FOAM parallel run exiting
[445] 
Abort(1) on node 445 (rank 445 in comm 0): application called MPI_Abort(MPI_COMM_WORLD, 1) - process 445
Abort(1) on node 32 (rank 32 in comm 0): application called MPI_Abort(MPI_COMM_WORLD, 1) - process 32
[446] 
[446] 
[446] --> FOAM FATAL IO ERROR: (openfoam-2312)
[446] Entry 'smoother' not found in dictionary 
[446] 
[446] 
[446]     From const Foam::entry& Foam::dictionary::lookupEntry(const Foam::word&, Foam::keyType::option) const
[446]     in file db/dictionary/dictionary.C at line 363.
[446] 
FOAM parallel run exiting
[446] 
Abort(1) on node 446 (rank 446 in comm 0): application called MPI_Abort(MPI_COMM_WORLD, 1) - process 446
Abort(1) on node 33 (rank 33 in comm 0): application called MPI_Abort(MPI_COMM_WORLD, 1) - process 33
[447] 
[447] 
[447] --> FOAM FATAL IO ERROR: (openfoam-2312)
[447] Entry 'smoother' not found in dictionary 
[447] 
[447] 
[447]     From const Foam::entry& Foam::dictionary::lookupEntry(const Foam::word&, Foam::keyType::option) const
[447]     in file db/dictionary/dictionary.C at line 363.
[447] 
FOAM parallel run exiting
[447] 
Abort(1) on node 447 (rank 447 in comm 0): application called MPI_Abort(MPI_COMM_WORLD, 1) - process 447
Abort(1) on node 34 (rank 34 in comm 0): application called MPI_Abort(MPI_COMM_WORLD, 1) - process 34
Abort(1) on node 35 (rank 35 in comm 0): application called MPI_Abort(MPI_COMM_WORLD, 1) - process 35
Abort(1) on node 36 (rank 36 in comm 0): application called MPI_Abort(MPI_COMM_WORLD, 1) - process 36
Abort(1) on node 37 (rank 37 in comm 0): application called MPI_Abort(MPI_COMM_WORLD, 1) - process 37
Abort(1) on node 38 (rank 38 in comm 0): application called MPI_Abort(MPI_COMM_WORLD, 1) - process 38
Abort(1) on node 39 (rank 39 in comm 0): application called MPI_Abort(MPI_COMM_WORLD, 1) - process 39
Abort(1) on node 40 (rank 40 in comm 0): application called MPI_Abort(MPI_COMM_WORLD, 1) - process 40
Abort(1) on node 42 (rank 42 in comm 0): application called MPI_Abort(MPI_COMM_WORLD, 1) - process 42
Abort(1) on node 43 (rank 43 in comm 0): application called MPI_Abort(MPI_COMM_WORLD, 1) - process 43
Abort(1) on node 44 (rank 44 in comm 0): application called MPI_Abort(MPI_COMM_WORLD, 1) - process 44
Abort(1) on node 45 (rank 45 in comm 0): application called MPI_Abort(MPI_COMM_WORLD, 1) - process 45
Abort(1) on node 46 (rank 46 in comm 0): application called MPI_Abort(MPI_COMM_WORLD, 1) - process 46
Abort(1) on node 47 (rank 47 in comm 0): application called MPI_Abort(MPI_COMM_WORLD, 1) - process 47
Abort(1) on node 48 (rank 48 in comm 0): application called MPI_Abort(MPI_COMM_WORLD, 1) - process 48
Abort(1) on node 49 (rank 49 in comm 0): application called MPI_Abort(MPI_COMM_WORLD, 1) - process 49
Abort(1) on node 50 (rank 50 in comm 0): application called MPI_Abort(MPI_COMM_WORLD, 1) - process 50
Abort(1) on node 51 (rank 51 in comm 0): application called MPI_Abort(MPI_COMM_WORLD, 1) - process 51
Abort(1) on node 52 (rank 52 in comm 0): application called MPI_Abort(MPI_COMM_WORLD, 1) - process 52
Abort(1) on node 53 (rank 53 in comm 0): application called MPI_Abort(MPI_COMM_WORLD, 1) - process 53
Abort(1) on node 54 (rank 54 in comm 0): application called MPI_Abort(MPI_COMM_WORLD, 1) - process 54
Abort(1) on node 55 (rank 55 in comm 0): application called MPI_Abort(MPI_COMM_WORLD, 1) - process 55
Abort(1) on node 56 (rank 56 in comm 0): application called MPI_Abort(MPI_COMM_WORLD, 1) - process 56
Abort(1) on node 57 (rank 57 in comm 0): application called MPI_Abort(MPI_COMM_WORLD, 1) - process 57
Abort(1) on node 58 (rank 58 in comm 0): application called MPI_Abort(MPI_COMM_WORLD, 1) - process 58
Abort(1) on node 59 (rank 59 in comm 0): application called MPI_Abort(MPI_COMM_WORLD, 1) - process 59
Abort(1) on node 60 (rank 60 in comm 0): application called MPI_Abort(MPI_COMM_WORLD, 1) - process 60
Abort(1) on node 61 (rank 61 in comm 0): application called MPI_Abort(MPI_COMM_WORLD, 1) - process 61
Abort(1) on node 62 (rank 62 in comm 0): application called MPI_Abort(MPI_COMM_WORLD, 1) - process 62
Abort(1) on node 63 (rank 63 in comm 0): application called MPI_Abort(MPI_COMM_WORLD, 1) - process 63
Abort(1) on node 64 (rank 64 in comm 0): application called MPI_Abort(MPI_COMM_WORLD, 1) - process 64
Abort(1) on node 65 (rank 65 in comm 0): application called MPI_Abort(MPI_COMM_WORLD, 1) - process 65
Abort(1) on node 66 (rank 66 in comm 0): application called MPI_Abort(MPI_COMM_WORLD, 1) - process 66
Abort(1) on node 67 (rank 67 in comm 0): application called MPI_Abort(MPI_COMM_WORLD, 1) - process 67
Abort(1) on node 68 (rank 68 in comm 0): application called MPI_Abort(MPI_COMM_WORLD, 1) - process 68
Abort(1) on node 69 (rank 69 in comm 0): application called MPI_Abort(MPI_COMM_WORLD, 1) - process 69
Abort(1) on node 70 (rank 70 in comm 0): application called MPI_Abort(MPI_COMM_WORLD, 1) - process 70
Abort(1) on node 71 (rank 71 in comm 0): application called MPI_Abort(MPI_COMM_WORLD, 1) - process 71
Abort(1) on node 72 (rank 72 in comm 0): application called MPI_Abort(MPI_COMM_WORLD, 1) - process 72
Abort(1) on node 73 (rank 73 in comm 0): application called MPI_Abort(MPI_COMM_WORLD, 1) - process 73
Abort(1) on node 74 (rank 74 in comm 0): application called MPI_Abort(MPI_COMM_WORLD, 1) - process 74
Abort(1) on node 75 (rank 75 in comm 0): application called MPI_Abort(MPI_COMM_WORLD, 1) - process 75
Abort(1) on node 76 (rank 76 in comm 0): application called MPI_Abort(MPI_COMM_WORLD, 1) - process 76
Abort(1) on node 77 (rank 77 in comm 0): application called MPI_Abort(MPI_COMM_WORLD, 1) - process 77
Abort(1) on node 79 (rank 79 in comm 0): application called MPI_Abort(MPI_COMM_WORLD, 1) - process 79
Abort(1) on node 80 (rank 80 in comm 0): application called MPI_Abort(MPI_COMM_WORLD, 1) - process 80
Abort(1) on node 81 (rank 81 in comm 0): application called MPI_Abort(MPI_COMM_WORLD, 1) - process 81
Abort(1) on node 82 (rank 82 in comm 0): application called MPI_Abort(MPI_COMM_WORLD, 1) - process 82
Abort(1) on node 83 (rank 83 in comm 0): application called MPI_Abort(MPI_COMM_WORLD, 1) - process 83
[...]
[278]     in file db/dictionary/dictionary.C at line 363.
[278] 
FOAM parallel run exiting
[278] 
Abort(1) on node 278 (rank 278 in comm 0): application called MPI_Abort(MPI_COMM_WORLD, 1) - process 278
[279] 
[279] 
[279] --> FOAM FATAL IO ERROR: (openfoam-2312)
[279] Entry 'smoother' not found in dictionary 
[279] 
[279] 
[279]     From const Foam::entry& Foam::dictionary::lookupEntry(const Foam::word&, Foam::keyType::option) const
[279]     in file db/dictionary/dictionary.C at line 363.
[279] 
FOAM parallel run exiting
[279] 
Abort(1) on node 279 (rank 279 in comm 0): application called MPI_Abort(MPI_COMM_WORLD, 1) - process 279
[280] 
[280] 
[280] --> FOAM FATAL IO ERROR: (openfoam-2312)
[280] Entry 'smoother' not found in dictionary 
[280] 
[280] 
[280]     From const Foam::entry& Foam::dictionary::lookupEntry(const Foam::word&, Foam::keyType::option) const
[280]     in file db/dictionary/dictionary.C at line 363.
[280] 
FOAM parallel run exiting
[280] 
Abort(1) on node 280 (rank 280 in comm 0): application called MPI_Abort(MPI_COMM_WORLD, 1) - process 280
[283] 
[283] 
[283] --> FOAM FATAL IO ERROR: (openfoam-2312)
[283] Entry 'smoother' not found in dictionary 
[283] 
[283] 
[283]     From const Foam::entry& Foam::dictionary::lookupEntry(const Foam::word&, Foam::keyType::option) const
[283]     in file db/dictionary/dictionary.C at line 363.
[283] 
FOAM parallel run exiting
[283] 
Abort(1) on node 283 (rank 283 in comm 0): application called MPI_Abort(MPI_COMM_WORLD, 1) - process 283
[284] 
[284] 
[284] --> FOAM FATAL IO ERROR: (openfoam-2312)
[284] Entry 'smoother' not found in dictionary 
[284] 
[284] 
[284]     From const Foam::entry& Foam::dictionary::lookupEntry(const Foam::word&, Foam::keyType::option) const
[284]     in file db/dictionary/dictionary.C at line 363.
[284] 
FOAM parallel run exiting
[284] 
Abort(1) on node 284 (rank 284 in comm 0): application called MPI_Abort(MPI_COMM_WORLD, 1) - process 284
[285] 
[285] 
[285] --> FOAM FATAL IO ERROR: (openfoam-2312)
[285] Entry 'smoother' not found in dictionary 
[285] 
[285] 
[285]     From const Foam::entry& Foam::dictionary::lookupEntry(const Foam::word&, Foam::keyType::option) const
[285]     in file db/dictionary/dictionary.C at line 363.
[285] 
FOAM parallel run exiting
[285] 
Abort(1) on node 285 (rank 285 in comm 0): application called MPI_Abort(MPI_COMM_WORLD, 1) - process 285
[286] 
[286] 
[286] --> FOAM FATAL IO ERROR: (openfoam-2312)
[286] Entry 'smoother' not found in dictionary 
[286] 
[286] 
[286]     From const Foam::entry& Foam::dictionary::lookupEntry(const Foam::word&, Foam::keyType::option) const
[286]     in file db/dictionary/dictionary.C at line 363.
[286] 
FOAM parallel run exiting
[286] 
Abort(1) on node 286 (rank 286 in comm 0): application called MPI_Abort(MPI_COMM_WORLD, 1) - process 286
[288] 
[288] 
[288] --> FOAM FATAL IO ERROR: (openfoam-2312)
[288] Entry 'smoother' not found in dictionary 
[288] 
[288] 
[288]     From const Foam::entry& Foam::dictionary::lookupEntry(const Foam::word&, Foam::keyType::option) const
[288]     in file db/dictionary/dictionary.C at line 363.
[288] 
FOAM parallel run exiting
[288] 
Abort(1) on node 288 (rank 288 in comm 0): application called MPI_Abort(MPI_COMM_WORLD, 1) - process 288
[289] 
[289] 
[289] --> FOAM FATAL IO ERROR: (openfoam-2312)
[289] Entry 'smoother' not found in dictionary 
[289] 
[289] 
[289]     From const Foam::entry& Foam::dictionary::lookupEntry(const Foam::word&, Foam::keyType::option) const
[289]     in file db/dictionary/dictionary.C at line 363.
[289] 
FOAM parallel run exiting
[289] 
Abort(1) on node 289 (rank 289 in comm 0): application called MPI_Abort(MPI_COMM_WORLD, 1) - process 289
[290] 
[290] 
[290] --> FOAM FATAL IO ERROR: (openfoam-2312)
[290] Entry 'smoother' not found in dictionary 
[290] 
[290] 
[290]     From const Foam::entry& Foam::dictionary::lookupEntry(const Foam::word&, Foam::keyType::option) const
[290]     in file db/dictionary/dictionary.C at line 363.
[290] 
FOAM parallel run exiting
[290] 
Abort(1) on node 290 (rank 290 in comm 0): application called MPI_Abort(MPI_COMM_WORLD, 1) - process 290
[291] 
[291] 
[291] --> FOAM FATAL IO ERROR: (openfoam-2312)
[291] Entry 'smoother' not found in dictionary 
[291] 
[291] 
[291]     From const Foam::entry& Foam::dictionary::lookupEntry(const Foam::word&, Foam::keyType::option) const
[291]     in file db/dictionary/dictionary.C at line 363.
[291] 
FOAM parallel run exiting
[291] 
Abort(1) on node 291 (rank 291 in comm 0): application called MPI_Abort(MPI_COMM_WORLD, 1) - process 291
[292] 
[292] 
[292] --> FOAM FATAL IO ERROR: (openfoam-2312)
[292] Entry 'smoother' not found in dictionary 
[292] 
[292] 
[292]     From const Foam::entry& Foam::dictionary::lookupEntry(const Foam::word&, Foam::keyType::option) const
[292]     in file db/dictionary/dictionary.C at line 363.
[292] 
FOAM parallel run exiting
[292] 
Abort(1) on node 292 (rank 292 in comm 0): application called MPI_Abort(MPI_COMM_WORLD, 1) - process 292
[297] 
[297] 
[297] --> FOAM FATAL IO ERROR: (openfoam-2312)
[297] Entry 'smoother' not found in dictionary 
[297] 
[297] 
[297]     From const Foam::entry& Foam::dictionary::lookupEntry(const Foam::word&, Foam::keyType::option) const
[297]     in file db/dictionary/dictionary.C at line 363.
[297] 
FOAM parallel run exiting
[297] 
Abort(1) on node 297 (rank 297 in comm 0): application called MPI_Abort(MPI_COMM_WORLD, 1) - process 297
[298] 
[298] 
[298] --> FOAM FATAL IO ERROR: (openfoam-2312)
[298] Entry 'smoother' not found in dictionary 
[298] 
[298] 
[298]     From const Foam::entry& Foam::dictionary::lookupEntry(const Foam::word&, Foam::keyType::option) const
[298]     in file db/dictionary/dictionary.C at line 363.
[298] 
FOAM parallel run exiting
[298] 
Abort(1) on node 298 (rank 298 in comm 0): application called MPI_Abort(MPI_COMM_WORLD, 1) - process 298
[299] 
[299] 
[299] --> FOAM FATAL IO ERROR: (openfoam-2312)
[299] Entry 'smoother' not found in dictionary 
[299] 
[299] 
[299]     From const Foam::entry& Foam::dictionary::lookupEntry(const Foam::word&, Foam::keyType::option) const
[299]     in file db/dictionary/dictionary.C at line 363.
[299] 
FOAM parallel run exiting
[299] 
Abort(1) on node 299 (rank 299 in comm 0): application called MPI_Abort(MPI_COMM_WORLD, 1) - process 299
[300] 
[300] 
[300] --> FOAM FATAL IO ERROR: (openfoam-2312)
[300] Entry 'smoother' not found in dictionary 
[300] 
[300] 
[300]     From const Foam::entry& Foam::dictionary::lookupEntry(const Foam::word&, Foam::keyType::option) const
[300]     in file db/dictionary/dictionary.C at line 363.
[300] 
FOAM parallel run exiting
[300] 
Abort(1) on node 300 (rank 300 in comm 0): application called MPI_Abort(MPI_COMM_WORLD, 1) - process 300
[301] 
[301] 
[301] --> FOAM FATAL IO ERROR: (openfoam-2312)
[301] Entry 'smoother' not found in dictionary 
[301] 
[301] 
[301]     From const Foam::entry& Foam::dictionary::lookupEntry(const Foam::word&, Foam::keyType::option) const
[301]     in file db/dictionary/dictionary.C at line 363.
[301] 
FOAM parallel run exiting
[301] 
Abort(1) on node 301 (rank 301 in comm 0): application called MPI_Abort(MPI_COMM_WORLD, 1) - process 301
[304] 
[304] 
[304] --> FOAM FATAL IO ERROR: (openfoam-2312)
[304] Entry 'smoother' not found in dictionary 
[304] 
[304] 
[304]     From const Foam::entry& Foam::dictionary::lookupEntry(const Foam::word&, Foam::keyType::option) const
[304]     in file db/dictionary/dictionary.C at line 363.
[304] 
FOAM parallel run exiting
[304] 
Abort(1) on node 304 (rank 304 in comm 0): application called MPI_Abort(MPI_COMM_WORLD, 1) - process 304
[305] 
[305] 
[305] --> FOAM FATAL IO ERROR: (openfoam-2312)
[305] Entry 'smoother' not found in dictionary 
[305] 
[305] 
[305]     From const Foam::entry& Foam::dictionary::lookupEntry(const Foam::word&, Foam::keyType::option) const
[305]     in file db/dictionary/dictionary.C at line 363.
[305] 
FOAM parallel run exiting
[305] 
Abort(1) on node 305 (rank 305 in comm 0): application called MPI_Abort(MPI_COMM_WORLD, 1) - process 305
[306] 
[306] 
[306] --> FOAM FATAL IO ERROR: (openfoam-2312)
[306] Entry 'smoother' not found in dictionary 
[306] 
[306] 
[306]     From const Foam::entry& Foam::dictionary::lookupEntry(const Foam::word&, Foam::keyType::option) const
[306]     in file db/dictionary/dictionary.C at line 363.
[306] 
FOAM parallel run exiting
[306] 
Abort(1) on node 306 (rank 306 in comm 0): application called MPI_Abort(MPI_COMM_WORLD, 1) - process 306
[307] 
[307] 
[307] --> FOAM FATAL IO ERROR: (openfoam-2312)
[307] Entry 'smoother' not found in dictionary 
[307] 
[307] 
[307]     From const Foam::entry& Foam::dictionary::lookupEntry(const Foam::word&, Foam::keyType::option) const
[307]     in file db/dictionary/dictionary.C at line 363.
[307] 
FOAM parallel run exiting
[307] 
Abort(1) on node 307 (rank 307 in comm 0): application called MPI_Abort(MPI_COMM_WORLD, 1) - process 307
[308] 
[308] 
[308] --> FOAM FATAL IO ERROR: (openfoam-2312)
[308] Entry 'smoother' not found in dictionary 
[308] 
[308] 
[308]     From const Foam::entry& Foam::dictionary::lookupEntry(const Foam::word&, Foam::keyType::option) const
[308]     in file db/dictionary/dictionary.C at line 363.
[308] 
FOAM parallel run exiting
[308] 
Abort(1) on node 308 (rank 308 in comm 0): application called MPI_Abort(MPI_COMM_WORLD, 1) - process 308
[309] 
[309] 
[309] --> FOAM FATAL IO ERROR: (openfoam-2312)
[309] Entry 'smoother' not found in dictionary 
[309] 
[309] 
[309]     From const Foam::entry& Foam::dictionary::lookupEntry(const Foam::word&, Foam::keyType::option) const
[309]     in file db/dictionary/dictionary.C at line 363.
[309] 
FOAM parallel run exiting
[309] 
Abort(1) on node 309 (rank 309 in comm 0): application called MPI_Abort(MPI_COMM_WORLD, 1) - process 309
[310] 
[310] 
[310] --> FOAM FATAL IO ERROR: (openfoam-2312)
[310] Entry 'smoother' not found in dictionary 
[310] 
[310] 
[310]     From const Foam::entry& Foam::dictionary::lookupEntry(const Foam::word&, Foam::keyType::option) const
[310]     in file db/dictionary/dictionary.C at line 363.
[310] 
FOAM parallel run exiting
[310] 
Abort(1) on node 310 (rank 310 in comm 0): application called MPI_Abort(MPI_COMM_WORLD, 1) - process 310
[311] 
[311] 
[311] --> FOAM FATAL IO ERROR: (openfoam-2312)
[311] Entry 'smoother' not found in dictionary 
[311] 
[311] 
[311]     From const Foam::entry& Foam::dictionary::lookupEntry(const Foam::word&, Foam::keyType::option) const
[311]     in file db/dictionary/dictionary.C at line 363.
[311] 
FOAM parallel run exiting
[311] 
Abort(1) on node 311 (rank 311 in comm 0): application called MPI_Abort(MPI_COMM_WORLD, 1) - process 311
[313] 
[313] 
[313] --> FOAM FATAL IO ERROR: (openfoam-2312)
[313] Entry 'smoother' not found in dictionary 
[313] 
[313] 
[313]     From const Foam::entry& Foam::dictionary::lookupEntry(const Foam::word&, Foam::keyType::option) const
[313]     in file db/dictionary/dictionary.C at line 363.
[313] 
FOAM parallel run exiting
[313] 
Abort(1) on node 313 (rank 313 in comm 0): application called MPI_Abort(MPI_COMM_WORLD, 1) - process 313
[314] 
[314] 
[314] --> FOAM FATAL IO ERROR: (openfoam-2312)
[314] Entry 'smoother' not found in dictionary 
[314] 
[314] 
[314]     From const Foam::entry& Foam::dictionary::lookupEntry(const Foam::word&, Foam::keyType::option) const
[314]     in file db/dictionary/dictionary.C at line 363.
[314] 
FOAM parallel run exiting
[314] 
Abort(1) on node 314 (rank 314 in comm 0): application called MPI_Abort(MPI_COMM_WORLD, 1) - process 314
[315] 
[315] 
[315] --> FOAM FATAL IO ERROR: (openfoam-2312)
[315] Entry 'smoother' not found in dictionary 
[315] 
[315] 
[315]     From const Foam::entry& Foam::dictionary::lookupEntry(const Foam::word&, Foam::keyType::option) const
[315]     in file db/dictionary/dictionary.C at line 363.
[315] 
FOAM parallel run exiting
[315] 
Abort(1) on node 315 (rank 315 in comm 0): application called MPI_Abort(MPI_COMM_WORLD, 1) - process 315
[316] 
[316] 
[316] --> FOAM FATAL IO ERROR: (openfoam-2312)
[316] Entry 'smoother' not found in dictionary 
[316] 
[316] 
[316]     From const Foam::entry& Foam::dictionary::lookupEntry(const Foam::word&, Foam::keyType::option) const
[316]     in file db/dictionary/dictionary.C at line 363.
[316] 
FOAM parallel run exiting
[316] 
Abort(1) on node 316 (rank 316 in comm 0): application called MPI_Abort(MPI_COMM_WORLD, 1) - process 316
[317] 
[317] 
[317] --> FOAM FATAL IO ERROR: (openfoam-2312)
[317] Entry 'smoother' not found in dictionary 
[317] 
[317] 
[317]     From const Foam::entry& Foam::dictionary::lookupEntry(const Foam::word&, Foam::keyType::option) const
[317]     in file db/dictionary/dictionary.C at line 363.
[317] 
FOAM parallel run exiting
[317] 
Abort(1) on node 317 (rank 317 in comm 0): application called MPI_Abort(MPI_COMM_WORLD, 1) - process 317
[318] 
[318] 
[318] --> FOAM FATAL IO ERROR: (openfoam-2312)
[318] Entry 'smoother' not found in dictionary 
[318] 
[318] 
[318]     From const Foam::entry& Foam::dictionary::lookupEntry(const Foam::word&, Foam::keyType::option) const
[318]     in file db/dictionary/dictionary.C at line 363.
[318] 
FOAM parallel run exiting
[318] 
Abort(1) on node 318 (rank 318 in comm 0): application called MPI_Abort(MPI_COMM_WORLD, 1) - process 318
[319] 
[319] 
[319] --> FOAM FATAL IO ERROR: (openfoam-2312)
[319] Entry 'smoother' not found in dictionary 
[319] 
[319] 
[319]     From const Foam::entry& Foam::dictionary::lookupEntry(const Foam::word&, Foam::keyType::option) const
[319]     in file db/dictionary/dictionary.C at line 363.
[319] 
FOAM parallel run exiting
[319] 
Abort(1) on node 319 (rank 319 in comm 0): application called MPI_Abort(MPI_COMM_WORLD, 1) - process 319
[320] 
[320] 
[320] --> FOAM FATAL IO ERROR: (openfoam-2312)
[320] Entry 'smoother' not found in dictionary 
[320] 
[320] 
[320]     From const Foam::entry& Foam::dictionary::lookupEntry(const Foam::word&, Foam::keyType::option) const
[320]     in file db/dictionary/dictionary.C at line 363.
[320] 
FOAM parallel run exiting
[320] 
Abort(1) on node 320 (rank 320 in comm 0): application called MPI_Abort(MPI_COMM_WORLD, 1) - process 320
[321] 
[321] 
[321] --> FOAM FATAL IO ERROR: (openfoam-2312)
[321] Entry 'smoother' not found in dictionary 
[321] 
[321] 
[321]     From const Foam::entry& Foam::dictionary::lookupEntry(const Foam::word&, Foam::keyType::option) const
[321]     in file db/dictionary/dictionary.C at line 363.
[321] 
FOAM parallel run exiting
[321] 
Abort(1) on node 321 (rank 321 in comm 0): application called MPI_Abort(MPI_COMM_WORLD, 1) - process 321
[323] 
[323] 
[323] --> FOAM FATAL IO ERROR: (openfoam-2312)
[323] Entry 'smoother' not found in dictionary 
[323] 
[323] 
[323]     From const Foam::entry& Foam::dictionary::lookupEntry(const Foam::word&, Foam::keyType::option) const
[323]     in file db/dictionary/dictionary.C at line 363.
[323] 
FOAM parallel run exiting
[323] 
Abort(1) on node 323 (rank 323 in comm 0): application called MPI_Abort(MPI_COMM_WORLD, 1) - process 323
[324] 
[324] 
[324] --> FOAM FATAL IO ERROR: (openfoam-2312)
[324] Entry 'smoother' not found in dictionary 
[324] 
[324] 
[324]     From const Foam::entry& Foam::dictionary::lookupEntry(const Foam::word&, Foam::keyType::option) const
[324]     in file db/dictionary/dictionary.C at line 363.
[324] 
FOAM parallel run exiting
[324] 
Abort(1) on node 324 (rank 324 in comm 0): application called MPI_Abort(MPI_COMM_WORLD, 1) - process 324
[326] 
[326] 
[326] --> FOAM FATAL IO ERROR: (openfoam-2312)
[326] Entry 'smoother' not found in dictionary 
[326] 
[326] 
[326]     From const Foam::entry& Foam::dictionary::lookupEntry(const Foam::word&, Foam::keyType::option) const
[326]     in file db/dictionary/dictionary.C at line 363.
[326] 
FOAM parallel run exiting
[326] 
Abort(1) on node 326 (rank 326 in comm 0): application called MPI_Abort(MPI_COMM_WORLD, 1) - process 326
[327] 
[327] 
[327] --> FOAM FATAL IO ERROR: (openfoam-2312)
[327] Entry 'smoother' not found in dictionary 
[327] 
[327] 
[327]     From const Foam::entry& Foam::dictionary::lookupEntry(const Foam::word&, Foam::keyType::option) const
[327]     in file db/dictionary/dictionary.C at line 363.
[327] 
FOAM parallel run exiting
[327] 
Abort(1) on node 327 (rank 327 in comm 0): application called MPI_Abort(MPI_COMM_WORLD, 1) - process 327
[328] 
[328] 
[328] --> FOAM FATAL IO ERROR: (openfoam-2312)
[328] Entry 'smoother' not found in dictionary 
[328] 
[328] 
[328]     From const Foam::entry& Foam::dictionary::lookupEntry(const Foam::word&, Foam::keyType::option) const
[328]     in file db/dictionary/dictionary.C at line 363.
[328] 
FOAM parallel run exiting
[328] 
Abort(1) on node 328 (rank 328 in comm 0): application called MPI_Abort(MPI_COMM_WORLD, 1) - process 328
[329] 
[329] 
[329] --> FOAM FATAL IO ERROR: (openfoam-2312)
[329] Entry 'smoother' not found in dictionary 
[329] 
[329] 
[329]     From const Foam::entry& Foam::dictionary::lookupEntry(const Foam::word&, Foam::keyType::option) const
[329]     in file db/dictionary/dictionary.C at line 363.
[329] 
FOAM parallel run exiting
[329] 
Abort(1) on node 329 (rank 329 in comm 0): application called MPI_Abort(MPI_COMM_WORLD, 1) - process 329
[331] 
[331] 
[331] --> FOAM FATAL IO ERROR: (openfoam-2312)
[331] Entry 'smoother' not found in dictionary 
[331] 
[331] 
[331]     From const Foam::entry& Foam::dictionary::lookupEntry(const Foam::word&, Foam::keyType::option) const
[331]     in file db/dictionary/dictionary.C at line 363.
[331] 
FOAM parallel run exiting
[331] 
Abort(1) on node 331 (rank 331 in comm 0): application called MPI_Abort(MPI_COMM_WORLD, 1) - process 331
[332] 
[332] 
[332] --> FOAM FATAL IO ERROR: (openfoam-2312)
[332] Entry 'smoother' not found in dictionary 
[332] 
[332] 
[332]     From const Foam::entry& Foam::dictionary::lookupEntry(const Foam::word&, Foam::keyType::option) const
[332]     in file db/dictionary/dictionary.C at line 363.
[332] 
FOAM parallel run exiting
[332] 
Abort(1) on node 332 (rank 332 in comm 0): application called MPI_Abort(MPI_COMM_WORLD, 1) - process 332
[333] 
[333] 
[333] --> FOAM FATAL IO ERROR: (openfoam-2312)
[333] Entry 'smoother' not found in dictionary 
[333] 
[333] 
[333]     From const Foam::entry& Foam::dictionary::lookupEntry(const Foam::word&, Foam::keyType::option) const
[333]     in file db/dictionary/dictionary.C at line 363.
[333] 
FOAM parallel run exiting
[333] 
Abort(1) on node 333 (rank 333 in comm 0): application called MPI_Abort(MPI_COMM_WORLD, 1) - process 333
[334] 
[334] 
[334] --> FOAM FATAL IO ERROR: (openfoam-2312)
[334] Entry 'smoother' not found in dictionary 
[334] 
[334] 
[334]     From const Foam::entry& Foam::dictionary::lookupEntry(const Foam::word&, Foam::keyType::option) const
[334]     in file db/dictionary/dictionary.C at line 363.
[334] 
FOAM parallel run exiting
[334] 
Abort(1) on node 334 (rank 334 in comm 0): application called MPI_Abort(MPI_COMM_WORLD, 1) - process 334
[335] 
[335] 
[335] --> FOAM FATAL IO ERROR: (openfoam-2312)
[335] Entry 'smoother' not found in dictionary 
[335] 
[335] 
[335]     From const Foam::entry& Foam::dictionary::lookupEntry(const Foam::word&, Foam::keyType::option) const
[335]     in file db/dictionary/dictionary.C at line 363.
[335] 
FOAM parallel run exiting
[335] 
Abort(1) on node 335 (rank 335 in comm 0): application called MPI_Abort(MPI_COMM_WORLD, 1) - process 335
[303] 
[303] 
[303] --> FOAM FATAL IO ERROR: (openfoam-2312)
[303] Entry 'smoother' not found in dictionary 
[303] 
[303] 
[303]     From const Foam::entry& Foam::dictionary::lookupEntry(const Foam::word&, Foam::keyType::option) const
[303]     in file db/dictionary/dictionary.C at line 363.
[303] 
FOAM parallel run exiting
[303] 
Abort(1) on node 303 (rank 303 in comm 0): application called MPI_Abort(MPI_COMM_WORLD, 1) - process 303
