/*---------------------------------------------------------------------------*\
| =========                 |                                                 |
| \\      /  F ield         | OpenFOAM: The Open Source CFD Toolbox           |
|  \\    /   O peration     | Version:  2306                                  |
|   \\  /    A nd           | Website:  www.openfoam.com                      |
|    \\/     M anipulation  |                                                 |
\*---------------------------------------------------------------------------*/
Build  : a6e826bd55-20230630 OPENFOAM=2306 version=v2306
Arch   : "LSB;label=32;scalar=64"
Exec   : icoFoam -parallel -case /tmp/lidDrivenCavity/workspace/ff3f4c24b91877e56b2413c124d687f4/case
Date   : Dec 20 2023
Time   : 23:31:07
Host   : nla-gpu2.ianm.kit.edu
PID    : 387720
I/O    : uncollated
Case   : /tmp/lidDrivenCavity/workspace/ff3f4c24b91877e56b2413c124d687f4/case
nProcs : 16
Hosts  :
(
    (nla-gpu2.ianm.kit.edu 16)
)
Pstream initialized with:
    floatTransfer      : false
    nProcsSimpleSum    : 0
    nonBlockingExchange: 0 (tuning: 0)
    exchange algorithm : -1
    commsType          : nonBlocking
    polling iterations : 0
trapFpe: Floating point exception trapping enabled (FOAM_SIGFPE).
fileModificationChecking : Monitoring run-time modified files using timeStampMaster (fileModificationSkew 5, maxFileModificationPolls 20)
allowSystemOperations : Allowing user-supplied system call operations

// * * * * * * * * * * * * * * * * * * * * * * * * * * * * * * * * * * * * * //
Create time

--> FOAM Warning : 
    From void* Foam::dlLibraryTable::openLibrary(const Foam::fileName&, bool)
    in file db/dynamicLibrary/dlLibraryTable/dlLibraryTable.C at line 188
    Could not load "libpetscFoam.so"
libpetscFoam.so: cannot open shared object file: No such file or directory
Create mesh for time = 0


PISO: Operating solver in PISO mode

Reading transportProperties

Reading field p

Reading field U

Reading/calculating face flux field phi


Starting time loop

Time = 0.00025

Courant Number mean: 8.24341e-18 max: 2.08167e-14
[INFO] MatrixAssemblyU: 69.445 [ms]
DILUPBiCGStab:  Solving for Ux, Initial residual = 1, Final residual = 0.00994539, No Iterations 5
DILUPBiCGStab:  Solving for Uy:  solution singularity
DILUPBiCGStab:  Solving for Uz:  solution singularity
[INFO] MomentumPredictor: 278.644 [ms]
[INFO] MatrixAssemblyPI: 70.29 [ms]
[INFO] AdjustPhi: 5.389 [ms]
[INFO] ConstrainPressure: 0.023 [ms]
[INFO] MatrixAssemblyPII: 20.103 [ms]
[OGL LOG][lduLduBase.H:119] Initialising OGL
	OGL commit:  1421b02+
	Branch: feat/on_device_permute 
	Build type: Release
	Ginkgo version: 1.7.0 ( develop)
	Ginkgo commit: sparse-communicator
	MPI is GPU aware: 1
	Forces host buffer based communication: 0
	CPU ranks per GPU: 1
	Matrix format: Ell
	End OGL_INFO
[OGL LOG][Proc: 0]: global_index_init: 11.223 [ms]
[OGL LOG][Proc: 0]p_local_cols: call_init: 0.041 [ms]
[OGL LOG][Proc: 0]p_local_rows: call_init: 0.158 [ms]
[OGL LOG][Proc: 0]p_local_ldu_map: call_init: 0.007 [ms]
[OGL LOG][Proc: 0]p_local_coeffs: call_init: 0.119 [ms]
[OGL LOG][Proc: 0]p_non_local_cols: call_init: 0.006 [ms]
[OGL LOG][Proc: 0]p_non_local_rows: call_init: 0.002 [ms]
[OGL LOG][Proc: 0]p_non_local_ldu_map: call_init: 0.002 [ms]
[OGL LOG][Proc: 0]p_non_local_coeffs: call_init: 0.003 [ms]
[OGL LOG][Proc: 0]p: init_local_sparsity_pattern: 131.581 [ms]
[OGL LOG][Proc: 0]p: init_non_local_sparsity_pattern: 1.1 [ms]
[OGL LOG][Proc: 0]p: update_local_matrix_data: 51.488 [ms]
[OGL LOG][Proc: 0]p: update_non_local_matrix_data: 0.097 [ms]
[OGL LOG][Proc: 0]device_partition: call_init: 0.125 [ms]
[OGL LOG][Proc: 0]p_matrix: call_init: 49.804 [ms]
[OGL LOG][Proc: 0]p_rhs: call_init: 5.64 [ms]
[OGL LOG][Proc: 0]p_solution: call_init: 2.3 [ms]
[OGL LOG][Preconditioner.H:271] Generate preconditioner GISAI SparsityPower 1
[OGL LOG][Proc: 0]p: init_precond: 84.676 [ms]
[OGL LOG][StoppingCriterion.H:237] Creating stopping criterion with minIter 0 frequency 1
[OGL LOG][Proc: 0]p: generate_solver: 0.016 [ms]
[OGL LOG][Proc: 0]p: solve: 2577.91 [ms]
[OGL LOG][Proc: 0]p: copy_x_back: 1.424 [ms]
[OGL LOG][lduLduBase.H:330] 
Statistics:
	Time per iteration: 2870 [mu s]
	Time per residual norm calculation: 987.000000 [mu s]
	Time per iteration and DOF: 0.358750 [ns]
	Retrieve results bandwidth 2.808000 [GByte/s]
[OGL LOG][Proc: 0]p: solve_multi_gpu: 2726.86 [ms]
GISAIhipGKOCG:  Solving for p, Initial residual = 1, Final residual = 9.7592e-05, No Iterations 898
[INFO] SolveP: 3163.14 [ms]
time step continuity errors : sum local = 7.49167e-09, global = -1.86319e-22, cumulative = -1.86319e-22
[INFO] ContinuityError: 17.357 [ms]
[INFO] CorrectBoundary: 1.112 [ms]
[INFO] PISOStep: 3303.78 [ms]
[INFO] MatrixAssemblyPI: 71.533 [ms]
[INFO] AdjustPhi: 8.449 [ms]
[INFO] ConstrainPressure: 0.01 [ms]
[INFO] MatrixAssemblyPII: 23.23 [ms]
[OGL LOG][Proc: 0]: global_index_init: 0.956 [ms]
[OGL LOG][Proc: 0]p_local_coeffs: call_update: 0.004 [ms]
[OGL LOG][Proc: 0]p_non_local_coeffs: call_update: 0 [ms]
[OGL LOG][Proc: 0]p: update_local_matrix_data: 14.308 [ms]
[OGL LOG][Proc: 0]p: update_non_local_matrix_data: 0.128 [ms]
[OGL LOG][Proc: 0]p: regenerate_distributed_matrix: 43.47 [ms]
[OGL LOG][Proc: 0]p_matrix: call_update: 44.295 [ms]
[OGL LOG][Proc: 0]p_rhs: call_update: 7.895 [ms]
[OGL LOG][Preconditioner.H:271] Generate preconditioner GISAI SparsityPower 1
[OGL LOG][Proc: 0]p: init_precond: 68.37 [ms]
[OGL LOG][StoppingCriterion.H:237] Creating stopping criterion with minIter 538 frequency 13
[OGL LOG][Proc: 0]p: generate_solver: 0.002 [ms]
[OGL LOG][Proc: 0]p: solve: 1063.25 [ms]
[OGL LOG][Proc: 0]p: copy_x_back: 1.679 [ms]
[OGL LOG][lduLduBase.H:330] 
Statistics:
	Time per iteration: 1184 [mu s]
	Time per residual norm calculation: 301.000000 [mu s]
	Time per iteration and DOF: 0.148000 [ns]
	Retrieve results bandwidth 2.382000 [GByte/s]
[OGL LOG][Proc: 0]p: solve_multi_gpu: 1188.44 [ms]
GISAIhipGKOCG:  Solving for p, Initial residual = 0.786391, Final residual = 8.62021e-05, No Iterations 898
[INFO] SolveP: 1207.26 [ms]
time step continuity errors : sum local = 8.27164e-09, global = -4.26463e-22, cumulative = -6.12783e-22
[INFO] ContinuityError: 10.989 [ms]
[INFO] CorrectBoundary: 0.603 [ms]
[INFO] PISOStep: 1346.75 [ms]
[INFO] TimeStep: 5012.01 [ms]
ExecutionTime = 5.96 s  ClockTime = 5 s

Time = 0.0005

Courant Number mean: 0.0159459 max: 0.412549
[INFO] MatrixAssemblyU: 59.279 [ms]
DILUPBiCGStab:  Solving for Ux, Initial residual = 0.129574, Final residual = 0.00549881, No Iterations 5
DILUPBiCGStab:  Solving for Uy, Initial residual = 0.426966, Final residual = 0.0140636, No Iterations 5
DILUPBiCGStab:  Solving for Uz, Initial residual = 0.98707, Final residual = 0.0342323, No Iterations 5
[INFO] MomentumPredictor: 532.107 [ms]
[INFO] MatrixAssemblyPI: 72.221 [ms]
[INFO] AdjustPhi: 5.729 [ms]
[INFO] ConstrainPressure: 0.004 [ms]
[INFO] MatrixAssemblyPII: 20.538 [ms]
[OGL LOG][Proc: 0]: global_index_init: 1.233 [ms]
[OGL LOG][Proc: 0]p_local_coeffs: call_update: 0 [ms]
[OGL LOG][Proc: 0]p_non_local_coeffs: call_update: 0 [ms]
[OGL LOG][Proc: 0]p: update_local_matrix_data: 13.519 [ms]
[OGL LOG][Proc: 0]p: update_non_local_matrix_data: 0.125 [ms]
[OGL LOG][Proc: 0]p: regenerate_distributed_matrix: 46.071 [ms]
[OGL LOG][Proc: 0]p_matrix: call_update: 49.392 [ms]
[OGL LOG][Proc: 0]p_rhs: call_update: 16.443 [ms]
[OGL LOG][Preconditioner.H:271] Generate preconditioner GISAI SparsityPower 1
[OGL LOG][Proc: 0]p: init_precond: 71.644 [ms]
[OGL LOG][StoppingCriterion.H:237] Creating stopping criterion with minIter 538 frequency 10
[OGL LOG][Proc: 0]p: generate_solver: 0.002 [ms]
[OGL LOG][Proc: 0]p: solve: 986.458 [ms]
[OGL LOG][Proc: 0]p: copy_x_back: 1.402 [ms]
[OGL LOG][lduLduBase.H:330] 
Statistics:
	Time per iteration: 1094 [mu s]
	Time per residual norm calculation: 300.000000 [mu s]
	Time per iteration and DOF: 0.136750 [ns]
	Retrieve results bandwidth 2.853000 [GByte/s]
[OGL LOG][Proc: 0]p: solve_multi_gpu: 1129.77 [ms]
GISAIhipGKOCG:  Solving for p, Initial residual = 0.825146, Final residual = 6.56696e-05, No Iterations 901
[INFO] SolveP: 1147.21 [ms]
time step continuity errors : sum local = 9.67245e-09, global = -4.20395e-22, cumulative = -1.03318e-21
[INFO] ContinuityError: 11.567 [ms]
[INFO] CorrectBoundary: 0.286 [ms]
[INFO] PISOStep: 1286.39 [ms]
[INFO] MatrixAssemblyPI: 72.436 [ms]
[INFO] AdjustPhi: 4.155 [ms]
[INFO] ConstrainPressure: 0.009 [ms]
[INFO] MatrixAssemblyPII: 20.476 [ms]
[OGL LOG][Proc: 0]: global_index_init: 0.854 [ms]
[OGL LOG][Proc: 0]p_local_coeffs: call_update: 0 [ms]
[OGL LOG][Proc: 0]p_non_local_coeffs: call_update: 0 [ms]
[OGL LOG][Proc: 0]p: update_local_matrix_data: 13.528 [ms]
[OGL LOG][Proc: 0]p: update_non_local_matrix_data: 0.103 [ms]
[OGL LOG][Proc: 0]p: regenerate_distributed_matrix: 46.265 [ms]
[OGL LOG][Proc: 0]p_matrix: call_update: 47.205 [ms]
[OGL LOG][Proc: 0]p_rhs: call_update: 4.557 [ms]
[OGL LOG][Preconditioner.H:271] Generate preconditioner GISAI SparsityPower 1
[OGL LOG][Proc: 0]p: init_precond: 67.704 [ms]
[OGL LOG][StoppingCriterion.H:237] Creating stopping criterion with minIter 540 frequency 10
[OGL LOG][Proc: 0]p: generate_solver: 0.002 [ms]
[OGL LOG][Proc: 0]p: solve: 954.069 [ms]
[OGL LOG][Proc: 0]p: copy_x_back: 1.458 [ms]
[OGL LOG][lduLduBase.H:330] 
Statistics:
	Time per iteration: 1070 [mu s]
	Time per residual norm calculation: 297.000000 [mu s]
	Time per iteration and DOF: 0.133750 [ns]
	Retrieve results bandwidth 2.743000 [GByte/s]
[OGL LOG][Proc: 0]p: solve_multi_gpu: 1080.49 [ms]
GISAIhipGKOCG:  Solving for p, Initial residual = 0.768294, Final residual = 8.36104e-05, No Iterations 891
[INFO] SolveP: 1098.35 [ms]
time step continuity errors : sum local = 1.25366e-08, global = -4.70433e-22, cumulative = -1.50361e-21
[INFO] ContinuityError: 7.184 [ms]
[INFO] CorrectBoundary: 0.221 [ms]
[INFO] PISOStep: 1229.37 [ms]
[INFO] TimeStep: 3115.91 [ms]
ExecutionTime = 9.49 s  ClockTime = 9 s

Time = 0.00075

Courant Number mean: 0.0243291 max: 0.472011
[INFO] MatrixAssemblyU: 61.377 [ms]
DILUPBiCGStab:  Solving for Ux, Initial residual = 0.054778, Final residual = 0.00187248, No Iterations 5
DILUPBiCGStab:  Solving for Uy, Initial residual = 0.182216, Final residual = 0.00762567, No Iterations 5
DILUPBiCGStab:  Solving for Uz, Initial residual = 0.810895, Final residual = 0.0252583, No Iterations 5
[INFO] MomentumPredictor: 538.703 [ms]
[INFO] MatrixAssemblyPI: 69.755 [ms]
[INFO] AdjustPhi: 4.972 [ms]
[INFO] ConstrainPressure: 0.004 [ms]
[INFO] MatrixAssemblyPII: 19.294 [ms]
[OGL LOG][Proc: 0]: global_index_init: 0.69 [ms]
[OGL LOG][Proc: 0]p_local_coeffs: call_update: 0 [ms]
[OGL LOG][Proc: 0]p_non_local_coeffs: call_update: 0 [ms]
[OGL LOG][Proc: 0]p: update_local_matrix_data: 13.737 [ms]
[OGL LOG][Proc: 0]p: update_non_local_matrix_data: 0.093 [ms]
[OGL LOG][Proc: 0]p: regenerate_distributed_matrix: 40.462 [ms]
[OGL LOG][Proc: 0]p_matrix: call_update: 41.317 [ms]
[OGL LOG][Proc: 0]p_rhs: call_update: 3.599 [ms]
[OGL LOG][Preconditioner.H:271] Generate preconditioner GISAI SparsityPower 1
[OGL LOG][Proc: 0]p: init_precond: 67.859 [ms]
[OGL LOG][StoppingCriterion.H:237] Creating stopping criterion with minIter 534 frequency 10
[OGL LOG][Proc: 0]p: generate_solver: 0.002 [ms]
[OGL LOG][Proc: 0]p: solve: 965.588 [ms]
[OGL LOG][Proc: 0]p: copy_x_back: 1.411 [ms]
[OGL LOG][lduLduBase.H:330] 
Statistics:
	Time per iteration: 1083 [mu s]
	Time per residual norm calculation: 297.000000 [mu s]
	Time per iteration and DOF: 0.135375 [ns]
	Retrieve results bandwidth 2.834000 [GByte/s]
[OGL LOG][Proc: 0]p: solve_multi_gpu: 1083.27 [ms]
GISAIhipGKOCG:  Solving for p, Initial residual = 0.849315, Final residual = 8.98995e-05, No Iterations 891
[INFO] SolveP: 1099.95 [ms]
time step continuity errors : sum local = 1.20891e-08, global = 2.88421e-22, cumulative = -1.21519e-21
[INFO] ContinuityError: 8.777 [ms]
[INFO] CorrectBoundary: 0.251 [ms]
[INFO] PISOStep: 1230.1 [ms]
[INFO] MatrixAssemblyPI: 65.713 [ms]
[INFO] AdjustPhi: 7.082 [ms]
[INFO] ConstrainPressure: 0.008 [ms]
[INFO] MatrixAssemblyPII: 19.994 [ms]
[OGL LOG][Proc: 0]: global_index_init: 0.117 [ms]
[OGL LOG][Proc: 0]p_local_coeffs: call_update: 0 [ms]
[OGL LOG][Proc: 0]p_non_local_coeffs: call_update: 0 [ms]
[OGL LOG][Proc: 0]p: update_local_matrix_data: 15.212 [ms]
[OGL LOG][Proc: 0]p: update_non_local_matrix_data: 0.097 [ms]
[OGL LOG][Proc: 0]p: regenerate_distributed_matrix: 42.495 [ms]
[OGL LOG][Proc: 0]p_matrix: call_update: 43.314 [ms]
[OGL LOG][Proc: 0]p_rhs: call_update: 4.545 [ms]
[OGL LOG][Preconditioner.H:271] Generate preconditioner GISAI SparsityPower 1
[OGL LOG][Proc: 0]p: init_precond: 67.874 [ms]
[OGL LOG][StoppingCriterion.H:237] Creating stopping criterion with minIter 534 frequency 10
[OGL LOG][Proc: 0]p: generate_solver: 0.002 [ms]
[OGL LOG][Proc: 0]p: solve: 1029.43 [ms]
[OGL LOG][Proc: 0]p: copy_x_back: 1.437 [ms]
[OGL LOG][lduLduBase.H:330] 
Statistics:
	Time per iteration: 1155 [mu s]
	Time per residual norm calculation: 295.000000 [mu s]
	Time per iteration and DOF: 0.144375 [ns]
	Retrieve results bandwidth 2.783000 [GByte/s]
[OGL LOG][Proc: 0]p: solve_multi_gpu: 1148.24 [ms]
GISAIhipGKOCG:  Solving for p, Initial residual = 0.815704, Final residual = 8.24395e-05, No Iterations 891
[INFO] SolveP: 1166.38 [ms]
time step continuity errors : sum local = 1.08476e-08, global = -2.93658e-21, cumulative = -4.15176e-21
[INFO] ContinuityError: 9.708 [ms]
[INFO] CorrectBoundary: 0.206 [ms]
[INFO] PISOStep: 1295.11 [ms]
[INFO] TimeStep: 3137.72 [ms]
ExecutionTime = 13.03 s  ClockTime = 12 s

Time = 0.001

Courant Number mean: 0.0291952 max: 0.467754
[INFO] MatrixAssemblyU: 61.923 [ms]
DILUPBiCGStab:  Solving for Ux, Initial residual = 0.0346919, Final residual = 0.00124166, No Iterations 5
DILUPBiCGStab:  Solving for Uy, Initial residual = 0.129105, Final residual = 0.00473239, No Iterations 5
DILUPBiCGStab:  Solving for Uz, Initial residual = 0.610583, Final residual = 0.0152039, No Iterations 5
[INFO] MomentumPredictor: 517.869 [ms]
[INFO] MatrixAssemblyPI: 67.455 [ms]
[INFO] AdjustPhi: 6.038 [ms]
[INFO] ConstrainPressure: 0.004 [ms]
[INFO] MatrixAssemblyPII: 19.79 [ms]
[OGL LOG][Proc: 0]: global_index_init: 0.582 [ms]
[OGL LOG][Proc: 0]p_local_coeffs: call_update: 0 [ms]
[OGL LOG][Proc: 0]p_non_local_coeffs: call_update: 0 [ms]
[OGL LOG][Proc: 0]p: update_local_matrix_data: 14.661 [ms]
[OGL LOG][Proc: 0]p: update_non_local_matrix_data: 0.088 [ms]
[OGL LOG][Proc: 0]p: regenerate_distributed_matrix: 40.386 [ms]
[OGL LOG][Proc: 0]p_matrix: call_update: 41.266 [ms]
[OGL LOG][Proc: 0]p_rhs: call_update: 4.962 [ms]
[OGL LOG][Preconditioner.H:271] Generate preconditioner GISAI SparsityPower 1
[OGL LOG][Proc: 0]p: init_precond: 67.016 [ms]
[OGL LOG][StoppingCriterion.H:237] Creating stopping criterion with minIter 534 frequency 10
[OGL LOG][Proc: 0]p: generate_solver: 0.003 [ms]
[OGL LOG][Proc: 0]p: solve: 633.539 [ms]
[OGL LOG][Proc: 0]p: copy_x_back: 1.456 [ms]
[OGL LOG][lduLduBase.H:330] 
Statistics:
	Time per iteration: 1171 [mu s]
	Time per residual norm calculation: 5408.000000 [mu s]
	Time per iteration and DOF: 0.146375 [ns]
	Retrieve results bandwidth 2.747000 [GByte/s]
[OGL LOG][Proc: 0]p: solve_multi_gpu: 750.729 [ms]
GISAIhipGKOCG:  Solving for p, Initial residual = 0.770671, Final residual = 3.56304e-05, No Iterations 541
[INFO] SolveP: 768.526 [ms]
time step continuity errors : sum local = 4.83074e-09, global = -9.65966e-22, cumulative = -5.11773e-21
[INFO] ContinuityError: 7.866 [ms]
[INFO] CorrectBoundary: 0.715 [ms]
[INFO] PISOStep: 896.305 [ms]
[INFO] MatrixAssemblyPI: 65.444 [ms]
[INFO] AdjustPhi: 7.13 [ms]
[INFO] ConstrainPressure: 0.014 [ms]
[INFO] MatrixAssemblyPII: 19.921 [ms]
[OGL LOG][Proc: 0]: global_index_init: 0.14 [ms]
[OGL LOG][Proc: 0]p_local_coeffs: call_update: 0 [ms]
[OGL LOG][Proc: 0]p_non_local_coeffs: call_update: 0 [ms]
[OGL LOG][Proc: 0]p: update_local_matrix_data: 16.471 [ms]
[OGL LOG][Proc: 0]p: update_non_local_matrix_data: 0.111 [ms]
[OGL LOG][Proc: 0]p: regenerate_distributed_matrix: 53.315 [ms]
[OGL LOG][Proc: 0]p_matrix: call_update: 54.143 [ms]
[OGL LOG][Proc: 0]p_rhs: call_update: 4.489 [ms]
[OGL LOG][Preconditioner.H:271] Generate preconditioner GISAI SparsityPower 1
[OGL LOG][Proc: 0]p: init_precond: 67.679 [ms]
[OGL LOG][StoppingCriterion.H:237] Creating stopping criterion with minIter 0 frequency 1
[OGL LOG][Proc: 0]p: generate_solver: 0.002 [ms]
[OGL LOG][Proc: 0]p: solve: 562.457 [ms]
[OGL LOG][Proc: 0]p: copy_x_back: 1.376 [ms]
[OGL LOG][lduLduBase.H:330] 
Statistics:
	Time per iteration: 1336 [mu s]
	Time per residual norm calculation: 292.000000 [mu s]
	Time per iteration and DOF: 0.167000 [ns]
	Retrieve results bandwidth 2.906000 [GByte/s]
[OGL LOG][Proc: 0]p: solve_multi_gpu: 692.662 [ms]
GISAIhipGKOCG:  Solving for p, Initial residual = 0.708045, Final residual = 9.81967e-05, No Iterations 421
[INFO] SolveP: 712.102 [ms]
time step continuity errors : sum local = 1.23048e-08, global = -2.06376e-21, cumulative = -7.18149e-21
[INFO] ContinuityError: 11.48 [ms]
[INFO] CorrectBoundary: 0.258 [ms]
[INFO] PISOStep: 841.906 [ms]
[INFO] TimeStep: 2329.56 [ms]
ExecutionTime = 15.58 s  ClockTime = 14 s

Time = 0.00125

Courant Number mean: 0.0333376 max: 0.472934
[INFO] MatrixAssemblyU: 60.83 [ms]
DILUPBiCGStab:  Solving for Ux, Initial residual = 0.0271307, Final residual = 0.000902546, No Iterations 5
DILUPBiCGStab:  Solving for Uy, Initial residual = 0.0814025, Final residual = 0.00356621, No Iterations 5
DILUPBiCGStab:  Solving for Uz, Initial residual = 0.462451, Final residual = 0.0116933, No Iterations 5
[INFO] MomentumPredictor: 519.037 [ms]
[INFO] MatrixAssemblyPI: 67.721 [ms]
[INFO] AdjustPhi: 6.127 [ms]
[INFO] ConstrainPressure: 0.004 [ms]
[INFO] MatrixAssemblyPII: 19.759 [ms]
[OGL LOG][Proc: 0]: global_index_init: 0.539 [ms]
[OGL LOG][Proc: 0]p_local_coeffs: call_update: 0 [ms]
[OGL LOG][Proc: 0]p_non_local_coeffs: call_update: 0 [ms]
[OGL LOG][Proc: 0]p: update_local_matrix_data: 14.152 [ms]
[OGL LOG][Proc: 0]p: update_non_local_matrix_data: 0.1 [ms]
[OGL LOG][Proc: 0]p: regenerate_distributed_matrix: 40.926 [ms]
[OGL LOG][Proc: 0]p_matrix: call_update: 41.764 [ms]
[OGL LOG][Proc: 0]p_rhs: call_update: 4.609 [ms]
[OGL LOG][Preconditioner.H:271] Generate preconditioner GISAI SparsityPower 1
[OGL LOG][Proc: 0]p: init_precond: 68.584 [ms]
[OGL LOG][StoppingCriterion.H:237] Creating stopping criterion with minIter 252 frequency 6
[OGL LOG][Proc: 0]p: generate_solver: 0.002 [ms]
[OGL LOG][Proc: 0]p: solve: 479.265 [ms]
[OGL LOG][Proc: 0]p: copy_x_back: 1.418 [ms]
[OGL LOG][lduLduBase.H:330] 
Statistics:
	Time per iteration: 1138 [mu s]
	Time per residual norm calculation: 290.000000 [mu s]
	Time per iteration and DOF: 0.142250 [ns]
	Retrieve results bandwidth 2.820000 [GByte/s]
[OGL LOG][Proc: 0]p: solve_multi_gpu: 598.669 [ms]
GISAIhipGKOCG:  Solving for p, Initial residual = 0.7762, Final residual = 8.62555e-05, No Iterations 421
[INFO] SolveP: 615.816 [ms]
time step continuity errors : sum local = 8.9429e-09, global = -1.24175e-21, cumulative = -8.42325e-21
[INFO] ContinuityError: 10.902 [ms]
[INFO] CorrectBoundary: 0.208 [ms]
[INFO] PISOStep: 746.93 [ms]
[INFO] MatrixAssemblyPI: 66.135 [ms]
[INFO] AdjustPhi: 4.739 [ms]
[INFO] ConstrainPressure: 0.009 [ms]
[INFO] MatrixAssemblyPII: 20.039 [ms]
[OGL LOG][Proc: 0]: global_index_init: 0.051 [ms]
[OGL LOG][Proc: 0]p_local_coeffs: call_update: 0 [ms]
[OGL LOG][Proc: 0]p_non_local_coeffs: call_update: 0 [ms]
[OGL LOG][Proc: 0]p: update_local_matrix_data: 13.502 [ms]
[OGL LOG][Proc: 0]p: update_non_local_matrix_data: 0.086 [ms]
[OGL LOG][Proc: 0]p: regenerate_distributed_matrix: 39.928 [ms]
[OGL LOG][Proc: 0]p_matrix: call_update: 40.762 [ms]
[OGL LOG][Proc: 0]p_rhs: call_update: 4.818 [ms]
[OGL LOG][Preconditioner.H:271] Generate preconditioner GISAI SparsityPower 1
[OGL LOG][Proc: 0]p: init_precond: 67.549 [ms]
[OGL LOG][StoppingCriterion.H:237] Creating stopping criterion with minIter 252 frequency 7
[OGL LOG][Proc: 0]p: generate_solver: 0.002 [ms]
[OGL LOG][Proc: 0]p: solve: 464.74 [ms]
[OGL LOG][Proc: 0]p: copy_x_back: 1.448 [ms]
[OGL LOG][lduLduBase.H:330] 
Statistics:
	Time per iteration: 1103 [mu s]
	Time per residual norm calculation: 298.000000 [mu s]
	Time per iteration and DOF: 0.137875 [ns]
	Retrieve results bandwidth 2.762000 [GByte/s]
[OGL LOG][Proc: 0]p: solve_multi_gpu: 582.604 [ms]
GISAIhipGKOCG:  Solving for p, Initial residual = 0.725244, Final residual = 8.10398e-05, No Iterations 421
[INFO] SolveP: 598.907 [ms]
time step continuity errors : sum local = 8.15081e-09, global = 5.69016e-22, cumulative = -7.85423e-21
[INFO] ContinuityError: 7.789 [ms]
[INFO] CorrectBoundary: 0.25 [ms]
[INFO] PISOStep: 722.72 [ms]
[INFO] TimeStep: 2061.17 [ms]
ExecutionTime = 17.83 s  ClockTime = 16 s

Time = 0.0015

Courant Number mean: 0.0366382 max: 0.475557
[INFO] MatrixAssemblyU: 59.76 [ms]
DILUPBiCGStab:  Solving for Ux, Initial residual = 0.020432, Final residual = 0.00064502, No Iterations 5
DILUPBiCGStab:  Solving for Uy, Initial residual = 0.0658456, Final residual = 0.00244954, No Iterations 5
DILUPBiCGStab:  Solving for Uz, Initial residual = 0.33606, Final residual = 0.00855738, No Iterations 5
[INFO] MomentumPredictor: 515.537 [ms]
[INFO] MatrixAssemblyPI: 67.9 [ms]
[INFO] AdjustPhi: 5.118 [ms]
[INFO] ConstrainPressure: 0.004 [ms]
[INFO] MatrixAssemblyPII: 19.823 [ms]
[OGL LOG][Proc: 0]: global_index_init: 0.41 [ms]
[OGL LOG][Proc: 0]p_local_coeffs: call_update: 0 [ms]
[OGL LOG][Proc: 0]p_non_local_coeffs: call_update: 0 [ms]
[OGL LOG][Proc: 0]p: update_local_matrix_data: 13.536 [ms]
[OGL LOG][Proc: 0]p: update_non_local_matrix_data: 0.079 [ms]
[OGL LOG][Proc: 0]p: regenerate_distributed_matrix: 39.476 [ms]
[OGL LOG][Proc: 0]p_matrix: call_update: 40.322 [ms]
[OGL LOG][Proc: 0]p_rhs: call_update: 5.099 [ms]
[OGL LOG][Preconditioner.H:271] Generate preconditioner GISAI SparsityPower 1
[OGL LOG][Proc: 0]p: init_precond: 67.615 [ms]
[OGL LOG][StoppingCriterion.H:237] Creating stopping criterion with minIter 252 frequency 7
[OGL LOG][Proc: 0]p: generate_solver: 0.002 [ms]
[OGL LOG][Proc: 0]p: solve: 483.989 [ms]
[OGL LOG][Proc: 0]p: copy_x_back: 1.402 [ms]
[OGL LOG][lduLduBase.H:330] 
Statistics:
	Time per iteration: 1149 [mu s]
	Time per residual norm calculation: 298.000000 [mu s]
	Time per iteration and DOF: 0.143625 [ns]
	Retrieve results bandwidth 2.853000 [GByte/s]
[OGL LOG][Proc: 0]p: solve_multi_gpu: 602.502 [ms]
GISAIhipGKOCG:  Solving for p, Initial residual = 0.683367, Final residual = 8.57754e-05, No Iterations 421
[INFO] SolveP: 618.906 [ms]
time step continuity errors : sum local = 9.09441e-09, global = -3.9229e-22, cumulative = -8.24652e-21
[INFO] ContinuityError: 8.279 [ms]
[INFO] CorrectBoundary: 0.274 [ms]
[INFO] PISOStep: 745.982 [ms]
[INFO] MatrixAssemblyPI: 65.865 [ms]
[INFO] AdjustPhi: 4.706 [ms]
[INFO] ConstrainPressure: 0.005 [ms]
[INFO] MatrixAssemblyPII: 20.058 [ms]
[OGL LOG][Proc: 0]: global_index_init: 0.338 [ms]
[OGL LOG][Proc: 0]p_local_coeffs: call_update: 0 [ms]
[OGL LOG][Proc: 0]p_non_local_coeffs: call_update: 0 [ms]
[OGL LOG][Proc: 0]p: update_local_matrix_data: 13.178 [ms]
[OGL LOG][Proc: 0]p: update_non_local_matrix_data: 0.127 [ms]
[OGL LOG][Proc: 0]p: regenerate_distributed_matrix: 49.393 [ms]
[OGL LOG][Proc: 0]p_matrix: call_update: 50.196 [ms]
[OGL LOG][Proc: 0]p_rhs: call_update: 7.983 [ms]
[OGL LOG][Preconditioner.H:271] Generate preconditioner GISAI SparsityPower 1
[OGL LOG][Proc: 0]p: init_precond: 67.474 [ms]
[OGL LOG][StoppingCriterion.H:237] Creating stopping criterion with minIter 252 frequency 7
[OGL LOG][Proc: 0]p: generate_solver: 0.003 [ms]
[OGL LOG][Proc: 0]p: solve: 468.458 [ms]
[OGL LOG][Proc: 0]p: copy_x_back: 1.889 [ms]
[OGL LOG][lduLduBase.H:330] 
Statistics:
	Time per iteration: 1112 [mu s]
	Time per residual norm calculation: 293.000000 [mu s]
	Time per iteration and DOF: 0.139000 [ns]
	Retrieve results bandwidth 2.117000 [GByte/s]
[OGL LOG][Proc: 0]p: solve_multi_gpu: 602.573 [ms]
GISAIhipGKOCG:  Solving for p, Initial residual = 0.622925, Final residual = 7.07697e-05, No Iterations 421
[INFO] SolveP: 618.361 [ms]
time step continuity errors : sum local = 6.96587e-09, global = -3.0936e-21, cumulative = -1.13401e-20
[INFO] ContinuityError: 8.125 [ms]
[INFO] CorrectBoundary: 0.249 [ms]
[INFO] PISOStep: 742.802 [ms]
[INFO] TimeStep: 2072.43 [ms]
ExecutionTime = 20.09 s  ClockTime = 18 s

Time = 0.00175

Courant Number mean: 0.0395541 max: 0.477501
[INFO] MatrixAssemblyU: 60.211 [ms]
DILUPBiCGStab:  Solving for Ux, Initial residual = 0.0174369, Final residual = 0.000513024, No Iterations 5
DILUPBiCGStab:  Solving for Uy, Initial residual = 0.0490687, Final residual = 0.00179758, No Iterations 5
DILUPBiCGStab:  Solving for Uz, Initial residual = 0.261292, Final residual = 0.00784423, No Iterations 5
[INFO] MomentumPredictor: 510.911 [ms]
[INFO] MatrixAssemblyPI: 67.872 [ms]
[INFO] AdjustPhi: 4.558 [ms]
[INFO] ConstrainPressure: 0.004 [ms]
[INFO] MatrixAssemblyPII: 20.038 [ms]
[OGL LOG][Proc: 0]: global_index_init: 0.203 [ms]
[OGL LOG][Proc: 0]p_local_coeffs: call_update: 0 [ms]
[OGL LOG][Proc: 0]p_non_local_coeffs: call_update: 0 [ms]
[OGL LOG][Proc: 0]p: update_local_matrix_data: 14.424 [ms]
[OGL LOG][Proc: 0]p: update_non_local_matrix_data: 0.099 [ms]
[OGL LOG][Proc: 0]p: regenerate_distributed_matrix: 38.697 [ms]
[OGL LOG][Proc: 0]p_matrix: call_update: 39.56 [ms]
[OGL LOG][Proc: 0]p_rhs: call_update: 5.477 [ms]
[OGL LOG][Preconditioner.H:271] Generate preconditioner GISAI SparsityPower 1
[OGL LOG][Proc: 0]p: init_precond: 68.433 [ms]
[OGL LOG][StoppingCriterion.H:237] Creating stopping criterion with minIter 252 frequency 7
[OGL LOG][Proc: 0]p: generate_solver: 0.002 [ms]
[OGL LOG][Proc: 0]p: solve: 946.339 [ms]
[OGL LOG][Proc: 0]p: copy_x_back: 1.467 [ms]
[OGL LOG][lduLduBase.H:330] 
Statistics:
	Time per iteration: 1106 [mu s]
	Time per residual norm calculation: 295.000000 [mu s]
	Time per iteration and DOF: 0.138250 [ns]
	Retrieve results bandwidth 2.726000 [GByte/s]
[OGL LOG][Proc: 0]p: solve_multi_gpu: 1063.57 [ms]
GISAIhipGKOCG:  Solving for p, Initial residual = 0.679394, Final residual = 9.92315e-05, No Iterations 855
[INFO] SolveP: 1080.5 [ms]
time step continuity errors : sum local = 7.72399e-09, global = -5.75629e-21, cumulative = -1.70964e-20
[INFO] ContinuityError: 7.188 [ms]
[INFO] CorrectBoundary: 0.213 [ms]
[INFO] PISOStep: 1207.04 [ms]
[INFO] MatrixAssemblyPI: 65.493 [ms]
[INFO] AdjustPhi: 5.102 [ms]
[INFO] ConstrainPressure: 0.007 [ms]
[INFO] MatrixAssemblyPII: 19.897 [ms]
[OGL LOG][Proc: 0]: global_index_init: 0.616 [ms]
[OGL LOG][Proc: 0]p_local_coeffs: call_update: 0 [ms]
[OGL LOG][Proc: 0]p_non_local_coeffs: call_update: 0 [ms]
[OGL LOG][Proc: 0]p: update_local_matrix_data: 14.175 [ms]
[OGL LOG][Proc: 0]p: update_non_local_matrix_data: 0.086 [ms]
[OGL LOG][Proc: 0]p: regenerate_distributed_matrix: 42.143 [ms]
[OGL LOG][Proc: 0]p_matrix: call_update: 42.967 [ms]
[OGL LOG][Proc: 0]p_rhs: call_update: 4.039 [ms]
[OGL LOG][Preconditioner.H:271] Generate preconditioner GISAI SparsityPower 1
[OGL LOG][Proc: 0]p: init_precond: 68.15 [ms]
[OGL LOG][StoppingCriterion.H:237] Creating stopping criterion with minIter 513 frequency 10
[OGL LOG][Proc: 0]p: generate_solver: 0.002 [ms]
[OGL LOG][Proc: 0]p: solve: 937.725 [ms]
[OGL LOG][Proc: 0]p: copy_x_back: 1.451 [ms]
[OGL LOG][lduLduBase.H:330] 
Statistics:
	Time per iteration: 1089 [mu s]
	Time per residual norm calculation: 295.000000 [mu s]
	Time per iteration and DOF: 0.136125 [ns]
	Retrieve results bandwidth 2.756000 [GByte/s]
[OGL LOG][Proc: 0]p: solve_multi_gpu: 1056.97 [ms]
GISAIhipGKOCG:  Solving for p, Initial residual = 0.620104, Final residual = 7.29631e-05, No Iterations 861
[INFO] SolveP: 1074.01 [ms]
time step continuity errors : sum local = 5.64992e-09, global = -1.33913e-22, cumulative = -1.72303e-20
[INFO] ContinuityError: 12.465 [ms]
[INFO] CorrectBoundary: 0.393 [ms]
[INFO] PISOStep: 1201.62 [ms]
[INFO] TimeStep: 2988.67 [ms]
ExecutionTime = 23.49 s  ClockTime = 21 s

Time = 0.002

Courant Number mean: 0.0420791 max: 0.479205
[INFO] MatrixAssemblyU: 57.486 [ms]
DILUPBiCGStab:  Solving for Ux, Initial residual = 0.0143016, Final residual = 0.000394709, No Iterations 5
DILUPBiCGStab:  Solving for Uy, Initial residual = 0.0417886, Final residual = 0.0013851, No Iterations 5
DILUPBiCGStab:  Solving for Uz, Initial residual = 0.203949, Final residual = 0.00603306, No Iterations 5
[INFO] MomentumPredictor: 530.945 [ms]
[INFO] MatrixAssemblyPI: 67.61 [ms]
[INFO] AdjustPhi: 9.264 [ms]
[INFO] ConstrainPressure: 0.004 [ms]
[INFO] MatrixAssemblyPII: 19.877 [ms]
[OGL LOG][Proc: 0]: global_index_init: 0.378 [ms]
[OGL LOG][Proc: 0]p_local_coeffs: call_update: 0 [ms]
[OGL LOG][Proc: 0]p_non_local_coeffs: call_update: 0 [ms]
[OGL LOG][Proc: 0]p: update_local_matrix_data: 13.616 [ms]
[OGL LOG][Proc: 0]p: update_non_local_matrix_data: 0.1 [ms]
[OGL LOG][Proc: 0]p: regenerate_distributed_matrix: 40.928 [ms]
[OGL LOG][Proc: 0]p_matrix: call_update: 41.754 [ms]
[OGL LOG][Proc: 0]p_rhs: call_update: 5.036 [ms]
[OGL LOG][Preconditioner.H:271] Generate preconditioner GISAI SparsityPower 1
[OGL LOG][Proc: 0]p: init_precond: 68.008 [ms]
[OGL LOG][StoppingCriterion.H:237] Creating stopping criterion with minIter 516 frequency 10
[OGL LOG][Proc: 0]p: generate_solver: 0.002 [ms]
[OGL LOG][Proc: 0]p: solve: 925.42 [ms]
[OGL LOG][Proc: 0]p: copy_x_back: 1.414 [ms]
[OGL LOG][lduLduBase.H:330] 
Statistics:
	Time per iteration: 1074 [mu s]
	Time per residual norm calculation: 306.000000 [mu s]
	Time per iteration and DOF: 0.134250 [ns]
	Retrieve results bandwidth 2.828000 [GByte/s]
[OGL LOG][Proc: 0]p: solve_multi_gpu: 1045.09 [ms]
GISAIhipGKOCG:  Solving for p, Initial residual = 0.588237, Final residual = 7.50534e-05, No Iterations 861
[INFO] SolveP: 1061.47 [ms]
time step continuity errors : sum local = 5.55718e-09, global = -1.98036e-21, cumulative = -1.92107e-20
[INFO] ContinuityError: 8.075 [ms]
[INFO] CorrectBoundary: 0.322 [ms]
[INFO] PISOStep: 1193.95 [ms]
[INFO] MatrixAssemblyPI: 65.687 [ms]
[INFO] AdjustPhi: 7.127 [ms]
[INFO] ConstrainPressure: 0.01 [ms]
[INFO] MatrixAssemblyPII: 20.039 [ms]
[OGL LOG][Proc: 0]: global_index_init: 0.222 [ms]
[OGL LOG][Proc: 0]p_local_coeffs: call_update: 0 [ms]
[OGL LOG][Proc: 0]p_non_local_coeffs: call_update: 0 [ms]
[OGL LOG][Proc: 0]p: update_local_matrix_data: 13.741 [ms]
[OGL LOG][Proc: 0]p: update_non_local_matrix_data: 0.136 [ms]
[OGL LOG][Proc: 0]p: regenerate_distributed_matrix: 48.783 [ms]
[OGL LOG][Proc: 0]p_matrix: call_update: 49.621 [ms]
[OGL LOG][Proc: 0]p_rhs: call_update: 2.476 [ms]
[OGL LOG][Preconditioner.H:271] Generate preconditioner GISAI SparsityPower 1
[OGL LOG][Proc: 0]p: init_precond: 68.337 [ms]
[OGL LOG][StoppingCriterion.H:237] Creating stopping criterion with minIter 516 frequency 10
[OGL LOG][Proc: 0]p: generate_solver: 0.003 [ms]
[OGL LOG][Proc: 0]p: solve: 901.241 [ms]
[OGL LOG][Proc: 0]p: copy_x_back: 1.442 [ms]
[OGL LOG][lduLduBase.H:330] 
Statistics:
	Time per iteration: 1046 [mu s]
	Time per residual norm calculation: 296.000000 [mu s]
	Time per iteration and DOF: 0.130750 [ns]
	Retrieve results bandwidth 2.773000 [GByte/s]
[OGL LOG][Proc: 0]p: solve_multi_gpu: 1026.25 [ms]
GISAIhipGKOCG:  Solving for p, Initial residual = 0.531012, Final residual = 7.68462e-05, No Iterations 861
[INFO] SolveP: 1043.05 [ms]
time step continuity errors : sum local = 5.67669e-09, global = -2.62517e-21, cumulative = -2.18359e-20
[INFO] ContinuityError: 7.847 [ms]
[INFO] CorrectBoundary: 0.417 [ms]
[INFO] PISOStep: 1169.13 [ms]
[INFO] TimeStep: 2959.43 [ms]
ExecutionTime = 26.85 s  ClockTime = 24 s

Time = 0.00225

Courant Number mean: 0.0443649 max: 0.480355
[INFO] MatrixAssemblyU: 60.264 [ms]
DILUPBiCGStab:  Solving for Ux, Initial residual = 0.0125794, Final residual = 0.000325677, No Iterations 5
DILUPBiCGStab:  Solving for Uy, Initial residual = 0.033657, Final residual = 0.000983918, No Iterations 5
DILUPBiCGStab:  Solving for Uz, Initial residual = 0.164076, Final residual = 0.00559148, No Iterations 5
[INFO] MomentumPredictor: 518.59 [ms]
[INFO] MatrixAssemblyPI: 68.407 [ms]
[INFO] AdjustPhi: 4.543 [ms]
[INFO] ConstrainPressure: 0.004 [ms]
[INFO] MatrixAssemblyPII: 20.018 [ms]
[OGL LOG][Proc: 0]: global_index_init: 0.219 [ms]
[OGL LOG][Proc: 0]p_local_coeffs: call_update: 0 [ms]
[OGL LOG][Proc: 0]p_non_local_coeffs: call_update: 0 [ms]
[OGL LOG][Proc: 0]p: update_local_matrix_data: 19.243 [ms]
[OGL LOG][Proc: 0]p: update_non_local_matrix_data: 0.067 [ms]
[OGL LOG][Proc: 0]p: regenerate_distributed_matrix: 46.675 [ms]
[OGL LOG][Proc: 0]p_matrix: call_update: 47.562 [ms]
[OGL LOG][Proc: 0]p_rhs: call_update: 3.828 [ms]
[OGL LOG][Preconditioner.H:271] Generate preconditioner GISAI SparsityPower 1
[OGL LOG][Proc: 0]p: init_precond: 68.136 [ms]
[OGL LOG][StoppingCriterion.H:237] Creating stopping criterion with minIter 516 frequency 10
[OGL LOG][Proc: 0]p: generate_solver: 0.002 [ms]
[OGL LOG][Proc: 0]p: solve: 906.829 [ms]
[OGL LOG][Proc: 0]p: copy_x_back: 1.431 [ms]
[OGL LOG][lduLduBase.H:330] 
Statistics:
	Time per iteration: 1078 [mu s]
	Time per residual norm calculation: 295.000000 [mu s]
	Time per iteration and DOF: 0.134750 [ns]
	Retrieve results bandwidth 2.795000 [GByte/s]
[OGL LOG][Proc: 0]p: solve_multi_gpu: 1029.9 [ms]
GISAIhipGKOCG:  Solving for p, Initial residual = 0.575473, Final residual = 9.71327e-05, No Iterations 841
[INFO] SolveP: 1052.15 [ms]
time step continuity errors : sum local = 6.22932e-09, global = -1.57164e-23, cumulative = -2.18516e-20
[INFO] ContinuityError: 8.143 [ms]
[INFO] CorrectBoundary: 0.247 [ms]
[INFO] PISOStep: 1179.15 [ms]
[INFO] MatrixAssemblyPI: 66.565 [ms]
[INFO] AdjustPhi: 4.033 [ms]
[INFO] ConstrainPressure: 0.007 [ms]
[INFO] MatrixAssemblyPII: 20.044 [ms]
[OGL LOG][Proc: 0]: global_index_init: 0.246 [ms]
[OGL LOG][Proc: 0]p_local_coeffs: call_update: 0 [ms]
[OGL LOG][Proc: 0]p_non_local_coeffs: call_update: 0 [ms]
[OGL LOG][Proc: 0]p: update_local_matrix_data: 13.661 [ms]
[OGL LOG][Proc: 0]p: update_non_local_matrix_data: 0.095 [ms]
[OGL LOG][Proc: 0]p: regenerate_distributed_matrix: 37.993 [ms]
[OGL LOG][Proc: 0]p_matrix: call_update: 38.863 [ms]
[OGL LOG][Proc: 0]p_rhs: call_update: 4.354 [ms]
[OGL LOG][Preconditioner.H:271] Generate preconditioner GISAI SparsityPower 1
[OGL LOG][Proc: 0]p: init_precond: 67.868 [ms]
[OGL LOG][StoppingCriterion.H:237] Creating stopping criterion with minIter 504 frequency 10
[OGL LOG][Proc: 0]p: generate_solver: 0.003 [ms]
[OGL LOG][Proc: 0]p: solve: 913.159 [ms]
[OGL LOG][Proc: 0]p: copy_x_back: 1.458 [ms]
[OGL LOG][lduLduBase.H:330] 
Statistics:
	Time per iteration: 1085 [mu s]
	Time per residual norm calculation: 296.000000 [mu s]
	Time per iteration and DOF: 0.135625 [ns]
	Retrieve results bandwidth 2.743000 [GByte/s]
[OGL LOG][Proc: 0]p: solve_multi_gpu: 1029.01 [ms]
GISAIhipGKOCG:  Solving for p, Initial residual = 0.515045, Final residual = 9.77603e-05, No Iterations 841
[INFO] SolveP: 1045.43 [ms]
time step continuity errors : sum local = 6.26725e-09, global = -3.4717e-21, cumulative = -2.53233e-20
[INFO] ContinuityError: 8.179 [ms]
[INFO] CorrectBoundary: 0.227 [ms]
[INFO] PISOStep: 1169.29 [ms]
[INFO] TimeStep: 2935.6 [ms]
ExecutionTime = 30.17 s  ClockTime = 27 s

Time = 0.0025

Courant Number mean: 0.0464191 max: 0.48146
[INFO] MatrixAssemblyU: 59.858 [ms]
DILUPBiCGStab:  Solving for Ux, Initial residual = 0.0108274, Final residual = 0.00026233, No Iterations 5
DILUPBiCGStab:  Solving for Uy, Initial residual = 0.029489, Final residual = 0.000804499, No Iterations 5
DILUPBiCGStab:  Solving for Uz, Initial residual = 0.13272, Final residual = 0.00460813, No Iterations 5
[INFO] MomentumPredictor: 505.904 [ms]
[INFO] MatrixAssemblyPI: 67.937 [ms]
[INFO] AdjustPhi: 4.058 [ms]
[INFO] ConstrainPressure: 0.004 [ms]
[INFO] MatrixAssemblyPII: 19.774 [ms]
[OGL LOG][Proc: 0]: global_index_init: 0.23 [ms]
[OGL LOG][Proc: 0]p_local_coeffs: call_update: 0 [ms]
[OGL LOG][Proc: 0]p_non_local_coeffs: call_update: 0 [ms]
[OGL LOG][Proc: 0]p: update_local_matrix_data: 13.253 [ms]
[OGL LOG][Proc: 0]p: update_non_local_matrix_data: 0.079 [ms]
[OGL LOG][Proc: 0]p: regenerate_distributed_matrix: 39.515 [ms]
[OGL LOG][Proc: 0]p_matrix: call_update: 40.405 [ms]
[OGL LOG][Proc: 0]p_rhs: call_update: 4.32 [ms]
[OGL LOG][Preconditioner.H:271] Generate preconditioner GISAI SparsityPower 1
[OGL LOG][Proc: 0]p: init_precond: 69.115 [ms]
[OGL LOG][StoppingCriterion.H:237] Creating stopping criterion with minIter 504 frequency 10
[OGL LOG][Proc: 0]p: generate_solver: 0.002 [ms]
[OGL LOG][Proc: 0]p: solve: 869.28 [ms]
[OGL LOG][Proc: 0]p: copy_x_back: 1.451 [ms]
[OGL LOG][lduLduBase.H:330] 
Statistics:
	Time per iteration: 1046 [mu s]
	Time per residual norm calculation: 299.000000 [mu s]
	Time per iteration and DOF: 0.130750 [ns]
	Retrieve results bandwidth 2.756000 [GByte/s]
[OGL LOG][Proc: 0]p: solve_multi_gpu: 988.083 [ms]
GISAIhipGKOCG:  Solving for p, Initial residual = 0.498863, Final residual = 9.34845e-05, No Iterations 831
[INFO] SolveP: 1003.8 [ms]
time step continuity errors : sum local = 5.82054e-09, global = -1.68396e-21, cumulative = -2.70072e-20
[INFO] ContinuityError: 8.189 [ms]
[INFO] CorrectBoundary: 0.384 [ms]
[INFO] PISOStep: 1129.23 [ms]
[INFO] MatrixAssemblyPI: 65.944 [ms]
[INFO] AdjustPhi: 7.753 [ms]
[INFO] ConstrainPressure: 0.01 [ms]
[INFO] MatrixAssemblyPII: 20.107 [ms]
[OGL LOG][Proc: 0]: global_index_init: 0.055 [ms]
[OGL LOG][Proc: 0]p_local_coeffs: call_update: 0 [ms]
[OGL LOG][Proc: 0]p_non_local_coeffs: call_update: 0 [ms]
[OGL LOG][Proc: 0]p: update_local_matrix_data: 14.097 [ms]
[OGL LOG][Proc: 0]p: update_non_local_matrix_data: 0.109 [ms]
[OGL LOG][Proc: 0]p: regenerate_distributed_matrix: 44.005 [ms]
[OGL LOG][Proc: 0]p_matrix: call_update: 44.905 [ms]
[OGL LOG][Proc: 0]p_rhs: call_update: 4.127 [ms]
[OGL LOG][Preconditioner.H:271] Generate preconditioner GISAI SparsityPower 1
[OGL LOG][Proc: 0]p: init_precond: 67.69 [ms]
[OGL LOG][StoppingCriterion.H:237] Creating stopping criterion with minIter 498 frequency 10
[OGL LOG][Proc: 0]p: generate_solver: 0.002 [ms]
[OGL LOG][Proc: 0]p: solve: 933.542 [ms]
[OGL LOG][Proc: 0]p: copy_x_back: 1.353 [ms]
[OGL LOG][lduLduBase.H:330] 
Statistics:
	Time per iteration: 1096 [mu s]
	Time per residual norm calculation: 300.000000 [mu s]
	Time per iteration and DOF: 0.137000 [ns]
	Retrieve results bandwidth 2.956000 [GByte/s]
[OGL LOG][Proc: 0]p: solve_multi_gpu: 1054.71 [ms]
GISAIhipGKOCG:  Solving for p, Initial residual = 0.446474, Final residual = 6.99752e-05, No Iterations 851
[INFO] SolveP: 1071.13 [ms]
time step continuity errors : sum local = 4.33803e-09, global = -4.57941e-22, cumulative = -2.74652e-20
[INFO] ContinuityError: 10.433 [ms]
[INFO] CorrectBoundary: 0.282 [ms]
[INFO] PISOStep: 1201.37 [ms]
[INFO] TimeStep: 2906.34 [ms]
ExecutionTime = 33.47 s  ClockTime = 30 s

Time = 0.00275

Courant Number mean: 0.0483074 max: 0.482234
[INFO] MatrixAssemblyU: 58.303 [ms]
DILUPBiCGStab:  Solving for Ux, Initial residual = 0.00969614, Final residual = 0.000220381, No Iterations 5
DILUPBiCGStab:  Solving for Uy, Initial residual = 0.0249627, Final residual = 0.000584559, No Iterations 5
DILUPBiCGStab:  Solving for Uz, Initial residual = 0.111061, Final residual = 0.00432568, No Iterations 5
[INFO] MomentumPredictor: 511.965 [ms]
[INFO] MatrixAssemblyPI: 67.592 [ms]
[INFO] AdjustPhi: 4.849 [ms]
[INFO] ConstrainPressure: 0.009 [ms]
[INFO] MatrixAssemblyPII: 20.035 [ms]
[OGL LOG][Proc: 0]: global_index_init: 0.24 [ms]
[OGL LOG][Proc: 0]p_local_coeffs: call_update: 0 [ms]
[OGL LOG][Proc: 0]p_non_local_coeffs: call_update: 0 [ms]
[OGL LOG][Proc: 0]p: update_local_matrix_data: 13.239 [ms]
[OGL LOG][Proc: 0]p: update_non_local_matrix_data: 0.119 [ms]
[OGL LOG][Proc: 0]p: regenerate_distributed_matrix: 50.811 [ms]
[OGL LOG][Proc: 0]p_matrix: call_update: 51.729 [ms]
[OGL LOG][Proc: 0]p_rhs: call_update: 3.133 [ms]
[OGL LOG][Preconditioner.H:271] Generate preconditioner GISAI SparsityPower 1
[OGL LOG][Proc: 0]p: init_precond: 68.655 [ms]
[OGL LOG][StoppingCriterion.H:237] Creating stopping criterion with minIter 510 frequency 10
[OGL LOG][Proc: 0]p: generate_solver: 0.003 [ms]
[OGL LOG][Proc: 0]p: solve: 917.964 [ms]
[OGL LOG][Proc: 0]p: copy_x_back: 1.629 [ms]
[OGL LOG][lduLduBase.H:330] 
Statistics:
	Time per iteration: 1078 [mu s]
	Time per residual norm calculation: 292.000000 [mu s]
	Time per iteration and DOF: 0.134750 [ns]
	Retrieve results bandwidth 2.455000 [GByte/s]
[OGL LOG][Proc: 0]p: solve_multi_gpu: 1046.78 [ms]
GISAIhipGKOCG:  Solving for p, Initial residual = 0.474354, Final residual = 7.37712e-05, No Iterations 851
[INFO] SolveP: 1062.66 [ms]
time step continuity errors : sum local = 4.14713e-09, global = -4.56844e-21, cumulative = -3.20336e-20
[INFO] ContinuityError: 8.135 [ms]
[INFO] CorrectBoundary: 0.456 [ms]
[INFO] PISOStep: 1188.95 [ms]
[INFO] MatrixAssemblyPI: 64.523 [ms]
[INFO] AdjustPhi: 5.243 [ms]
[INFO] ConstrainPressure: 0.005 [ms]
[INFO] MatrixAssemblyPII: 20.325 [ms]
[OGL LOG][Proc: 0]: global_index_init: 0.286 [ms]
[OGL LOG][Proc: 0]p_local_coeffs: call_update: 0 [ms]
[OGL LOG][Proc: 0]p_non_local_coeffs: call_update: 0 [ms]
[OGL LOG][Proc: 0]p: update_local_matrix_data: 15.056 [ms]
[OGL LOG][Proc: 0]p: update_non_local_matrix_data: 0.105 [ms]
[OGL LOG][Proc: 0]p: regenerate_distributed_matrix: 39.343 [ms]
[OGL LOG][Proc: 0]p_matrix: call_update: 40.371 [ms]
[OGL LOG][Proc: 0]p_rhs: call_update: 4.889 [ms]
[OGL LOG][Preconditioner.H:271] Generate preconditioner GISAI SparsityPower 1
[OGL LOG][Proc: 0]p: init_precond: 67.976 [ms]
[OGL LOG][StoppingCriterion.H:237] Creating stopping criterion with minIter 510 frequency 10
[OGL LOG][Proc: 0]p: generate_solver: 0.002 [ms]
[OGL LOG][Proc: 0]p: solve: 902.719 [ms]
[OGL LOG][Proc: 0]p: copy_x_back: 2.131 [ms]
[OGL LOG][lduLduBase.H:330] 
Statistics:
	Time per iteration: 1060 [mu s]
	Time per residual norm calculation: 298.000000 [mu s]
	Time per iteration and DOF: 0.132500 [ns]
	Retrieve results bandwidth 1.877000 [GByte/s]
[OGL LOG][Proc: 0]p: solve_multi_gpu: 1019.78 [ms]
GISAIhipGKOCG:  Solving for p, Initial residual = 0.420381, Final residual = 5.88591e-05, No Iterations 851
[INFO] SolveP: 1037.32 [ms]
time step continuity errors : sum local = 3.31228e-09, global = -2.18962e-21, cumulative = -3.42232e-20
[INFO] ContinuityError: 7.718 [ms]
[INFO] CorrectBoundary: 0.288 [ms]
[INFO] PISOStep: 1160 [ms]
[INFO] TimeStep: 2927.17 [ms]
ExecutionTime = 36.79 s  ClockTime = 33 s

Time = 0.003

Courant Number mean: 0.0500404 max: 0.483023
[INFO] MatrixAssemblyU: 60.178 [ms]
DILUPBiCGStab:  Solving for Ux, Initial residual = 0.00860708, Final residual = 0.000183877, No Iterations 5
DILUPBiCGStab:  Solving for Uy, Initial residual = 0.0222997, Final residual = 0.000482641, No Iterations 5
DILUPBiCGStab:  Solving for Uz, Initial residual = 0.0926354, Final residual = 0.00365511, No Iterations 5
[INFO] MomentumPredictor: 532.651 [ms]
[INFO] MatrixAssemblyPI: 68.853 [ms]
[INFO] AdjustPhi: 5.355 [ms]
[INFO] ConstrainPressure: 0.004 [ms]
[INFO] MatrixAssemblyPII: 20.024 [ms]
[OGL LOG][Proc: 0]: global_index_init: 0.425 [ms]
[OGL LOG][Proc: 0]p_local_coeffs: call_update: 0 [ms]
[OGL LOG][Proc: 0]p_non_local_coeffs: call_update: 0 [ms]
[OGL LOG][Proc: 0]p: update_local_matrix_data: 14.824 [ms]
[OGL LOG][Proc: 0]p: update_non_local_matrix_data: 0.067 [ms]
[OGL LOG][Proc: 0]p: regenerate_distributed_matrix: 39.344 [ms]
[OGL LOG][Proc: 0]p_matrix: call_update: 40.274 [ms]
[OGL LOG][Proc: 0]p_rhs: call_update: 4.415 [ms]
[OGL LOG][Preconditioner.H:271] Generate preconditioner GISAI SparsityPower 1
[OGL LOG][Proc: 0]p: init_precond: 67.974 [ms]
[OGL LOG][StoppingCriterion.H:237] Creating stopping criterion with minIter 510 frequency 10
[OGL LOG][Proc: 0]p: generate_solver: 0.002 [ms]
[OGL LOG][Proc: 0]p: solve: 881.835 [ms]
[OGL LOG][Proc: 0]p: copy_x_back: 1.414 [ms]
[OGL LOG][lduLduBase.H:330] 
Statistics:
	Time per iteration: 1048 [mu s]
	Time per residual norm calculation: 303.000000 [mu s]
	Time per iteration and DOF: 0.131000 [ns]
	Retrieve results bandwidth 2.828000 [GByte/s]
[OGL LOG][Proc: 0]p: solve_multi_gpu: 998.605 [ms]
GISAIhipGKOCG:  Solving for p, Initial residual = 0.417169, Final residual = 9.14224e-05, No Iterations 841
[INFO] SolveP: 1016.57 [ms]
time step continuity errors : sum local = 4.99408e-09, global = 2.10181e-22, cumulative = -3.40131e-20
[INFO] ContinuityError: 8.354 [ms]
[INFO] CorrectBoundary: 0.269 [ms]
[INFO] PISOStep: 1144.14 [ms]
[INFO] MatrixAssemblyPI: 65.573 [ms]
[INFO] AdjustPhi: 4.483 [ms]
[INFO] ConstrainPressure: 0.005 [ms]
[INFO] MatrixAssemblyPII: 20.034 [ms]
[OGL LOG][Proc: 0]: global_index_init: 0.556 [ms]
[OGL LOG][Proc: 0]p_local_coeffs: call_update: 0 [ms]
[OGL LOG][Proc: 0]p_non_local_coeffs: call_update: 0 [ms]
[OGL LOG][Proc: 0]p: update_local_matrix_data: 14.556 [ms]
[OGL LOG][Proc: 0]p: update_non_local_matrix_data: 0.102 [ms]
[OGL LOG][Proc: 0]p: regenerate_distributed_matrix: 42.036 [ms]
[OGL LOG][Proc: 0]p_matrix: call_update: 42.877 [ms]
[OGL LOG][Proc: 0]p_rhs: call_update: 2.13 [ms]
[OGL LOG][Preconditioner.H:271] Generate preconditioner GISAI SparsityPower 1
[OGL LOG][Proc: 0]p: init_precond: 67.959 [ms]
[OGL LOG][StoppingCriterion.H:237] Creating stopping criterion with minIter 504 frequency 10
[OGL LOG][Proc: 0]p: generate_solver: 0.003 [ms]
[OGL LOG][Proc: 0]p: solve: 913.796 [ms]
[OGL LOG][Proc: 0]p: copy_x_back: 1.402 [ms]
[OGL LOG][lduLduBase.H:330] 
Statistics:
	Time per iteration: 1086 [mu s]
	Time per residual norm calculation: 295.000000 [mu s]
	Time per iteration and DOF: 0.135750 [ns]
	Retrieve results bandwidth 2.853000 [GByte/s]
[OGL LOG][Proc: 0]p: solve_multi_gpu: 1030.59 [ms]
GISAIhipGKOCG:  Solving for p, Initial residual = 0.37078, Final residual = 9.34989e-05, No Iterations 841
[INFO] SolveP: 1048.52 [ms]
time step continuity errors : sum local = 5.0849e-09, global = -1.51484e-21, cumulative = -3.55279e-20
[INFO] ContinuityError: 8.342 [ms]
[INFO] CorrectBoundary: 0.32 [ms]
[INFO] PISOStep: 1172.71 [ms]
[INFO] TimeStep: 2917.8 [ms]
ExecutionTime = 40.1 s  ClockTime = 36 s

Time = 0.00325

Courant Number mean: 0.0516504 max: 0.483587
[INFO] MatrixAssemblyU: 60.138 [ms]
DILUPBiCGStab:  Solving for Ux, Initial residual = 0.00781035, Final residual = 0.000157033, No Iterations 5
DILUPBiCGStab:  Solving for Uy, Initial residual = 0.019521, Final residual = 0.000373252, No Iterations 5
DILUPBiCGStab:  Solving for Uz, Initial residual = 0.0790498, Final residual = 0.00339691, No Iterations 5
[INFO] MomentumPredictor: 516.62 [ms]
[INFO] MatrixAssemblyPI: 67.538 [ms]
[INFO] AdjustPhi: 4.868 [ms]
[INFO] ConstrainPressure: 0.004 [ms]
[INFO] MatrixAssemblyPII: 19.901 [ms]
[OGL LOG][Proc: 0]: global_index_init: 0.04 [ms]
[OGL LOG][Proc: 0]p_local_coeffs: call_update: 0 [ms]
[OGL LOG][Proc: 0]p_non_local_coeffs: call_update: 0 [ms]
[OGL LOG][Proc: 0]p: update_local_matrix_data: 16.373 [ms]
[OGL LOG][Proc: 0]p: update_non_local_matrix_data: 0.071 [ms]
[OGL LOG][Proc: 0]p: regenerate_distributed_matrix: 54.768 [ms]
[OGL LOG][Proc: 0]p_matrix: call_update: 55.669 [ms]
[OGL LOG][Proc: 0]p_rhs: call_update: 5.087 [ms]
[OGL LOG][Preconditioner.H:271] Generate preconditioner GISAI SparsityPower 1
[OGL LOG][Proc: 0]p: init_precond: 67.765 [ms]
[OGL LOG][StoppingCriterion.H:237] Creating stopping criterion with minIter 504 frequency 10
[OGL LOG][Proc: 0]p: generate_solver: 0.002 [ms]
[OGL LOG][Proc: 0]p: solve: 910.621 [ms]
[OGL LOG][Proc: 0]p: copy_x_back: 1.41 [ms]
[OGL LOG][lduLduBase.H:330] 
Statistics:
	Time per iteration: 1082 [mu s]
	Time per residual norm calculation: 299.000000 [mu s]
	Time per iteration and DOF: 0.135250 [ns]
	Retrieve results bandwidth 2.836000 [GByte/s]
[OGL LOG][Proc: 0]p: solve_multi_gpu: 1047.34 [ms]
GISAIhipGKOCG:  Solving for p, Initial residual = 0.386696, Final residual = 9.95184e-05, No Iterations 841
[INFO] SolveP: 1066.09 [ms]
time step continuity errors : sum local = 5.08105e-09, global = -2.68874e-21, cumulative = -3.82166e-20
[INFO] ContinuityError: 8.078 [ms]
[INFO] CorrectBoundary: 0.342 [ms]
[INFO] PISOStep: 1192.06 [ms]
[INFO] MatrixAssemblyPI: 65.486 [ms]
[INFO] AdjustPhi: 4.875 [ms]
[INFO] ConstrainPressure: 0.004 [ms]
[INFO] MatrixAssemblyPII: 20.219 [ms]
[OGL LOG][Proc: 0]: global_index_init: 0.38 [ms]
[OGL LOG][Proc: 0]p_local_coeffs: call_update: 0 [ms]
[OGL LOG][Proc: 0]p_non_local_coeffs: call_update: 0 [ms]
[OGL LOG][Proc: 0]p: update_local_matrix_data: 13.472 [ms]
[OGL LOG][Proc: 0]p: update_non_local_matrix_data: 0.096 [ms]
[OGL LOG][Proc: 0]p: regenerate_distributed_matrix: 40.506 [ms]
[OGL LOG][Proc: 0]p_matrix: call_update: 41.47 [ms]
[OGL LOG][Proc: 0]p_rhs: call_update: 3.573 [ms]
[OGL LOG][Preconditioner.H:271] Generate preconditioner GISAI SparsityPower 1
[OGL LOG][Proc: 0]p: init_precond: 67.878 [ms]
[OGL LOG][StoppingCriterion.H:237] Creating stopping criterion with minIter 504 frequency 10
[OGL LOG][Proc: 0]p: generate_solver: 0.003 [ms]
[OGL LOG][Proc: 0]p: solve: 904.253 [ms]
[OGL LOG][Proc: 0]p: copy_x_back: 1.386 [ms]
[OGL LOG][lduLduBase.H:330] 
Statistics:
	Time per iteration: 1062 [mu s]
	Time per residual norm calculation: 294.000000 [mu s]
	Time per iteration and DOF: 0.132750 [ns]
	Retrieve results bandwidth 2.886000 [GByte/s]
[OGL LOG][Proc: 0]p: solve_multi_gpu: 1021.82 [ms]
GISAIhipGKOCG:  Solving for p, Initial residual = 0.340688, Final residual = 6.27204e-05, No Iterations 851
[INFO] SolveP: 1038.73 [ms]
time step continuity errors : sum local = 3.20641e-09, global = -2.28603e-21, cumulative = -4.05027e-20
[INFO] ContinuityError: 7.942 [ms]
[INFO] CorrectBoundary: 0.229 [ms]
[INFO] PISOStep: 1162.39 [ms]
[INFO] TimeStep: 2939.46 [ms]
ExecutionTime = 43.44 s  ClockTime = 39 s

Time = 0.0035

Courant Number mean: 0.0531454 max: 0.484182
[INFO] MatrixAssemblyU: 60.263 [ms]
DILUPBiCGStab:  Solving for Ux, Initial residual = 0.00707771, Final residual = 0.000134801, No Iterations 5
DILUPBiCGStab:  Solving for Uy, Initial residual = 0.0177009, Final residual = 0.000308095, No Iterations 5
DILUPBiCGStab:  Solving for Uz, Initial residual = 0.0681953, Final residual = 0.00295377, No Iterations 5
[INFO] MomentumPredictor: 507.345 [ms]
[INFO] MatrixAssemblyPI: 66.065 [ms]
[INFO] AdjustPhi: 6.608 [ms]
[INFO] ConstrainPressure: 0.004 [ms]
[INFO] MatrixAssemblyPII: 19.511 [ms]
[OGL LOG][Proc: 0]: global_index_init: 0.452 [ms]
[OGL LOG][Proc: 0]p_local_coeffs: call_update: 0 [ms]
[OGL LOG][Proc: 0]p_non_local_coeffs: call_update: 0 [ms]
[OGL LOG][Proc: 0]p: update_local_matrix_data: 12.516 [ms]
[OGL LOG][Proc: 0]p: update_non_local_matrix_data: 0.111 [ms]
[OGL LOG][Proc: 0]p: regenerate_distributed_matrix: 39.381 [ms]
[OGL LOG][Proc: 0]p_matrix: call_update: 40.235 [ms]
[OGL LOG][Proc: 0]p_rhs: call_update: 4.123 [ms]
[OGL LOG][Preconditioner.H:271] Generate preconditioner GISAI SparsityPower 1
[OGL LOG][Proc: 0]p: init_precond: 68.983 [ms]
[OGL LOG][StoppingCriterion.H:237] Creating stopping criterion with minIter 510 frequency 10
[OGL LOG][Proc: 0]p: generate_solver: 0.003 [ms]
[OGL LOG][Proc: 0]p: solve: 925.456 [ms]
[OGL LOG][Proc: 0]p: copy_x_back: 1.404 [ms]
[OGL LOG][lduLduBase.H:330] 
Statistics:
	Time per iteration: 1087 [mu s]
	Time per residual norm calculation: 295.000000 [mu s]
	Time per iteration and DOF: 0.135875 [ns]
	Retrieve results bandwidth 2.849000 [GByte/s]
[OGL LOG][Proc: 0]p: solve_multi_gpu: 1045.26 [ms]
GISAIhipGKOCG:  Solving for p, Initial residual = 0.344748, Final residual = 6.54028e-05, No Iterations 851
[INFO] SolveP: 1060.65 [ms]
time step continuity errors : sum local = 3.23109e-09, global = -3.18585e-21, cumulative = -4.36885e-20
[INFO] ContinuityError: 9.034 [ms]
[INFO] CorrectBoundary: 0.237 [ms]
[INFO] PISOStep: 1191.88 [ms]
[INFO] MatrixAssemblyPI: 64.736 [ms]
[INFO] AdjustPhi: 4.908 [ms]
[INFO] ConstrainPressure: 0.004 [ms]
[INFO] MatrixAssemblyPII: 20.131 [ms]
[OGL LOG][Proc: 0]: global_index_init: 0.083 [ms]
[OGL LOG][Proc: 0]p_local_coeffs: call_update: 0 [ms]
[OGL LOG][Proc: 0]p_non_local_coeffs: call_update: 0 [ms]
[OGL LOG][Proc: 0]p: update_local_matrix_data: 13.699 [ms]
[OGL LOG][Proc: 0]p: update_non_local_matrix_data: 0.087 [ms]
[OGL LOG][Proc: 0]p: regenerate_distributed_matrix: 39.814 [ms]
[OGL LOG][Proc: 0]p_matrix: call_update: 40.688 [ms]
[OGL LOG][Proc: 0]p_rhs: call_update: 3.853 [ms]
[OGL LOG][Preconditioner.H:271] Generate preconditioner GISAI SparsityPower 1
[OGL LOG][Proc: 0]p: init_precond: 68.326 [ms]
[OGL LOG][StoppingCriterion.H:237] Creating stopping criterion with minIter 510 frequency 10
[OGL LOG][Proc: 0]p: generate_solver: 0.002 [ms]
[OGL LOG][Proc: 0]p: solve: 893.839 [ms]
[OGL LOG][Proc: 0]p: copy_x_back: 1.392 [ms]
[OGL LOG][lduLduBase.H:330] 
Statistics:
	Time per iteration: 1062 [mu s]
	Time per residual norm calculation: 299.000000 [mu s]
	Time per iteration and DOF: 0.132750 [ns]
	Retrieve results bandwidth 2.873000 [GByte/s]
[OGL LOG][Proc: 0]p: solve_multi_gpu: 1011.18 [ms]
GISAIhipGKOCG:  Solving for p, Initial residual = 0.305324, Final residual = 9.0997e-05, No Iterations 841
[INFO] SolveP: 1027.94 [ms]
time step continuity errors : sum local = 4.47777e-09, global = -4.86431e-21, cumulative = -4.85528e-20
[INFO] ContinuityError: 7.829 [ms]
[INFO] CorrectBoundary: 0.504 [ms]
[INFO] PISOStep: 1150.83 [ms]
[INFO] TimeStep: 2922.29 [ms]
ExecutionTime = 46.76 s  ClockTime = 42 s

Time = 0.00375

Courant Number mean: 0.0545471 max: 0.484621
[INFO] MatrixAssemblyU: 59.595 [ms]
DILUPBiCGStab:  Solving for Ux, Initial residual = 0.0064891, Final residual = 0.000116785, No Iterations 5
DILUPBiCGStab:  Solving for Uy, Initial residual = 0.0158595, Final residual = 0.000257299, No Iterations 5
DILUPBiCGStab:  Solving for Uz, Initial residual = 0.0589714, Final residual = 0.00269714, No Iterations 5
[INFO] MomentumPredictor: 517.261 [ms]
[INFO] MatrixAssemblyPI: 71.712 [ms]
[INFO] AdjustPhi: 3.599 [ms]
[INFO] ConstrainPressure: 0.005 [ms]
[INFO] MatrixAssemblyPII: 20.853 [ms]
[OGL LOG][Proc: 0]: global_index_init: 0.486 [ms]
[OGL LOG][Proc: 0]p_local_coeffs: call_update: 0 [ms]
[OGL LOG][Proc: 0]p_non_local_coeffs: call_update: 0 [ms]
[OGL LOG][Proc: 0]p: update_local_matrix_data: 14.411 [ms]
[OGL LOG][Proc: 0]p: update_non_local_matrix_data: 0.069 [ms]
[OGL LOG][Proc: 0]p: regenerate_distributed_matrix: 52.035 [ms]
[OGL LOG][Proc: 0]p_matrix: call_update: 52.926 [ms]
[OGL LOG][Proc: 0]p_rhs: call_update: 4.377 [ms]
[OGL LOG][Preconditioner.H:271] Generate preconditioner GISAI SparsityPower 1
[OGL LOG][Proc: 0]p: init_precond: 68.185 [ms]
[OGL LOG][StoppingCriterion.H:237] Creating stopping criterion with minIter 504 frequency 10
[OGL LOG][Proc: 0]p: generate_solver: 0.002 [ms]
[OGL LOG][Proc: 0]p: solve: 892.393 [ms]
[OGL LOG][Proc: 0]p: copy_x_back: 1.405 [ms]
[OGL LOG][lduLduBase.H:330] 
Statistics:
	Time per iteration: 1061 [mu s]
	Time per residual norm calculation: 294.000000 [mu s]
	Time per iteration and DOF: 0.132625 [ns]
	Retrieve results bandwidth 2.846000 [GByte/s]
[OGL LOG][Proc: 0]p: solve_multi_gpu: 1022.07 [ms]
GISAIhipGKOCG:  Solving for p, Initial residual = 0.31236, Final residual = 9.89239e-05, No Iterations 841
[INFO] SolveP: 1039.68 [ms]
time step continuity errors : sum local = 4.68859e-09, global = -2.98084e-21, cumulative = -5.15337e-20
[INFO] ContinuityError: 8.017 [ms]
[INFO] CorrectBoundary: 0.351 [ms]
[INFO] PISOStep: 1168.86 [ms]
[INFO] MatrixAssemblyPI: 65.929 [ms]
[INFO] AdjustPhi: 5.015 [ms]
[INFO] ConstrainPressure: 0.004 [ms]
[INFO] MatrixAssemblyPII: 19.979 [ms]
[OGL LOG][Proc: 0]: global_index_init: 0.278 [ms]
[OGL LOG][Proc: 0]p_local_coeffs: call_update: 0 [ms]
[OGL LOG][Proc: 0]p_non_local_coeffs: call_update: 0 [ms]
[OGL LOG][Proc: 0]p: update_local_matrix_data: 15.967 [ms]
[OGL LOG][Proc: 0]p: update_non_local_matrix_data: 0.081 [ms]
[OGL LOG][Proc: 0]p: regenerate_distributed_matrix: 38.809 [ms]
[OGL LOG][Proc: 0]p_matrix: call_update: 39.661 [ms]
[OGL LOG][Proc: 0]p_rhs: call_update: 4.176 [ms]
[OGL LOG][Preconditioner.H:271] Generate preconditioner GISAI SparsityPower 1
[OGL LOG][Proc: 0]p: init_precond: 67.762 [ms]
[OGL LOG][StoppingCriterion.H:237] Creating stopping criterion with minIter 504 frequency 10
[OGL LOG][Proc: 0]p: generate_solver: 0.003 [ms]
[OGL LOG][Proc: 0]p: solve: 904.1 [ms]
[OGL LOG][Proc: 0]p: copy_x_back: 1.44 [ms]
[OGL LOG][lduLduBase.H:330] 
Statistics:
	Time per iteration: 1075 [mu s]
	Time per residual norm calculation: 295.000000 [mu s]
	Time per iteration and DOF: 0.134375 [ns]
	Retrieve results bandwidth 2.777000 [GByte/s]
[OGL LOG][Proc: 0]p: solve_multi_gpu: 1020.55 [ms]
GISAIhipGKOCG:  Solving for p, Initial residual = 0.27451, Final residual = 8.37128e-05, No Iterations 841
[INFO] SolveP: 1039.68 [ms]
time step continuity errors : sum local = 3.97201e-09, global = -2.28903e-22, cumulative = -5.17626e-20
[INFO] ContinuityError: 8.757 [ms]
[INFO] CorrectBoundary: 0.36 [ms]
[INFO] PISOStep: 1164.65 [ms]
[INFO] TimeStep: 2918.28 [ms]
ExecutionTime = 50.06 s  ClockTime = 45 s

Time = 0.004

Courant Number mean: 0.0558603 max: 0.485085
[INFO] MatrixAssemblyU: 59.289 [ms]
DILUPBiCGStab:  Solving for Ux, Initial residual = 0.00596667, Final residual = 0.000102533, No Iterations 5
DILUPBiCGStab:  Solving for Uy, Initial residual = 0.0145544, Final residual = 0.000216091, No Iterations 5
DILUPBiCGStab:  Solving for Uz, Initial residual = 0.0520231, Final residual = 0.00236589, No Iterations 5
[INFO] MomentumPredictor: 506.443 [ms]
[INFO] MatrixAssemblyPI: 67.822 [ms]
[INFO] AdjustPhi: 5.178 [ms]
[INFO] ConstrainPressure: 0.004 [ms]
[INFO] MatrixAssemblyPII: 19.962 [ms]
[OGL LOG][Proc: 0]: global_index_init: 0.233 [ms]
[OGL LOG][Proc: 0]p_local_coeffs: call_update: 0 [ms]
[OGL LOG][Proc: 0]p_non_local_coeffs: call_update: 0 [ms]
[OGL LOG][Proc: 0]p: update_local_matrix_data: 14.877 [ms]
[OGL LOG][Proc: 0]p: update_non_local_matrix_data: 0.074 [ms]
[OGL LOG][Proc: 0]p: regenerate_distributed_matrix: 40.773 [ms]
[OGL LOG][Proc: 0]p_matrix: call_update: 41.747 [ms]
[OGL LOG][Proc: 0]p_rhs: call_update: 5.012 [ms]
[OGL LOG][Preconditioner.H:271] Generate preconditioner GISAI SparsityPower 1
[OGL LOG][Proc: 0]p: init_precond: 67.839 [ms]
[OGL LOG][StoppingCriterion.H:237] Creating stopping criterion with minIter 504 frequency 10
[OGL LOG][Proc: 0]p: generate_solver: 0.002 [ms]
[OGL LOG][Proc: 0]p: solve: 887.378 [ms]
[OGL LOG][Proc: 0]p: copy_x_back: 1.399 [ms]
[OGL LOG][lduLduBase.H:330] 
Statistics:
	Time per iteration: 1055 [mu s]
	Time per residual norm calculation: 299.000000 [mu s]
	Time per iteration and DOF: 0.131875 [ns]
	Retrieve results bandwidth 2.859000 [GByte/s]
[OGL LOG][Proc: 0]p: solve_multi_gpu: 1005.5 [ms]
GISAIhipGKOCG:  Solving for p, Initial residual = 0.281824, Final residual = 9.05224e-05, No Iterations 841
[INFO] SolveP: 1023.23 [ms]
time step continuity errors : sum local = 4.13586e-09, global = -4.95424e-21, cumulative = -5.67168e-20
[INFO] ContinuityError: 10.912 [ms]
[INFO] CorrectBoundary: 0.315 [ms]
[INFO] PISOStep: 1151.85 [ms]
[INFO] MatrixAssemblyPI: 64.924 [ms]
[INFO] AdjustPhi: 8.101 [ms]
[INFO] ConstrainPressure: 0.009 [ms]
[INFO] MatrixAssemblyPII: 19.529 [ms]
[OGL LOG][Proc: 0]: global_index_init: 0.685 [ms]
[OGL LOG][Proc: 0]p_local_coeffs: call_update: 0 [ms]
[OGL LOG][Proc: 0]p_non_local_coeffs: call_update: 0 [ms]
[OGL LOG][Proc: 0]p: update_local_matrix_data: 13.467 [ms]
[OGL LOG][Proc: 0]p: update_non_local_matrix_data: 0.07 [ms]
[OGL LOG][Proc: 0]p: regenerate_distributed_matrix: 40.874 [ms]
[OGL LOG][Proc: 0]p_matrix: call_update: 41.791 [ms]
[OGL LOG][Proc: 0]p_rhs: call_update: 3.234 [ms]
[OGL LOG][Preconditioner.H:271] Generate preconditioner GISAI SparsityPower 1
[OGL LOG][Proc: 0]p: init_precond: 68.217 [ms]
[OGL LOG][StoppingCriterion.H:237] Creating stopping criterion with minIter 504 frequency 10
[OGL LOG][Proc: 0]p: generate_solver: 0.002 [ms]
[OGL LOG][Proc: 0]p: solve: 908.908 [ms]
[OGL LOG][Proc: 0]p: copy_x_back: 1.439 [ms]
[OGL LOG][lduLduBase.H:330] 
Statistics:
	Time per iteration: 1080 [mu s]
	Time per residual norm calculation: 287.000000 [mu s]
	Time per iteration and DOF: 0.135000 [ns]
	Retrieve results bandwidth 2.779000 [GByte/s]
[OGL LOG][Proc: 0]p: solve_multi_gpu: 1026.87 [ms]
GISAIhipGKOCG:  Solving for p, Initial residual = 0.248842, Final residual = 7.88592e-05, No Iterations 841
[INFO] SolveP: 1043.55 [ms]
time step continuity errors : sum local = 3.5914e-09, global = -3.41349e-21, cumulative = -6.01303e-20
[INFO] ContinuityError: 9.104 [ms]
[INFO] CorrectBoundary: 0.377 [ms]
[INFO] PISOStep: 1171.59 [ms]
[INFO] TimeStep: 2897.01 [ms]
ExecutionTime = 53.35 s  ClockTime = 48 s

Time = 0.00425

Courant Number mean: 0.0570983 max: 0.485442
[INFO] MatrixAssemblyU: 59.236 [ms]
DILUPBiCGStab:  Solving for Ux, Initial residual = 0.00551673, Final residual = 8.99029e-05, No Iterations 5
DILUPBiCGStab:  Solving for Uy, Initial residual = 0.0132576, Final residual = 0.000192613, No Iterations 5
DILUPBiCGStab:  Solving for Uz, Initial residual = 0.0455739, Final residual = 0.00212144, No Iterations 5
[INFO] MomentumPredictor: 521.104 [ms]
[INFO] MatrixAssemblyPI: 65.799 [ms]
[INFO] AdjustPhi: 9.243 [ms]
[INFO] ConstrainPressure: 0.006 [ms]
[INFO] MatrixAssemblyPII: 19.973 [ms]
[OGL LOG][Proc: 0]: global_index_init: 0.539 [ms]
[OGL LOG][Proc: 0]p_local_coeffs: call_update: 0 [ms]
[OGL LOG][Proc: 0]p_non_local_coeffs: call_update: 0 [ms]
[OGL LOG][Proc: 0]p: update_local_matrix_data: 15.089 [ms]
[OGL LOG][Proc: 0]p: update_non_local_matrix_data: 0.097 [ms]
[OGL LOG][Proc: 0]p: regenerate_distributed_matrix: 41.284 [ms]
[OGL LOG][Proc: 0]p_matrix: call_update: 44.35 [ms]
[OGL LOG][Proc: 0]p_rhs: call_update: 7.692 [ms]
[OGL LOG][Preconditioner.H:271] Generate preconditioner GISAI SparsityPower 1
[OGL LOG][Proc: 0]p: init_precond: 68.785 [ms]
[OGL LOG][StoppingCriterion.H:237] Creating stopping criterion with minIter 504 frequency 10
[OGL LOG][Proc: 0]p: generate_solver: 0.003 [ms]
[OGL LOG][Proc: 0]p: solve: 536.213 [ms]
[OGL LOG][Proc: 0]p: copy_x_back: 1.403 [ms]
[OGL LOG][lduLduBase.H:330] 
Statistics:
	Time per iteration: 1049 [mu s]
	Time per residual norm calculation: 310.000000 [mu s]
	Time per iteration and DOF: 0.131125 [ns]
	Retrieve results bandwidth 2.851000 [GByte/s]
[OGL LOG][Proc: 0]p: solve_multi_gpu: 660.949 [ms]
GISAIhipGKOCG:  Solving for p, Initial residual = 0.251605, Final residual = 7.38671e-05, No Iterations 511
[INFO] SolveP: 679.513 [ms]
time step continuity errors : sum local = 3.45458e-09, global = -3.38184e-21, cumulative = -6.35121e-20
[INFO] ContinuityError: 8.199 [ms]
[INFO] CorrectBoundary: 0.28 [ms]
[INFO] PISOStep: 808.261 [ms]
[INFO] MatrixAssemblyPI: 64.272 [ms]
[INFO] AdjustPhi: 5.513 [ms]
[INFO] ConstrainPressure: 0.004 [ms]
[INFO] MatrixAssemblyPII: 19.799 [ms]
[OGL LOG][Proc: 0]: global_index_init: 0.137 [ms]
[OGL LOG][Proc: 0]p_local_coeffs: call_update: 0 [ms]
[OGL LOG][Proc: 0]p_non_local_coeffs: call_update: 0 [ms]
[OGL LOG][Proc: 0]p: update_local_matrix_data: 14.395 [ms]
[OGL LOG][Proc: 0]p: update_non_local_matrix_data: 0.077 [ms]
[OGL LOG][Proc: 0]p: regenerate_distributed_matrix: 45.187 [ms]
[OGL LOG][Proc: 0]p_matrix: call_update: 46.088 [ms]
[OGL LOG][Proc: 0]p_rhs: call_update: 3.919 [ms]
[OGL LOG][Preconditioner.H:271] Generate preconditioner GISAI SparsityPower 1
[OGL LOG][Proc: 0]p: init_precond: 68.173 [ms]
[OGL LOG][StoppingCriterion.H:237] Creating stopping criterion with minIter 306 frequency 8
[OGL LOG][Proc: 0]p: generate_solver: 0.002 [ms]
[OGL LOG][Proc: 0]p: solve: 396.388 [ms]
[OGL LOG][Proc: 0]p: copy_x_back: 1.402 [ms]
[OGL LOG][lduLduBase.H:330] 
Statistics:
	Time per iteration: 1074 [mu s]
	Time per residual norm calculation: 296.000000 [mu s]
	Time per iteration and DOF: 0.134250 [ns]
	Retrieve results bandwidth 2.853000 [GByte/s]
[OGL LOG][Proc: 0]p: solve_multi_gpu: 523.951 [ms]
GISAIhipGKOCG:  Solving for p, Initial residual = 0.220602, Final residual = 9.13034e-05, No Iterations 369
[INFO] SolveP: 541.519 [ms]
time step continuity errors : sum local = 4.13507e-09, global = -5.1847e-21, cumulative = -6.86968e-20
[INFO] ContinuityError: 7.71 [ms]
[INFO] CorrectBoundary: 0.489 [ms]
[INFO] PISOStep: 664.379 [ms]
[INFO] TimeStep: 2061.31 [ms]
ExecutionTime = 55.61 s  ClockTime = 50 s

Time = 0.0045

Courant Number mean: 0.0582668 max: 0.485813
[INFO] MatrixAssemblyU: 58.119 [ms]
DILUPBiCGStab:  Solving for Ux, Initial residual = 0.00512924, Final residual = 8.0321e-05, No Iterations 5
DILUPBiCGStab:  Solving for Uy, Initial residual = 0.012286, Final residual = 0.000166492, No Iterations 5
DILUPBiCGStab:  Solving for Uz, Initial residual = 0.0410296, Final residual = 0.00186685, No Iterations 5
[INFO] MomentumPredictor: 512.925 [ms]
[INFO] MatrixAssemblyPI: 67.543 [ms]
[INFO] AdjustPhi: 4.445 [ms]
[INFO] ConstrainPressure: 0.004 [ms]
[INFO] MatrixAssemblyPII: 19.779 [ms]
[OGL LOG][Proc: 0]: global_index_init: 0.475 [ms]
[OGL LOG][Proc: 0]p_local_coeffs: call_update: 0 [ms]
[OGL LOG][Proc: 0]p_non_local_coeffs: call_update: 0 [ms]
[OGL LOG][Proc: 0]p: update_local_matrix_data: 13.647 [ms]
[OGL LOG][Proc: 0]p: update_non_local_matrix_data: 0.077 [ms]
[OGL LOG][Proc: 0]p: regenerate_distributed_matrix: 39.386 [ms]
[OGL LOG][Proc: 0]p_matrix: call_update: 40.261 [ms]
[OGL LOG][Proc: 0]p_rhs: call_update: 5.278 [ms]
[OGL LOG][Preconditioner.H:271] Generate preconditioner GISAI SparsityPower 1
[OGL LOG][Proc: 0]p: init_precond: 67.735 [ms]
[OGL LOG][StoppingCriterion.H:237] Creating stopping criterion with minIter 221 frequency 7
[OGL LOG][Proc: 0]p: generate_solver: 0.003 [ms]
[OGL LOG][Proc: 0]p: solve: 429.774 [ms]
[OGL LOG][Proc: 0]p: copy_x_back: 1.393 [ms]
[OGL LOG][lduLduBase.H:330] 
Statistics:
	Time per iteration: 1155 [mu s]
	Time per residual norm calculation: 291.000000 [mu s]
	Time per iteration and DOF: 0.144375 [ns]
	Retrieve results bandwidth 2.871000 [GByte/s]
[OGL LOG][Proc: 0]p: solve_multi_gpu: 547.758 [ms]
GISAIhipGKOCG:  Solving for p, Initial residual = 0.228171, Final residual = 9.39965e-05, No Iterations 372
[INFO] SolveP: 564.186 [ms]
time step continuity errors : sum local = 4.43502e-09, global = -3.37914e-21, cumulative = -7.2076e-20
[INFO] ContinuityError: 7.854 [ms]
[INFO] CorrectBoundary: 0.276 [ms]
[INFO] PISOStep: 689.541 [ms]
[INFO] MatrixAssemblyPI: 66.059 [ms]
[INFO] AdjustPhi: 3.928 [ms]
[INFO] ConstrainPressure: 0.004 [ms]
[INFO] MatrixAssemblyPII: 20.189 [ms]
[OGL LOG][Proc: 0]: global_index_init: 0.262 [ms]
[OGL LOG][Proc: 0]p_local_coeffs: call_update: 0 [ms]
[OGL LOG][Proc: 0]p_non_local_coeffs: call_update: 0 [ms]
[OGL LOG][Proc: 0]p: update_local_matrix_data: 14.773 [ms]
[OGL LOG][Proc: 0]p: update_non_local_matrix_data: 0.078 [ms]
[OGL LOG][Proc: 0]p: regenerate_distributed_matrix: 39.976 [ms]
[OGL LOG][Proc: 0]p_matrix: call_update: 40.84 [ms]
[OGL LOG][Proc: 0]p_rhs: call_update: 4.186 [ms]
[OGL LOG][Preconditioner.H:271] Generate preconditioner GISAI SparsityPower 1
[OGL LOG][Proc: 0]p: init_precond: 67.627 [ms]
[OGL LOG][StoppingCriterion.H:237] Creating stopping criterion with minIter 223 frequency 7
[OGL LOG][Proc: 0]p: generate_solver: 0.003 [ms]
[OGL LOG][Proc: 0]p: solve: 409.278 [ms]
[OGL LOG][Proc: 0]p: copy_x_back: 1.43 [ms]
[OGL LOG][lduLduBase.H:330] 
Statistics:
	Time per iteration: 1100 [mu s]
	Time per residual norm calculation: 296.000000 [mu s]
	Time per iteration and DOF: 0.137500 [ns]
	Retrieve results bandwidth 2.797000 [GByte/s]
[OGL LOG][Proc: 0]p: solve_multi_gpu: 525.543 [ms]
GISAIhipGKOCG:  Solving for p, Initial residual = 0.200814, Final residual = 8.10515e-05, No Iterations 372
[INFO] SolveP: 543.157 [ms]
time step continuity errors : sum local = 3.59092e-09, global = -3.62577e-22, cumulative = -7.24386e-20
[INFO] ContinuityError: 8.179 [ms]
[INFO] CorrectBoundary: 0.235 [ms]
[INFO] PISOStep: 666.661 [ms]
[INFO] TimeStep: 1935.16 [ms]
ExecutionTime = 57.7 s  ClockTime = 52 s

Time = 0.00475

Courant Number mean: 0.0593738 max: 0.486111
[INFO] MatrixAssemblyU: 59.962 [ms]
DILUPBiCGStab:  Solving for Ux, Initial residual = 0.00477079, Final residual = 7.11972e-05, No Iterations 5
DILUPBiCGStab:  Solving for Uy, Initial residual = 0.0113497, Final residual = 0.000153805, No Iterations 5
DILUPBiCGStab:  Solving for Uz, Initial residual = 0.0370408, Final residual = 0.00167842, No Iterations 5
[INFO] MomentumPredictor: 517.79 [ms]
[INFO] MatrixAssemblyPI: 67.723 [ms]
[INFO] AdjustPhi: 4.481 [ms]
[INFO] ConstrainPressure: 0.004 [ms]
[INFO] MatrixAssemblyPII: 19.723 [ms]
[OGL LOG][Proc: 0]: global_index_init: 0.238 [ms]
[OGL LOG][Proc: 0]p_local_coeffs: call_update: 0 [ms]
[OGL LOG][Proc: 0]p_non_local_coeffs: call_update: 0 [ms]
[OGL LOG][Proc: 0]p: update_local_matrix_data: 13.429 [ms]
[OGL LOG][Proc: 0]p: update_non_local_matrix_data: 0.094 [ms]
[OGL LOG][Proc: 0]p: regenerate_distributed_matrix: 40.133 [ms]
[OGL LOG][Proc: 0]p_matrix: call_update: 40.992 [ms]
[OGL LOG][Proc: 0]p_rhs: call_update: 3.979 [ms]
[OGL LOG][Preconditioner.H:271] Generate preconditioner GISAI SparsityPower 1
[OGL LOG][Proc: 0]p: init_precond: 67.73 [ms]
[OGL LOG][StoppingCriterion.H:237] Creating stopping criterion with minIter 223 frequency 7
[OGL LOG][Proc: 0]p: generate_solver: 0.002 [ms]
[OGL LOG][Proc: 0]p: solve: 893.29 [ms]
[OGL LOG][Proc: 0]p: copy_x_back: 1.402 [ms]
[OGL LOG][lduLduBase.H:330] 
Statistics:
	Time per iteration: 1071 [mu s]
	Time per residual norm calculation: 297.000000 [mu s]
	Time per iteration and DOF: 0.133875 [ns]
	Retrieve results bandwidth 2.853000 [GByte/s]
[OGL LOG][Proc: 0]p: solve_multi_gpu: 1011.33 [ms]
GISAIhipGKOCG:  Solving for p, Initial residual = 0.202382, Final residual = 9.88386e-05, No Iterations 834
[INFO] SolveP: 1027.46 [ms]
time step continuity errors : sum local = 4.21098e-09, global = -5.53709e-21, cumulative = -7.79756e-20
[INFO] ContinuityError: 8.496 [ms]
[INFO] CorrectBoundary: 0.603 [ms]
[INFO] PISOStep: 1153.43 [ms]
[INFO] MatrixAssemblyPI: 65.561 [ms]
[INFO] AdjustPhi: 4.814 [ms]
[INFO] ConstrainPressure: 0.004 [ms]
[INFO] MatrixAssemblyPII: 20.09 [ms]
[OGL LOG][Proc: 0]: global_index_init: 0.218 [ms]
[OGL LOG][Proc: 0]p_local_coeffs: call_update: 0 [ms]
[OGL LOG][Proc: 0]p_non_local_coeffs: call_update: 0 [ms]
[OGL LOG][Proc: 0]p: update_local_matrix_data: 20.494 [ms]
[OGL LOG][Proc: 0]p: update_non_local_matrix_data: 0.091 [ms]
[OGL LOG][Proc: 0]p: regenerate_distributed_matrix: 48.758 [ms]
[OGL LOG][Proc: 0]p_matrix: call_update: 49.621 [ms]
[OGL LOG][Proc: 0]p_rhs: call_update: 4.457 [ms]
[OGL LOG][Preconditioner.H:271] Generate preconditioner GISAI SparsityPower 1
[OGL LOG][Proc: 0]p: init_precond: 69.167 [ms]
[OGL LOG][StoppingCriterion.H:237] Creating stopping criterion with minIter 500 frequency 10
[OGL LOG][Proc: 0]p: generate_solver: 0.003 [ms]
[OGL LOG][Proc: 0]p: solve: 874.187 [ms]
[OGL LOG][Proc: 0]p: copy_x_back: 1.485 [ms]
[OGL LOG][lduLduBase.H:330] 
Statistics:
	Time per iteration: 1051 [mu s]
	Time per residual norm calculation: 293.000000 [mu s]
	Time per iteration and DOF: 0.131375 [ns]
	Retrieve results bandwidth 2.693000 [GByte/s]
[OGL LOG][Proc: 0]p: solve_multi_gpu: 1003.31 [ms]
GISAIhipGKOCG:  Solving for p, Initial residual = 0.177106, Final residual = 9.55497e-05, No Iterations 831
[INFO] SolveP: 1026.68 [ms]
time step continuity errors : sum local = 4.07295e-09, global = -7.25126e-21, cumulative = -8.52269e-20
[INFO] ContinuityError: 8.084 [ms]
[INFO] CorrectBoundary: 0.218 [ms]
[INFO] PISOStep: 1150.72 [ms]
[INFO] TimeStep: 2890.51 [ms]
ExecutionTime = 60.99 s  ClockTime = 54 s

Time = 0.005

Courant Number mean: 0.0604237 max: 0.486415
[INFO] MatrixAssemblyU: 61.14 [ms]
DILUPBiCGStab:  Solving for Ux, Initial residual = 0.00447597, Final residual = 6.44871e-05, No Iterations 5
DILUPBiCGStab:  Solving for Uy, Initial residual = 0.0105985, Final residual = 0.000135819, No Iterations 5
DILUPBiCGStab:  Solving for Uz, Initial residual = 0.0335073, Final residual = 0.00143459, No Iterations 5
[INFO] MomentumPredictor: 518.068 [ms]
[INFO] MatrixAssemblyPI: 68.467 [ms]
[INFO] AdjustPhi: 4.679 [ms]
[INFO] ConstrainPressure: 0.004 [ms]
[INFO] MatrixAssemblyPII: 19.786 [ms]
[OGL LOG][Proc: 0]: global_index_init: 0.273 [ms]
[OGL LOG][Proc: 0]p_local_coeffs: call_update: 0 [ms]
[OGL LOG][Proc: 0]p_non_local_coeffs: call_update: 0 [ms]
[OGL LOG][Proc: 0]p: update_local_matrix_data: 15.31 [ms]
[OGL LOG][Proc: 0]p: update_non_local_matrix_data: 0.077 [ms]
[OGL LOG][Proc: 0]p: regenerate_distributed_matrix: 39.496 [ms]
[OGL LOG][Proc: 0]p_matrix: call_update: 40.39 [ms]
[OGL LOG][Proc: 0]p_rhs: call_update: 4.524 [ms]
[OGL LOG][Preconditioner.H:271] Generate preconditioner GISAI SparsityPower 1
[OGL LOG][Proc: 0]p: init_precond: 67.73 [ms]
[OGL LOG][StoppingCriterion.H:237] Creating stopping criterion with minIter 498 frequency 10
[OGL LOG][Proc: 0]p: generate_solver: 0.002 [ms]
[OGL LOG][Proc: 0]p: solve: 889.415 [ms]
[OGL LOG][Proc: 0]p: copy_x_back: 1.415 [ms]
[OGL LOG][lduLduBase.H:330] 
Statistics:
	Time per iteration: 1057 [mu s]
	Time per residual norm calculation: 295.000000 [mu s]
	Time per iteration and DOF: 0.132125 [ns]
	Retrieve results bandwidth 2.826000 [GByte/s]
[OGL LOG][Proc: 0]p: solve_multi_gpu: 1005.81 [ms]
GISAIhipGKOCG:  Solving for p, Initial residual = 0.183825, Final residual = 5.52653e-05, No Iterations 841
[INFO] SolveP: 1024.26 [ms]
time step continuity errors : sum local = 2.27451e-09, global = -4.63772e-21, cumulative = -8.98646e-20
[INFO] ContinuityError: 8.611 [ms]
[INFO] CorrectBoundary: 0.247 [ms]
[INFO] PISOStep: 1151.43 [ms]
[INFO] MatrixAssemblyPI: 65.289 [ms]
[INFO] AdjustPhi: 5.182 [ms]
[INFO] ConstrainPressure: 0.011 [ms]
[INFO] MatrixAssemblyPII: 19.802 [ms]
[OGL LOG][Proc: 0]: global_index_init: 0.203 [ms]
[OGL LOG][Proc: 0]p_local_coeffs: call_update: 0 [ms]
[OGL LOG][Proc: 0]p_non_local_coeffs: call_update: 0 [ms]
[OGL LOG][Proc: 0]p: update_local_matrix_data: 13.518 [ms]
[OGL LOG][Proc: 0]p: update_non_local_matrix_data: 0.072 [ms]
[OGL LOG][Proc: 0]p: regenerate_distributed_matrix: 40.511 [ms]
[OGL LOG][Proc: 0]p_matrix: call_update: 41.431 [ms]
[OGL LOG][Proc: 0]p_rhs: call_update: 5.071 [ms]
[OGL LOG][Preconditioner.H:271] Generate preconditioner GISAI SparsityPower 1
[OGL LOG][Proc: 0]p: init_precond: 67.833 [ms]
[OGL LOG][StoppingCriterion.H:237] Creating stopping criterion with minIter 504 frequency 10
[OGL LOG][Proc: 0]p: generate_solver: 0.003 [ms]
[OGL LOG][Proc: 0]p: solve: 892.797 [ms]
[OGL LOG][Proc: 0]p: copy_x_back: 1.412 [ms]
[OGL LOG][lduLduBase.H:330] 
Statistics:
	Time per iteration: 1061 [mu s]
	Time per residual norm calculation: 294.000000 [mu s]
	Time per iteration and DOF: 0.132625 [ns]
	Retrieve results bandwidth 2.832000 [GByte/s]
[OGL LOG][Proc: 0]p: solve_multi_gpu: 1012.61 [ms]
GISAIhipGKOCG:  Solving for p, Initial residual = 0.161454, Final residual = 6.10877e-05, No Iterations 841
[INFO] SolveP: 1028.97 [ms]
time step continuity errors : sum local = 2.50995e-09, global = -3.44352e-21, cumulative = -9.33081e-20
[INFO] ContinuityError: 7.987 [ms]
[INFO] CorrectBoundary: 0.237 [ms]
[INFO] PISOStep: 1152.6 [ms]
[INFO] TimeStep: 2891.06 [ms]
ExecutionTime = 64.27 s  ClockTime = 57 s

End

Finalising parallel run
