/*---------------------------------------------------------------------------*\
| =========                 |                                                 |
| \\      /  F ield         | OpenFOAM: The Open Source CFD Toolbox           |
|  \\    /   O peration     | Version:  2306                                  |
|   \\  /    A nd           | Website:  www.openfoam.com                      |
|    \\/     M anipulation  |                                                 |
\*---------------------------------------------------------------------------*/
Build  : c423ebec-20231012 OPENFOAM=2306 version=v2306
Arch   : "LSB;label=32;scalar=64"
Exec   : simpleFoam -parallel -case /hkfs/work/workspace/scratch/eq4036-windsorbody_setup/workspace/8640fb63a331fd2193317c7483f408b2/case
Date   : Feb 16 2024
Time   : 20:33:06
Host   : hkn0617.localdomain
PID    : 440351
I/O    : uncollated
Case   : /hkfs/work/workspace/scratch/eq4036-windsorbody_setup/workspace/8640fb63a331fd2193317c7483f408b2/case
nProcs : 16
Hosts  :
(
    (hkn0617.localdomain 8)
    (hkn0618.localdomain 8)
)
Pstream initialized with:
    floatTransfer      : false
    nProcsSimpleSum    : 0
    nonBlockingExchange: 0 (tuning: 0)
    exchange algorithm : -1
    commsType          : nonBlocking
    polling iterations : 0
trapFpe: Floating point exception trapping enabled (FOAM_SIGFPE).
fileModificationChecking : Monitoring run-time modified files using timeStampMaster (fileModificationSkew 5, maxFileModificationPolls 20)
allowSystemOperations : Allowing user-supplied system call operations

// * * * * * * * * * * * * * * * * * * * * * * * * * * * * * * * * * * * * * //
Create time

--> FOAM Warning : 
    From void* Foam::dlLibraryTable::openLibrary(const Foam::fileName&, bool)
    in file db/dynamicLibrary/dlLibraryTable/dlLibraryTable.C at line 188
    Could not load "libpetscFoam.so"
libpetscFoam.so: cannot open shared object file: No such file or directory
Create mesh for time = 0


SIMPLE: convergence criteria
    field p	 tolerance 1e-08
    field U	 tolerance 1e-08
    field k	 tolerance 1e-08
    field omega	 tolerance 1e-08
    field nuTilda	 tolerance 1e-08

Reading field p

Reading field U

Reading/calculating face flux field phi

Selecting incompressible transport model Newtonian
Selecting turbulence model type RAS
Selecting RAS turbulence model SpalartAllmaras
Selecting patchDistMethod meshWave
ft2 term: inactive
RAS
{
    RASModel        SpalartAllmaras;
    turbulence      on;
    printCoeffs     on;
    sigmaNut        0.66666;
    kappa           0.41;
    Cb1             0.1355;
    Cb2             0.622;
    Cw2             0.3;
    Cw3             2;
    Cv1             7.1;
    Cs              0.3;
    ck              0.07000000000000001;
    ft2             false;
    Ct3             1.2;
    Ct4             0.5;
}

No MRF models present

Creating finite volume options from "system/fvOptions"

Selecting finite volume options type velocityDampingConstraint
    Source: velocityDamping
    - selecting all cells
    - selected 50457088 cell(s) with volume 222.6066441268596

Starting time loop

--> FOAM Warning : 
    From bool Foam::functionObjectList::read()
    in file db/functionObjects/functionObjectList/functionObjectList.C at line 1035
    Reading "system/controlDict" at line 2 to 41
    Entry 'lref' is not a dictionary
--> FOAM Warning : 
    From bool Foam::functionObjectList::read()
    in file db/functionObjects/functionObjectList/functionObjectList.C at line 1035
    Reading "system/controlDict" at line 2 to 41
    Entry 'Aref' is not a dictionary
--> FOAM Warning : 
    From bool Foam::functionObjectList::read()
    in file db/functionObjects/functionObjectList/functionObjectList.C at line 1035
    Reading "system/controlDict" at line 2 to 41
    Entry 'yawAngle' is not a dictionary
--> FOAM Warning : 
    From bool Foam::functionObjectList::read()
    in file db/functionObjects/functionObjectList/functionObjectList.C at line 1035
    Reading "system/controlDict" at line 2 to 41
    Entry 'lDomain' is not a dictionary
--> FOAM Warning : 
    From bool Foam::functionObjectList::read()
    in file db/functionObjects/functionObjectList/functionObjectList.C at line 1035
    Reading "system/controlDict" at line 2 to 41
    Entry 'bDomain' is not a dictionary
--> FOAM Warning : 
    From bool Foam::functionObjectList::read()
    in file db/functionObjects/functionObjectList/functionObjectList.C at line 1035
    Reading "system/controlDict" at line 2 to 41
    Entry 'hDomain' is not a dictionary
--> FOAM Warning : 
    From bool Foam::functionObjectList::read()
    in file db/functionObjects/functionObjectList/functionObjectList.C at line 1035
    Reading "system/controlDict" at line 2 to 41
    Entry 'xCenter' is not a dictionary
--> FOAM Warning : 
    From bool Foam::functionObjectList::read()
    in file db/functionObjects/functionObjectList/functionObjectList.C at line 1035
    Reading "system/controlDict" at line 2 to 41
    Entry 'yCenter' is not a dictionary
--> FOAM Warning : 
    From bool Foam::functionObjectList::read()
    in file db/functionObjects/functionObjectList/functionObjectList.C at line 1035
    Reading "system/controlDict" at line 2 to 41
    Entry 'zCenter' is not a dictionary
--> FOAM Warning : 
    From bool Foam::functionObjectList::read()
    in file db/functionObjects/functionObjectList/functionObjectList.C at line 1035
    Reading "system/controlDict" at line 2 to 41
    Entry 'inletPatch' is not a dictionary
--> FOAM Warning : 
    From bool Foam::functionObjectList::read()
    in file db/functionObjects/functionObjectList/functionObjectList.C at line 1035
    Reading "system/controlDict" at line 2 to 41
    Entry 'outletPatch' is not a dictionary
--> FOAM Warning : 
    From bool Foam::functionObjectList::read()
    in file db/functionObjects/functionObjectList/functionObjectList.C at line 1035
    Reading "system/controlDict" at line 2 to 41
    Entry 'wallPatches' is not a dictionary
--> FOAM Warning : 
    From bool Foam::functionObjectList::read()
    in file db/functionObjects/functionObjectList/functionObjectList.C at line 1035
    Reading "system/controlDict" at line 2 to 41
    Entry 'forcesWallPatches' is not a dictionary
--> FOAM Warning : 
    From bool Foam::functionObjectList::read()
    in file db/functionObjects/functionObjectList/functionObjectList.C at line 1035
    Reading "system/controlDict" at line 2 to 41
    Entry 'symmPatches' is not a dictionary
--> FOAM Warning : 
    From bool Foam::functionObjectList::read()
    in file db/functionObjects/functionObjectList/functionObjectList.C at line 1035
    Reading "system/controlDict" at line 2 to 41
    Entry 'Uinf' is not a dictionary
--> FOAM Warning : 
    From bool Foam::functionObjectList::read()
    in file db/functionObjects/functionObjectList/functionObjectList.C at line 1035
    Reading "system/controlDict" at line 2 to 41
    Entry 'UinfMag' is not a dictionary
--> FOAM Warning : 
    From bool Foam::functionObjectList::read()
    in file db/functionObjects/functionObjectList/functionObjectList.C at line 1035
    Reading "system/controlDict" at line 2 to 41
    Entry 'nu' is not a dictionary
--> FOAM Warning : 
    From bool Foam::functionObjectList::read()
    in file db/functionObjects/functionObjectList/functionObjectList.C at line 1035
    Reading "system/controlDict" at line 2 to 41
    Entry 'pref' is not a dictionary
--> FOAM Warning : 
    From bool Foam::functionObjectList::read()
    in file db/functionObjects/functionObjectList/functionObjectList.C at line 1035
    Reading "system/controlDict" at line 2 to 41
    Entry 'viscRatio' is not a dictionary
--> FOAM Warning : 
    From bool Foam::functionObjectList::read()
    in file db/functionObjects/functionObjectList/functionObjectList.C at line 1035
    Reading "system/controlDict" at line 2 to 41
    Entry 'Tu' is not a dictionary
--> FOAM Warning : 
    From bool Foam::functionObjectList::read()
    in file db/functionObjects/functionObjectList/functionObjectList.C at line 1035
    Reading "system/controlDict" at line 2 to 41
    Entry 'LESturbModel' is not a dictionary
--> FOAM Warning : 
    From bool Foam::functionObjectList::read()
    in file db/functionObjects/functionObjectList/functionObjectList.C at line 1035
    Reading "system/controlDict" at line 2 to 41
    Entry 'RASturbModel' is not a dictionary
--> FOAM Warning : 
    From bool Foam::functionObjectList::read()
    in file db/functionObjects/functionObjectList/functionObjectList.C at line 1035
    Reading "system/controlDict" at line 2 to 41
    Entry 'deltaTurb' is not a dictionary
--> FOAM Warning : 
    From bool Foam::functionObjectList::read()
    in file db/functionObjects/functionObjectList/functionObjectList.C at line 1035
    Reading "system/controlDict" at line 2 to 41
    Entry 'dt' is not a dictionary
--> FOAM Warning : 
    From bool Foam::functionObjectList::read()
    in file db/functionObjects/functionObjectList/functionObjectList.C at line 1035
    Reading "system/controlDict" at line 2 to 41
    Entry 'tAvg' is not a dictionary
--> FOAM Warning : 
    From bool Foam::functionObjectList::read()
    in file db/functionObjects/functionObjectList/functionObjectList.C at line 1035
    Reading "system/controlDict" at line 2 to 41
    Entry 'tEnd' is not a dictionary
--> FOAM Warning : 
    From bool Foam::functionObjectList::read()
    in file db/functionObjects/functionObjectList/functionObjectList.C at line 1035
    Reading "system/controlDict" at line 2 to 41
    Entry 'writeInterval_' is not a dictionary
--> FOAM Warning : 
    From bool Foam::functionObjectList::read()
    in file db/functionObjects/functionObjectList/functionObjectList.C at line 1035
    Reading "system/controlDict" at line 2 to 41
    Entry 'nCores' is not a dictionary
--> FOAM Warning : 
    From bool Foam::functionObjectList::read()
    in file db/functionObjects/functionObjectList/functionObjectList.C at line 1035
    Reading "system/controlDict" at line 2 to 41
    Entry 'interpScheme' is not a dictionary
--> FOAM Warning : 
    From bool Foam::functionObjectList::read()
    in file db/functionObjects/functionObjectList/functionObjectList.C at line 1035
    Reading "system/controlDict" at line 2 to 41
    Entry 'probeField' is not a dictionary
wallShearStress wallShearStress:
    processing wall patches: 
        Windsor_Body
        CFDWT_Floor
        Windsor_Pins
        Windsor_Base
        Windsor_Body_2
        CFDWT_Floor_2
        Windsor_Pins_2
        Windsor_Base_2
        Windsor_Body_3
        CFDWT_Floor_3
        Windsor_Pins_3
        Windsor_Base_3
        Windsor_Body_4
        CFDWT_Floor_4
        Windsor_Pins_4
        Windsor_Base_4
        Windsor_Body_5
        CFDWT_Floor_5
        Windsor_Pins_5
        Windsor_Base_5
        Windsor_Body_6
        CFDWT_Floor_6
        Windsor_Pins_6
        Windsor_Base_6
        Windsor_Body_7
        CFDWT_Floor_7
        Windsor_Pins_7
        Windsor_Base_7
        Windsor_Body_8
        CFDWT_Floor_8
        Windsor_Pins_8
        Windsor_Base_8

pressure calc_cp:
    Operating mode: staticCoeff
    Not including hydrostatic effects

forceCoeffs forceCoeffsAll:
    rho: rhoInf
    Freestream density (rhoInf) set to 1
    Not including porosity effects
    magUInf: 40
    lRef   : 0.6375
    Aref   : 0.1124
    rhoInf : 1
    Selecting all coefficients
    - Drag force: Cd
    - Drag force front: Cd(f)
    - Drag force rear: Cd(r)
    - Lift force: Cl
    - Lift force front: Cl(f)
    - Lift force rear: Cl(r)
    - Pitch moment: CmPitch
    - Roll moment: CmRoll
    - Yaw moment: CmYaw
    - Side force: Cs
    - Side force front: Cs(f)
    - Side force rear: Cs(r)


forceCoeffs dragCoeffBase:
    rho: rhoInf
    Freestream density (rhoInf) set to 1
    Not including porosity effects
    magUInf: 40
    lRef   : 0.6375
    Aref   : 0.1124
    rhoInf : 1
    Selecting coefficients:
    - Drag force: Cd


Time = 1

velocityDampingConstraint velocityDamping damped 0 (0%) of cells, with max limit 300
smoothSolver:  Solving for Ux, Initial residual = 0.999999999999069, Final residual = 0.08528990586388517, No Iterations 3
smoothSolver:  Solving for Uy, Initial residual = 1, Final residual = 0.06553297001815435, No Iterations 6
smoothSolver:  Solving for Uz, Initial residual = 1, Final residual = 0.01751052955542146, No Iterations 2
[OGL LOG][lduLduBase.H:119] Initialising OGL
	OGL commit:  e75313f+
	Branch: dev 
	Build type: Debug
	Ginkgo version: 1.8.0 ( develop)
	Ginkgo commit: sparse-communicator
	MPI is GPU aware: 1
	Forces host buffer based communication: 0
	CPU ranks per GPU: 1
	Matrix format: Coo
	End OGL_INFO
[OGL LOG][Proc: 0]: global_index_init: 0.064 [ms]
[OGL LOG][Proc: 0]p_local_cols: call_init: 1.435 [ms]
[OGL LOG][Proc: 0]p_local_rows: call_init: 0.121 [ms]
[OGL LOG][Proc: 0]p_local_ldu_map: call_init: 0.452 [ms]
[OGL LOG][Proc: 0]p_local_coeffs: call_init: 4.236 [ms]
[OGL LOG][Proc: 0]p_non_local_cols: call_init: 0.223 [ms]
[OGL LOG][Proc: 0]p_non_local_rows: call_init: 0.359 [ms]
[OGL LOG][Proc: 0]p_non_local_ldu_map: call_init: 0.251 [ms]
[OGL LOG][Proc: 0]p_non_local_coeffs: call_init: 0.125 [ms]
[OGL LOG][Proc: 0]p: init_local_sparsity_pattern: 144495.242 [ms]
[OGL LOG][Proc: 0]p: init_non_local_sparsity_pattern: 25892.614 [ms]
[OGL LOG][Proc: 0]p: update_local_matrix_data: 162.004 [ms]
[OGL LOG][Proc: 0]p: update_non_local_matrix_data: 2.349 [ms]
[OGL LOG][Proc: 0]device_partition: call_init: 0.331 [ms]
[OGL LOG][Proc: 0]p_matrix: call_init: 351.304 [ms]
[OGL LOG][Proc: 0]p_rhs: call_init: 6.554 [ms]
[OGL LOG][Proc: 0]p_solution: call_init: 5.521 [ms]
[OGL LOG][Preconditioner.H:121] Generate preconditioner BJ MaxBlockSize 1
[OGL LOG][Proc: 0]p: init_precond: 12.426 [ms]
[OGL LOG][StoppingCriterion.H:239] Creating stopping criterion with minIter 0 frequency 1
[OGL LOG][Proc: 0]p: generate_solver: 0.286 [ms]
[OGL LOG][Proc: 0]p: solve: 6778.022 [ms]
[OGL LOG][Proc: 0]p: copy_x_back: 15.456 [ms]
[OGL LOG][lduLduBase.H:330] 
Statistics:
	Time per iteration: 5592 [mu s]
	Time per residual norm calculation: 4206.000000 [mu s]
	Time per iteration and DOF: 0.110827 [ns]
	Retrieve results bandwidth 1.946000 [GByte/s]
[OGL LOG][Proc: 0]p: solve_multi_gpu: 7434.249 [ms]
BJcudaGKOCG:  Solving for p, Initial residual = 1.000000000000713, Final residual = 0.009990662796128641, No Iterations 1212
time step continuity errors : sum local = 0.003630818120187333, global = 1.120976804651457e-05, cumulative = 1.120976804651457e-05
smoothSolver:  Solving for nuTilda, Initial residual = 0.9999999954705044, Final residual = 0.05256182517628855, No Iterations 3
ExecutionTime = 233.64 s  ClockTime = 235 s

--> FOAM Warning : 
    From virtual bool Foam::functionObjects::fieldSelection::checkSelection()
    in file functionObjects/fieldSelections/fieldSelection/fieldSelection.C at line 166
    Field k not found
--> FOAM Warning : 
    From virtual bool Foam::functionObjects::fieldSelection::checkSelection()
    in file functionObjects/fieldSelections/fieldSelection/fieldSelection.C at line 166
    Field gammaInt not found
--> FOAM Warning : 
    From virtual bool Foam::functionObjects::fieldSelection::checkSelection()
    in file functionObjects/fieldSelections/fieldSelection/fieldSelection.C at line 166
    Field omega not found
--> FOAM Warning : 
    From virtual bool Foam::functionObjects::fieldSelection::checkSelection()
    in file functionObjects/fieldSelections/fieldSelection/fieldSelection.C at line 166
    Field ReThetat not found
--> FOAM Warning : 
    From virtual bool Foam::functionObjects::fieldSelection::checkSelection()
    in file functionObjects/fieldSelections/fieldSelection/fieldSelection.C at line 166
    Field epsilon not found
--> FOAM Warning : 
    From virtual bool Foam::functionObjects::solverFieldSelection::updateSelection()
    in file functionObjects/fieldSelections/solverFieldSelection/solverFieldSelection.C at line 85
    Valid solver fields are: 3(U nuTilda p)Time = 2

velocityDampingConstraint velocityDamping damped 0 (0%) of cells, with max limit 300
smoothSolver:  Solving for Ux, Initial residual = 0.4349312485037694, Final residual = 0.02790361850873517, No Iterations 5
smoothSolver:  Solving for Uy, Initial residual = 0.5804054934538448, Final residual = 0.03749094962166531, No Iterations 5
smoothSolver:  Solving for Uz, Initial residual = 0.5439287636442228, Final residual = 0.03293833037852956, No Iterations 5
[OGL LOG][Proc: 0]: global_index_init: 0.019 [ms]
[OGL LOG][Proc: 0]p_local_coeffs: call_update: 0.001 [ms]
[OGL LOG][Proc: 0]p_non_local_coeffs: call_update: 0 [ms]
[OGL LOG][Proc: 0]p: update_local_matrix_data: 152.429 [ms]
[OGL LOG][Proc: 0]p: update_non_local_matrix_data: 2.401 [ms]
[OGL LOG][Proc: 0]p_matrix: call_update: 4.586 [ms]
[OGL LOG][Proc: 0]p_rhs: call_update: 9.599 [ms]
[OGL LOG][Preconditioner.H:121] Generate preconditioner BJ MaxBlockSize 1
[OGL LOG][Proc: 0]p: init_precond: 2.583 [ms]
[OGL LOG][StoppingCriterion.H:239] Creating stopping criterion with minIter 727 frequency 22
[OGL LOG][Proc: 0]p: generate_solver: 0.014 [ms]
[OGL LOG][Proc: 0]p: solve: 3995.792 [ms]
[OGL LOG][Proc: 0]p: copy_x_back: 11.408 [ms]
[OGL LOG][lduLduBase.H:330] 
Statistics:
	Time per iteration: 4319 [mu s]
	Time per residual norm calculation: 1316.000000 [mu s]
	Time per iteration and DOF: 0.085597 [ns]
	Retrieve results bandwidth 2.636000 [GByte/s]
[OGL LOG][Proc: 0]p: solve_multi_gpu: 4045.793 [ms]
BJcudaGKOCG:  Solving for p, Initial residual = 0.4315562640922073, Final residual = 0.003578307283659993, No Iterations 925
time step continuity errors : sum local = 0.078135022463306, global = 0.004486853791190179, cumulative = 0.004498063559236693
smoothSolver:  Solving for nuTilda, Initial residual = 0.2989486513960823, Final residual = 0.01994047433328336, No Iterations 2
ExecutionTime = 255.19 s  ClockTime = 257 s

Time = 3

velocityDampingConstraint velocityDamping damped 36798 (0.07000000000000001%) of cells, with max limit 300
smoothSolver:  Solving for Ux, Initial residual = 0.2903734445611719, Final residual = 0.01817115880782417, No Iterations 2
smoothSolver:  Solving for Uy, Initial residual = 0.2814777647046262, Final residual = 0.02583249031141946, No Iterations 4
smoothSolver:  Solving for Uz, Initial residual = 0.2531403010432929, Final residual = 0.02187151997894741, No Iterations 4
[OGL LOG][Proc: 0]: global_index_init: 0.021 [ms]
[OGL LOG][Proc: 0]p_local_coeffs: call_update: 0 [ms]
[OGL LOG][Proc: 0]p_non_local_coeffs: call_update: 0 [ms]
[OGL LOG][Proc: 0]p: update_local_matrix_data: 153.926 [ms]
[OGL LOG][Proc: 0]p: update_non_local_matrix_data: 2.138 [ms]
[OGL LOG][Proc: 0]p_matrix: call_update: 5.079 [ms]
[OGL LOG][Proc: 0]p_rhs: call_update: 9.051 [ms]
[OGL LOG][Preconditioner.H:121] Generate preconditioner BJ MaxBlockSize 1
[OGL LOG][Proc: 0]p: init_precond: 2.567 [ms]
[OGL LOG][StoppingCriterion.H:239] Creating stopping criterion with minIter 555 frequency 11
[OGL LOG][Proc: 0]p: generate_solver: 0.015 [ms]
[OGL LOG][Proc: 0]p: solve: 4851.431 [ms]
[OGL LOG][Proc: 0]p: copy_x_back: 11.339 [ms]
[OGL LOG][lduLduBase.H:330] 
Statistics:
	Time per iteration: 4687 [mu s]
	Time per residual norm calculation: 1304.000000 [mu s]
	Time per iteration and DOF: 0.092891 [ns]
	Retrieve results bandwidth 2.652000 [GByte/s]
[OGL LOG][Proc: 0]p: solve_multi_gpu: 4898.684 [ms]
BJcudaGKOCG:  Solving for p, Initial residual = 0.2620978104746942, Final residual = 0.002545872712047018, No Iterations 1035
time step continuity errors : sum local = 0.02083465212388082, global = -0.0002630577108456855, cumulative = 0.004235005848391008
smoothSolver:  Solving for nuTilda, Initial residual = 0.3316843862789985, Final residual = 0.02749826493936994, No Iterations 1
ExecutionTime = 277.04 s  ClockTime = 279 s

Time = 4

velocityDampingConstraint velocityDamping damped 353 (0%) of cells, with max limit 300
smoothSolver:  Solving for Ux, Initial residual = 0.03628885567717764, Final residual = 0.002953735797301729, No Iterations 4
smoothSolver:  Solving for Uy, Initial residual = 0.05350859963414351, Final residual = 0.004651276369940337, No Iterations 4
smoothSolver:  Solving for Uz, Initial residual = 0.0496820227699541, Final residual = 0.004432808565996515, No Iterations 4
[OGL LOG][Proc: 0]: global_index_init: 0.022 [ms]
[OGL LOG][Proc: 0]p_local_coeffs: call_update: 0 [ms]
[OGL LOG][Proc: 0]p_non_local_coeffs: call_update: 0 [ms]
[OGL LOG][Proc: 0]p: update_local_matrix_data: 153.497 [ms]
[OGL LOG][Proc: 0]p: update_non_local_matrix_data: 2.196 [ms]
[OGL LOG][Proc: 0]p_matrix: call_update: 5.017 [ms]
[OGL LOG][Proc: 0]p_rhs: call_update: 8.973000000000001 [ms]
[OGL LOG][Preconditioner.H:121] Generate preconditioner BJ MaxBlockSize 1
[OGL LOG][Proc: 0]p: init_precond: 3.043 [ms]
[OGL LOG][StoppingCriterion.H:239] Creating stopping criterion with minIter 621 frequency 11
[OGL LOG][Proc: 0]p: generate_solver: 0.018 [ms]
[OGL LOG][Proc: 0]p: solve: 2837.57 [ms]
[OGL LOG][Proc: 0]p: copy_x_back: 11.407 [ms]
[OGL LOG][lduLduBase.H:330] 
Statistics:
	Time per iteration: 4518 [mu s]
	Time per residual norm calculation: 1316.000000 [mu s]
	Time per iteration and DOF: 0.089541 [ns]
	Retrieve results bandwidth 2.637000 [GByte/s]
[OGL LOG][Proc: 0]p: solve_multi_gpu: 2886.323 [ms]
BJcudaGKOCG:  Solving for p, Initial residual = 0.3713301798222766, Final residual = 0.001438167353179577, No Iterations 628
time step continuity errors : sum local = 0.01773006365771389, global = -0.001995354091950704, cumulative = 0.002239651756440303
smoothSolver:  Solving for nuTilda, Initial residual = 0.1523957256774726, Final residual = 0.006638577629862428, No Iterations 3
ExecutionTime = 297.09 s  ClockTime = 299 s

Time = 5

velocityDampingConstraint velocityDamping damped 11013 (0.02%) of cells, with max limit 300
smoothSolver:  Solving for Ux, Initial residual = 0.183511190437625, Final residual = 0.01543887905830364, No Iterations 3
smoothSolver:  Solving for Uy, Initial residual = 0.2624617023567586, Final residual = 0.02127575359784257, No Iterations 4
smoothSolver:  Solving for Uz, Initial residual = 0.2222340735204045, Final residual = 0.01703699742895295, No Iterations 4
[OGL LOG][Proc: 0]: global_index_init: 0.019 [ms]
[OGL LOG][Proc: 0]p_local_coeffs: call_update: 0 [ms]
[OGL LOG][Proc: 0]p_non_local_coeffs: call_update: 0 [ms]
[OGL LOG][Proc: 0]p: update_local_matrix_data: 152.749 [ms]
[OGL LOG][Proc: 0]p: update_non_local_matrix_data: 2.373 [ms]
[OGL LOG][Proc: 0]p_matrix: call_update: 4.904 [ms]
[OGL LOG][Proc: 0]p_rhs: call_update: 9.202999999999999 [ms]
[OGL LOG][Preconditioner.H:121] Generate preconditioner BJ MaxBlockSize 1
[OGL LOG][Proc: 0]p: init_precond: 2.507 [ms]
[OGL LOG][StoppingCriterion.H:239] Creating stopping criterion with minIter 376 frequency 9
[OGL LOG][Proc: 0]p: generate_solver: 0.017 [ms]
[OGL LOG][Proc: 0]p: solve: 4033.084 [ms]
[OGL LOG][Proc: 0]p: copy_x_back: 11.671 [ms]
[OGL LOG][lduLduBase.H:330] 
Statistics:
	Time per iteration: 4431 [mu s]
	Time per residual norm calculation: 1310.000000 [mu s]
	Time per iteration and DOF: 0.087817 [ns]
	Retrieve results bandwidth 2.577000 [GByte/s]
[OGL LOG][Proc: 0]p: solve_multi_gpu: 4080.841 [ms]
BJcudaGKOCG:  Solving for p, Initial residual = 0.2736929225969677, Final residual = 0.00245132270296196, No Iterations 910
time step continuity errors : sum local = 0.02650078562823373, global = -0.0009339040685883401, cumulative = 0.001305747687851963
smoothSolver:  Solving for nuTilda, Initial residual = 0.1175197434259466, Final residual = 0.0104065463876527, No Iterations 2
ExecutionTime = 318.2 s  ClockTime = 320 s

Time = 6

velocityDampingConstraint velocityDamping damped 875 (0%) of cells, with max limit 300
smoothSolver:  Solving for Ux, Initial residual = 0.1306151346943906, Final residual = 0.0125275884394607, No Iterations 4
smoothSolver:  Solving for Uy, Initial residual = 0.2500457596167666, Final residual = 0.01513612528408199, No Iterations 5
smoothSolver:  Solving for Uz, Initial residual = 0.2000282402667526, Final residual = 0.01910662345139196, No Iterations 4
[OGL LOG][Proc: 0]: global_index_init: 0.024 [ms]
[OGL LOG][Proc: 0]p_local_coeffs: call_update: 0 [ms]
[OGL LOG][Proc: 0]p_non_local_coeffs: call_update: 0 [ms]
[OGL LOG][Proc: 0]p: update_local_matrix_data: 166.13 [ms]
[OGL LOG][Proc: 0]p: update_non_local_matrix_data: 2.254 [ms]
[OGL LOG][Proc: 0]p_matrix: call_update: 5.717 [ms]
[OGL LOG][Proc: 0]p_rhs: call_update: 8.336 [ms]
[OGL LOG][Preconditioner.H:121] Generate preconditioner BJ MaxBlockSize 1
[OGL LOG][Proc: 0]p: init_precond: 3.821 [ms]
[OGL LOG][StoppingCriterion.H:239] Creating stopping criterion with minIter 546 frequency 11
[OGL LOG][Proc: 0]p: generate_solver: 0.013 [ms]
[OGL LOG][Proc: 0]p: solve: 4184.111 [ms]
[OGL LOG][Proc: 0]p: copy_x_back: 11.416 [ms]
[OGL LOG][lduLduBase.H:330] 
Statistics:
	Time per iteration: 4577 [mu s]
	Time per residual norm calculation: 1311.000000 [mu s]
	Time per iteration and DOF: 0.090711 [ns]
	Retrieve results bandwidth 2.635000 [GByte/s]
[OGL LOG][Proc: 0]p: solve_multi_gpu: 4220.881 [ms]
BJcudaGKOCG:  Solving for p, Initial residual = 0.4168584202472881, Final residual = 0.003496782263866076, No Iterations 914
time step continuity errors : sum local = 0.02440632269659109, global = -0.001174528106185869, cumulative = 0.0001312195816660945
smoothSolver:  Solving for nuTilda, Initial residual = 0.07898071414417833, Final residual = 0.004937138132687952, No Iterations 3
ExecutionTime = 339.8 s  ClockTime = 342 s

Time = 7

velocityDampingConstraint velocityDamping damped 3475 (0.01%) of cells, with max limit 300
smoothSolver:  Solving for Ux, Initial residual = 0.09295148710990182, Final residual = 0.005968031901577704, No Iterations 4
smoothSolver:  Solving for Uy, Initial residual = 0.1082442747849113, Final residual = 0.008276210572911448, No Iterations 4
smoothSolver:  Solving for Uz, Initial residual = 0.1036450331241747, Final residual = 0.00790734070471066, No Iterations 4
[OGL LOG][Proc: 0]: global_index_init: 0.025 [ms]
[OGL LOG][Proc: 0]p_local_coeffs: call_update: 0 [ms]
[OGL LOG][Proc: 0]p_non_local_coeffs: call_update: 0 [ms]
[OGL LOG][Proc: 0]p: update_local_matrix_data: 153.609 [ms]
[OGL LOG][Proc: 0]p: update_non_local_matrix_data: 2.153 [ms]
[OGL LOG][Proc: 0]p_matrix: call_update: 4.964 [ms]
[OGL LOG][Proc: 0]p_rhs: call_update: 4.035 [ms]
[OGL LOG][Preconditioner.H:121] Generate preconditioner BJ MaxBlockSize 1
[OGL LOG][Proc: 0]p: init_precond: 2.602 [ms]
[OGL LOG][StoppingCriterion.H:239] Creating stopping criterion with minIter 548 frequency 11
[OGL LOG][Proc: 0]p: generate_solver: 0.02 [ms]
[OGL LOG][Proc: 0]p: solve: 3463.978 [ms]
[OGL LOG][Proc: 0]p: copy_x_back: 15.445 [ms]
[OGL LOG][lduLduBase.H:330] 
Statistics:
	Time per iteration: 4429 [mu s]
	Time per residual norm calculation: 1460.000000 [mu s]
	Time per iteration and DOF: 0.087778 [ns]
	Retrieve results bandwidth 1.947000 [GByte/s]
[OGL LOG][Proc: 0]p: solve_multi_gpu: 3506.973 [ms]
BJcudaGKOCG:  Solving for p, Initial residual = 0.2698616620647244, Final residual = 0.00259318735353168, No Iterations 782
time step continuity errors : sum local = 0.01960608976611991, global = 0.001108873934107702, cumulative = 0.001240093515773796
smoothSolver:  Solving for nuTilda, Initial residual = 0.06367001484761169, Final residual = 0.003963301874851343, No Iterations 3
ExecutionTime = 360.44 s  ClockTime = 362 s

Time = 8

velocityDampingConstraint velocityDamping damped 3793 (0.01%) of cells, with max limit 300
smoothSolver:  Solving for Ux, Initial residual = 0.1188778309435917, Final residual = 0.009624297708743007, No Iterations 4
smoothSolver:  Solving for Uy, Initial residual = 0.1774657846665438, Final residual = 0.01594421996642763, No Iterations 4
smoothSolver:  Solving for Uz, Initial residual = 0.169528365198937, Final residual = 0.01500727281424989, No Iterations 4
[OGL LOG][Proc: 0]: global_index_init: 0.02 [ms]
[OGL LOG][Proc: 0]p_local_coeffs: call_update: 0 [ms]
[OGL LOG][Proc: 0]p_non_local_coeffs: call_update: 0 [ms]
[OGL LOG][Proc: 0]p: update_local_matrix_data: 154.199 [ms]
[OGL LOG][Proc: 0]p: update_non_local_matrix_data: 2.515 [ms]
[OGL LOG][Proc: 0]p_matrix: call_update: 4.786 [ms]
[OGL LOG][Proc: 0]p_rhs: call_update: 9.113 [ms]
[OGL LOG][Preconditioner.H:121] Generate preconditioner BJ MaxBlockSize 1
[OGL LOG][Proc: 0]p: init_precond: 2.504 [ms]
[OGL LOG][StoppingCriterion.H:239] Creating stopping criterion with minIter 469 frequency 10
[OGL LOG][Proc: 0]p: generate_solver: 0.014 [ms]
[OGL LOG][Proc: 0]p: solve: 3981.035 [ms]
[OGL LOG][Proc: 0]p: copy_x_back: 11.365 [ms]
[OGL LOG][lduLduBase.H:330] 
Statistics:
	Time per iteration: 4418 [mu s]
	Time per residual norm calculation: 1315.000000 [mu s]
	Time per iteration and DOF: 0.087560 [ns]
	Retrieve results bandwidth 2.646000 [GByte/s]
[OGL LOG][Proc: 0]p: solve_multi_gpu: 4028.098 [ms]
BJcudaGKOCG:  Solving for p, Initial residual = 0.244064254843782, Final residual = 0.002022545993435758, No Iterations 901
time step continuity errors : sum local = 0.01612891280485963, global = 0.0002336783607159786, cumulative = 0.001473771876489775
smoothSolver:  Solving for nuTilda, Initial residual = 0.048952952246241, Final residual = 0.003792682032941087, No Iterations 3
ExecutionTime = 381.6 s  ClockTime = 384 s

Time = 9

velocityDampingConstraint velocityDamping damped 120 (0%) of cells, with max limit 300
smoothSolver:  Solving for Ux, Initial residual = 0.06965049644255489, Final residual = 0.005885547132905923, No Iterations 4
smoothSolver:  Solving for Uy, Initial residual = 0.1073338531006842, Final residual = 0.01015607686718934, No Iterations 4
smoothSolver:  Solving for Uz, Initial residual = 0.1013545581902492, Final residual = 0.009212436210495507, No Iterations 4
[OGL LOG][Proc: 0]: global_index_init: 0.026 [ms]
[OGL LOG][Proc: 0]p_local_coeffs: call_update: 0 [ms]
[OGL LOG][Proc: 0]p_non_local_coeffs: call_update: 0 [ms]
[OGL LOG][Proc: 0]p: update_local_matrix_data: 153.05 [ms]
[OGL LOG][Proc: 0]p: update_non_local_matrix_data: 2.213 [ms]
[OGL LOG][Proc: 0]p_matrix: call_update: 4.773 [ms]
[OGL LOG][Proc: 0]p_rhs: call_update: 7.485 [ms]
[OGL LOG][Preconditioner.H:121] Generate preconditioner BJ MaxBlockSize 1
[OGL LOG][Proc: 0]p: init_precond: 2.358 [ms]
[OGL LOG][StoppingCriterion.H:239] Creating stopping criterion with minIter 540 frequency 10
[OGL LOG][Proc: 0]p: generate_solver: 0.014 [ms]
[OGL LOG][Proc: 0]p: solve: 2687.257 [ms]
[OGL LOG][Proc: 0]p: copy_x_back: 11.368 [ms]
[OGL LOG][lduLduBase.H:330] 
Statistics:
	Time per iteration: 4471 [mu s]
	Time per residual norm calculation: 1462.000000 [mu s]
	Time per iteration and DOF: 0.088610 [ns]
	Retrieve results bandwidth 2.646000 [GByte/s]
[OGL LOG][Proc: 0]p: solve_multi_gpu: 2731.052 [ms]
BJcudaGKOCG:  Solving for p, Initial residual = 0.3442384647919695, Final residual = 0.003243776609816113, No Iterations 601
time step continuity errors : sum local = 0.01956511003077984, global = 0.003449318437458293, cumulative = 0.004923090313948068
smoothSolver:  Solving for nuTilda, Initial residual = 0.04226023750706508, Final residual = 0.003176815423133634, No Iterations 3
ExecutionTime = 401.41 s  ClockTime = 404 s

Time = 10

velocityDampingConstraint velocityDamping damped 266 (0%) of cells, with max limit 300
smoothSolver:  Solving for Ux, Initial residual = 0.02890478692278772, Final residual = 0.002055970659912875, No Iterations 4
smoothSolver:  Solving for Uy, Initial residual = 0.05959261177894561, Final residual = 0.004454486021398386, No Iterations 4
smoothSolver:  Solving for Uz, Initial residual = 0.05843412378504517, Final residual = 0.004473739282507195, No Iterations 4
[OGL LOG][Proc: 0]: global_index_init: 0.156 [ms]
[OGL LOG][Proc: 0]p_local_coeffs: call_update: 0 [ms]
[OGL LOG][Proc: 0]p_non_local_coeffs: call_update: 0 [ms]
[OGL LOG][Proc: 0]p: update_local_matrix_data: 152.276 [ms]
[OGL LOG][Proc: 0]p: update_non_local_matrix_data: 2.376 [ms]
[OGL LOG][Proc: 0]p_matrix: call_update: 4.637 [ms]
[OGL LOG][Proc: 0]p_rhs: call_update: 9.224 [ms]
[OGL LOG][Preconditioner.H:121] Generate preconditioner BJ MaxBlockSize 1
[OGL LOG][Proc: 0]p: init_precond: 2.52 [ms]
[OGL LOG][StoppingCriterion.H:239] Creating stopping criterion with minIter 360 frequency 8
[OGL LOG][Proc: 0]p: generate_solver: 0.018 [ms]
[OGL LOG][Proc: 0]p: solve: 1820.134 [ms]
[OGL LOG][Proc: 0]p: copy_x_back: 11.4 [ms]
[OGL LOG][lduLduBase.H:330] 
Statistics:
	Time per iteration: 4631 [mu s]
	Time per residual norm calculation: 1321.000000 [mu s]
	Time per iteration and DOF: 0.091781 [ns]
	Retrieve results bandwidth 2.638000 [GByte/s]
[OGL LOG][Proc: 0]p: solve_multi_gpu: 1873.133 [ms]
BJcudaGKOCG:  Solving for p, Initial residual = 0.2940292461602915, Final residual = 0.002806310550358476, No Iterations 393
time step continuity errors : sum local = 0.01663105343596679, global = 0.001921691937212312, cumulative = 0.00684478225116038
smoothSolver:  Solving for nuTilda, Initial residual = 0.03546139751817765, Final residual = 0.002972737233405231, No Iterations 3
ExecutionTime = 420.24 s  ClockTime = 422 s

Time = 11

velocityDampingConstraint velocityDamping damped 1223 (0%) of cells, with max limit 300
smoothSolver:  Solving for Ux, Initial residual = 0.03761832573557719, Final residual = 0.003133543654568703, No Iterations 4
smoothSolver:  Solving for Uy, Initial residual = 0.1035884688731593, Final residual = 0.009119564136656931, No Iterations 4
smoothSolver:  Solving for Uz, Initial residual = 0.09727730053922831, Final residual = 0.008540681185100095, No Iterations 4
[OGL LOG][Proc: 0]: global_index_init: 0.02 [ms]
[OGL LOG][Proc: 0]p_local_coeffs: call_update: 0 [ms]
[OGL LOG][Proc: 0]p_non_local_coeffs: call_update: 0 [ms]
[OGL LOG][Proc: 0]p: update_local_matrix_data: 153.561 [ms]
[OGL LOG][Proc: 0]p: update_non_local_matrix_data: 2.206 [ms]
[OGL LOG][Proc: 0]p_matrix: call_update: 4.944 [ms]
[OGL LOG][Proc: 0]p_rhs: call_update: 8.766999999999999 [ms]
[OGL LOG][Preconditioner.H:121] Generate preconditioner BJ MaxBlockSize 1
[OGL LOG][Proc: 0]p: init_precond: 2.521 [ms]
[OGL LOG][StoppingCriterion.H:239] Creating stopping criterion with minIter 235 frequency 7
[OGL LOG][Proc: 0]p: generate_solver: 0.015 [ms]
[OGL LOG][Proc: 0]p: solve: 3913.255 [ms]
[OGL LOG][Proc: 0]p: copy_x_back: 15.944 [ms]
[OGL LOG][lduLduBase.H:330] 
Statistics:
	Time per iteration: 4503 [mu s]
	Time per residual norm calculation: 1455.000000 [mu s]
	Time per iteration and DOF: 0.089244 [ns]
	Retrieve results bandwidth 1.886000 [GByte/s]
[OGL LOG][Proc: 0]p: solve_multi_gpu: 3962.128 [ms]
BJcudaGKOCG:  Solving for p, Initial residual = 0.3242776540139723, Final residual = 0.003076769661472563, No Iterations 869
time step continuity errors : sum local = 0.01602392186794286, global = -0.0004369738983302665, cumulative = 0.006407808352830114
smoothSolver:  Solving for nuTilda, Initial residual = 0.03215718595355079, Final residual = 0.002586220871271717, No Iterations 3
ExecutionTime = 441.18 s  ClockTime = 443 s

Time = 12

velocityDampingConstraint velocityDamping damped 101 (0%) of cells, with max limit 300
smoothSolver:  Solving for Ux, Initial residual = 0.03864602355581918, Final residual = 0.003345795757252777, No Iterations 4
smoothSolver:  Solving for Uy, Initial residual = 0.08000404911502153, Final residual = 0.007023176169788641, No Iterations 4
smoothSolver:  Solving for Uz, Initial residual = 0.07810548891845284, Final residual = 0.006702015081631099, No Iterations 4
[OGL LOG][Proc: 0]: global_index_init: 0.209 [ms]
[OGL LOG][Proc: 0]p_local_coeffs: call_update: 0 [ms]
[OGL LOG][Proc: 0]p_non_local_coeffs: call_update: 0 [ms]
[OGL LOG][Proc: 0]p: update_local_matrix_data: 152.346 [ms]
[OGL LOG][Proc: 0]p: update_non_local_matrix_data: 2.333 [ms]
[OGL LOG][Proc: 0]p_matrix: call_update: 4.727 [ms]
[OGL LOG][Proc: 0]p_rhs: call_update: 11.508 [ms]
[OGL LOG][Preconditioner.H:121] Generate preconditioner BJ MaxBlockSize 1
[OGL LOG][Proc: 0]p: init_precond: 2.201 [ms]
[OGL LOG][StoppingCriterion.H:239] Creating stopping criterion with minIter 521 frequency 10
[OGL LOG][Proc: 0]p: generate_solver: 0.018 [ms]
[OGL LOG][Proc: 0]p: solve: 3854.959 [ms]
[OGL LOG][Proc: 0]p: copy_x_back: 11.604 [ms]
[OGL LOG][lduLduBase.H:330] 
Statistics:
	Time per iteration: 4375 [mu s]
	Time per residual norm calculation: 1459.000000 [mu s]
	Time per iteration and DOF: 0.086707 [ns]
	Retrieve results bandwidth 2.592000 [GByte/s]
[OGL LOG][Proc: 0]p: solve_multi_gpu: 3910.088 [ms]
BJcudaGKOCG:  Solving for p, Initial residual = 0.4953327674536585, Final residual = 0.004773150587238103, No Iterations 881
time step continuity errors : sum local = 0.01462517562825516, global = -0.0005902154319059869, cumulative = 0.005817592920924127
smoothSolver:  Solving for nuTilda, Initial residual = 0.02864638316531965, Final residual = 0.002527235519529323, No Iterations 3
ExecutionTime = 462.08 s  ClockTime = 464 s

Time = 13

velocityDampingConstraint velocityDamping damped 65 (0%) of cells, with max limit 300
smoothSolver:  Solving for Ux, Initial residual = 0.02994877709878064, Final residual = 0.002372510257502765, No Iterations 4
smoothSolver:  Solving for Uy, Initial residual = 0.05880792817231868, Final residual = 0.004770399472230747, No Iterations 4
smoothSolver:  Solving for Uz, Initial residual = 0.0598050112250571, Final residual = 0.004620928602097565, No Iterations 4
[OGL LOG][Proc: 0]: global_index_init: 0.021 [ms]
[OGL LOG][Proc: 0]p_local_coeffs: call_update: 0 [ms]
[OGL LOG][Proc: 0]p_non_local_coeffs: call_update: 0 [ms]
[OGL LOG][Proc: 0]p: update_local_matrix_data: 154.986 [ms]
[OGL LOG][Proc: 0]p: update_non_local_matrix_data: 2.398 [ms]
[OGL LOG][Proc: 0]p_matrix: call_update: 4.451 [ms]
[OGL LOG][Proc: 0]p_rhs: call_update: 9.491 [ms]
[OGL LOG][Preconditioner.H:121] Generate preconditioner BJ MaxBlockSize 1
[OGL LOG][Proc: 0]p: init_precond: 2.511 [ms]
[OGL LOG][StoppingCriterion.H:239] Creating stopping criterion with minIter 528 frequency 13
[OGL LOG][Proc: 0]p: generate_solver: 0.014 [ms]
[OGL LOG][Proc: 0]p: solve: 2384.384 [ms]
[OGL LOG][Proc: 0]p: copy_x_back: 11.7 [ms]
[OGL LOG][lduLduBase.H:330] 
Statistics:
	Time per iteration: 4465 [mu s]
	Time per residual norm calculation: 1460.000000 [mu s]
	Time per iteration and DOF: 0.088491 [ns]
	Retrieve results bandwidth 2.571000 [GByte/s]
[OGL LOG][Proc: 0]p: solve_multi_gpu: 2427.663 [ms]
BJcudaGKOCG:  Solving for p, Initial residual = 0.358022708081122, Final residual = 0.001734561598945166, No Iterations 534
time step continuity errors : sum local = 0.006656873388531495, global = 0.000674104812221077, cumulative = 0.006491697733145204
smoothSolver:  Solving for nuTilda, Initial residual = 0.02776030997354811, Final residual = 0.00234375662633219, No Iterations 3
ExecutionTime = 481.54 s  ClockTime = 484 s

Time = 14

velocityDampingConstraint velocityDamping damped 296 (0%) of cells, with max limit 300
smoothSolver:  Solving for Ux, Initial residual = 0.03555400563437148, Final residual = 0.00296156893392387, No Iterations 4
smoothSolver:  Solving for Uy, Initial residual = 0.06966508423326696, Final residual = 0.006289478050954392, No Iterations 4
smoothSolver:  Solving for Uz, Initial residual = 0.06768186634798308, Final residual = 0.005963505131171565, No Iterations 4
[OGL LOG][Proc: 0]: global_index_init: 0.031 [ms]
[OGL LOG][Proc: 0]p_local_coeffs: call_update: 0 [ms]
[OGL LOG][Proc: 0]p_non_local_coeffs: call_update: 0 [ms]
[OGL LOG][Proc: 0]p: update_local_matrix_data: 153.136 [ms]
[OGL LOG][Proc: 0]p: update_non_local_matrix_data: 2.159 [ms]
[OGL LOG][Proc: 0]p_matrix: call_update: 4.672 [ms]
[OGL LOG][Proc: 0]p_rhs: call_update: 8.949999999999999 [ms]
[OGL LOG][Preconditioner.H:121] Generate preconditioner BJ MaxBlockSize 1
[OGL LOG][Proc: 0]p: init_precond: 2.381 [ms]
[OGL LOG][StoppingCriterion.H:239] Creating stopping criterion with minIter 320 frequency 8
[OGL LOG][Proc: 0]p: generate_solver: 0.021 [ms]
[OGL LOG][Proc: 0]p: solve: 3857.591 [ms]
[OGL LOG][Proc: 0]p: copy_x_back: 11.434 [ms]
[OGL LOG][lduLduBase.H:330] 
Statistics:
	Time per iteration: 4459 [mu s]
	Time per residual norm calculation: 1313.000000 [mu s]
	Time per iteration and DOF: 0.088372 [ns]
	Retrieve results bandwidth 2.630000 [GByte/s]
[OGL LOG][Proc: 0]p: solve_multi_gpu: 3907.018 [ms]
BJcudaGKOCG:  Solving for p, Initial residual = 0.3336027235090493, Final residual = 0.003029775753638958, No Iterations 865
time step continuity errors : sum local = 0.01012706575173753, global = 0.0001884411664240079, cumulative = 0.006680138899569211
smoothSolver:  Solving for nuTilda, Initial residual = 0.02579981576672924, Final residual = 0.002366053743516664, No Iterations 3
ExecutionTime = 502.46 s  ClockTime = 505 s

Time = 15

velocityDampingConstraint velocityDamping damped 81 (0%) of cells, with max limit 300
smoothSolver:  Solving for Ux, Initial residual = 0.02784082752133696, Final residual = 0.002274764704743469, No Iterations 4
smoothSolver:  Solving for Uy, Initial residual = 0.04765318380520207, Final residual = 0.004158327577111868, No Iterations 4
smoothSolver:  Solving for Uz, Initial residual = 0.04635511829608305, Final residual = 0.003898501151430994, No Iterations 4
[OGL LOG][Proc: 0]: global_index_init: 0.121 [ms]
[OGL LOG][Proc: 0]p_local_coeffs: call_update: 0 [ms]
[OGL LOG][Proc: 0]p_non_local_coeffs: call_update: 0 [ms]
[OGL LOG][Proc: 0]p: update_local_matrix_data: 153.059 [ms]
[OGL LOG][Proc: 0]p: update_non_local_matrix_data: 2.263 [ms]
[OGL LOG][Proc: 0]p_matrix: call_update: 4.605 [ms]
[OGL LOG][Proc: 0]p_rhs: call_update: 8.887 [ms]
[OGL LOG][Preconditioner.H:121] Generate preconditioner BJ MaxBlockSize 1
[OGL LOG][Proc: 0]p: init_precond: 2.702 [ms]
[OGL LOG][StoppingCriterion.H:239] Creating stopping criterion with minIter 519 frequency 10
[OGL LOG][Proc: 0]p: generate_solver: 0.019 [ms]
[OGL LOG][Proc: 0]p: solve: 2756.418 [ms]
[OGL LOG][Proc: 0]p: copy_x_back: 11.235 [ms]
[OGL LOG][lduLduBase.H:330] 
Statistics:
	Time per iteration: 4511 [mu s]
	Time per residual norm calculation: 1313.000000 [mu s]
	Time per iteration and DOF: 0.089403 [ns]
	Retrieve results bandwidth 2.677000 [GByte/s]
[OGL LOG][Proc: 0]p: solve_multi_gpu: 2801.984 [ms]
BJcudaGKOCG:  Solving for p, Initial residual = 0.3302426975680292, Final residual = 0.003249448400666423, No Iterations 611
time step continuity errors : sum local = 0.009756535140805128, global = 0.00205832380320016, cumulative = 0.008738462702769371
smoothSolver:  Solving for nuTilda, Initial residual = 0.02575135721161706, Final residual = 0.002213199066815797, No Iterations 3
ExecutionTime = 522.35 s  ClockTime = 525 s

Time = 16

velocityDampingConstraint velocityDamping damped 5 (0%) of cells, with max limit 300
smoothSolver:  Solving for Ux, Initial residual = 0.01821536246303842, Final residual = 0.001342908096937753, No Iterations 4
smoothSolver:  Solving for Uy, Initial residual = 0.03815232914929977, Final residual = 0.002898720361011378, No Iterations 4
smoothSolver:  Solving for Uz, Initial residual = 0.04233683497884791, Final residual = 0.003328244202537935, No Iterations 4
[OGL LOG][Proc: 0]: global_index_init: 0.021 [ms]
[OGL LOG][Proc: 0]p_local_coeffs: call_update: 0 [ms]
[OGL LOG][Proc: 0]p_non_local_coeffs: call_update: 0 [ms]
[OGL LOG][Proc: 0]p: update_local_matrix_data: 150.081 [ms]
[OGL LOG][Proc: 0]p: update_non_local_matrix_data: 2.356 [ms]
[OGL LOG][Proc: 0]p_matrix: call_update: 4.934 [ms]
[OGL LOG][Proc: 0]p_rhs: call_update: 9.234999999999999 [ms]
[OGL LOG][Preconditioner.H:121] Generate preconditioner BJ MaxBlockSize 1
[OGL LOG][Proc: 0]p: init_precond: 2.518 [ms]
[OGL LOG][StoppingCriterion.H:239] Creating stopping criterion with minIter 366 frequency 9
[OGL LOG][Proc: 0]p: generate_solver: 0.015 [ms]
[OGL LOG][Proc: 0]p: solve: 1863.07 [ms]
[OGL LOG][Proc: 0]p: copy_x_back: 11.39 [ms]
[OGL LOG][lduLduBase.H:330] 
Statistics:
	Time per iteration: 4588 [mu s]
	Time per residual norm calculation: 1313.000000 [mu s]
	Time per iteration and DOF: 0.090929 [ns]
	Retrieve results bandwidth 2.641000 [GByte/s]
[OGL LOG][Proc: 0]p: solve_multi_gpu: 1914.24 [ms]
BJcudaGKOCG:  Solving for p, Initial residual = 0.4021477448529561, Final residual = 0.00384913624727886, No Iterations 406
time step continuity errors : sum local = 0.009708910243033482, global = 0.001265141021713503, cumulative = 0.01000360372448287
smoothSolver:  Solving for nuTilda, Initial residual = 0.02365762489290935, Final residual = 0.002232083235340509, No Iterations 3
ExecutionTime = 541.3 s  ClockTime = 544 s

Time = 17

velocityDampingConstraint velocityDamping damped 53 (0%) of cells, with max limit 300
smoothSolver:  Solving for Ux, Initial residual = 0.01511677737184332, Final residual = 0.001140824583660182, No Iterations 4
smoothSolver:  Solving for Uy, Initial residual = 0.04270700804065997, Final residual = 0.003564727731734728, No Iterations 4
smoothSolver:  Solving for Uz, Initial residual = 0.04570082135670773, Final residual = 0.003852652264656659, No Iterations 4
[OGL LOG][Proc: 0]: global_index_init: 0.021 [ms]
[OGL LOG][Proc: 0]p_local_coeffs: call_update: 0 [ms]
[OGL LOG][Proc: 0]p_non_local_coeffs: call_update: 0 [ms]
[OGL LOG][Proc: 0]p: update_local_matrix_data: 153.061 [ms]
[OGL LOG][Proc: 0]p: update_non_local_matrix_data: 2.187 [ms]
[OGL LOG][Proc: 0]p_matrix: call_update: 3.764 [ms]
[OGL LOG][Proc: 0]p_rhs: call_update: 9.914999999999999 [ms]
[OGL LOG][Preconditioner.H:121] Generate preconditioner BJ MaxBlockSize 1
[OGL LOG][Proc: 0]p: init_precond: 2.285 [ms]
[OGL LOG][StoppingCriterion.H:239] Creating stopping criterion with minIter 243 frequency 7
[OGL LOG][Proc: 0]p: generate_solver: 0.017 [ms]
[OGL LOG][Proc: 0]p: solve: 2523.715 [ms]
[OGL LOG][Proc: 0]p: copy_x_back: 11.451 [ms]
[OGL LOG][lduLduBase.H:330] 
Statistics:
	Time per iteration: 4555 [mu s]
	Time per residual norm calculation: 1016.000000 [mu s]
	Time per iteration and DOF: 0.090275 [ns]
	Retrieve results bandwidth 2.627000 [GByte/s]
[OGL LOG][Proc: 0]p: solve_multi_gpu: 2569.614 [ms]
BJcudaGKOCG:  Solving for p, Initial residual = 0.4324199644667718, Final residual = 0.004201190278849972, No Iterations 554
time step continuity errors : sum local = 0.008685307533124837, global = -0.001403583125020074, cumulative = 0.008600020599462799
smoothSolver:  Solving for nuTilda, Initial residual = 0.02467048392762193, Final residual = 0.00207591499679086, No Iterations 3
ExecutionTime = 560.8099999999999 s  ClockTime = 563 s

Time = 18

velocityDampingConstraint velocityDamping damped 168 (0%) of cells, with max limit 300
smoothSolver:  Solving for Ux, Initial residual = 0.01604415586898452, Final residual = 0.001231217320927415, No Iterations 4
smoothSolver:  Solving for Uy, Initial residual = 0.03568626770329084, Final residual = 0.002912570446273675, No Iterations 4
smoothSolver:  Solving for Uz, Initial residual = 0.03709855713357079, Final residual = 0.003009218452055439, No Iterations 4
[OGL LOG][Proc: 0]: global_index_init: 0.021 [ms]
[OGL LOG][Proc: 0]p_local_coeffs: call_update: 0 [ms]
[OGL LOG][Proc: 0]p_non_local_coeffs: call_update: 0 [ms]
[OGL LOG][Proc: 0]p: update_local_matrix_data: 148.541 [ms]
[OGL LOG][Proc: 0]p: update_non_local_matrix_data: 2.392 [ms]
[OGL LOG][Proc: 0]p_matrix: call_update: 4.74 [ms]
[OGL LOG][Proc: 0]p_rhs: call_update: 8.685 [ms]
[OGL LOG][Preconditioner.H:121] Generate preconditioner BJ MaxBlockSize 1
[OGL LOG][Proc: 0]p: init_precond: 2.518 [ms]
[OGL LOG][StoppingCriterion.H:239] Creating stopping criterion with minIter 332 frequency 7
[OGL LOG][Proc: 0]p: generate_solver: 0.015 [ms]
[OGL LOG][Proc: 0]p: solve: 3790.971 [ms]
[OGL LOG][Proc: 0]p: copy_x_back: 11.753 [ms]
[OGL LOG][lduLduBase.H:330] 
Statistics:
	Time per iteration: 4470 [mu s]
	Time per residual norm calculation: 1318.000000 [mu s]
	Time per iteration and DOF: 0.088590 [ns]
	Retrieve results bandwidth 2.559000 [GByte/s]
[OGL LOG][Proc: 0]p: solve_multi_gpu: 3846.989 [ms]
BJcudaGKOCG:  Solving for p, Initial residual = 0.2781067852321301, Final residual = 0.002708868332768531, No Iterations 848
time step continuity errors : sum local = 0.007552092934061869, global = -0.0003065398736235538, cumulative = 0.008293480725839245
smoothSolver:  Solving for nuTilda, Initial residual = 0.02203660379087295, Final residual = 0.00211465324537074, No Iterations 3
ExecutionTime = 581.7 s  ClockTime = 584 s

Time = 19

velocityDampingConstraint velocityDamping damped 2 (0%) of cells, with max limit 300
smoothSolver:  Solving for Ux, Initial residual = 0.01484575679537524, Final residual = 0.001296060726146298, No Iterations 4
smoothSolver:  Solving for Uy, Initial residual = 0.0352111109443714, Final residual = 0.002995343559593241, No Iterations 4
smoothSolver:  Solving for Uz, Initial residual = 0.03509911519686523, Final residual = 0.002905538562086926, No Iterations 4
[OGL LOG][Proc: 0]: global_index_init: 0.057 [ms]
[OGL LOG][Proc: 0]p_local_coeffs: call_update: 0 [ms]
[OGL LOG][Proc: 0]p_non_local_coeffs: call_update: 0 [ms]
[OGL LOG][Proc: 0]p: update_local_matrix_data: 153.789 [ms]
[OGL LOG][Proc: 0]p: update_non_local_matrix_data: 2.205 [ms]
[OGL LOG][Proc: 0]p_matrix: call_update: 5.155 [ms]
[OGL LOG][Proc: 0]p_rhs: call_update: 8.699 [ms]
[OGL LOG][Preconditioner.H:121] Generate preconditioner BJ MaxBlockSize 1
[OGL LOG][Proc: 0]p: init_precond: 2.634 [ms]
[OGL LOG][StoppingCriterion.H:239] Creating stopping criterion with minIter 508 frequency 10
[OGL LOG][Proc: 0]p: generate_solver: 0.014 [ms]
[OGL LOG][Proc: 0]p: solve: 2299.816 [ms]
[OGL LOG][Proc: 0]p: copy_x_back: 11.299 [ms]
[OGL LOG][lduLduBase.H:330] 
Statistics:
	Time per iteration: 4500 [mu s]
	Time per residual norm calculation: 1448.000000 [mu s]
	Time per iteration and DOF: 0.089185 [ns]
	Retrieve results bandwidth 2.662000 [GByte/s]
[OGL LOG][Proc: 0]p: solve_multi_gpu: 2344.659 [ms]
BJcudaGKOCG:  Solving for p, Initial residual = 0.4414521421066187, Final residual = 0.001577119803512391, No Iterations 511
time step continuity errors : sum local = 0.002572551384267471, global = 0.0002079246045520362, cumulative = 0.008501405330391282
smoothSolver:  Solving for nuTilda, Initial residual = 0.02543231296928443, Final residual = 0.001974621282849901, No Iterations 3
ExecutionTime = 600.96 s  ClockTime = 604 s

Time = 20

velocityDampingConstraint velocityDamping damped 1 (0%) of cells, with max limit 300
smoothSolver:  Solving for Ux, Initial residual = 0.01506970145644238, Final residual = 0.001284713767676075, No Iterations 4
smoothSolver:  Solving for Uy, Initial residual = 0.03310907082439895, Final residual = 0.002998159532148663, No Iterations 4
smoothSolver:  Solving for Uz, Initial residual = 0.03245835316285729, Final residual = 0.002824265792115618, No Iterations 4
[OGL LOG][Proc: 0]: global_index_init: 0.032 [ms]
[OGL LOG][Proc: 0]p_local_coeffs: call_update: 0 [ms]
[OGL LOG][Proc: 0]p_non_local_coeffs: call_update: 0 [ms]
[OGL LOG][Proc: 0]p: update_local_matrix_data: 152.042 [ms]
[OGL LOG][Proc: 0]p: update_non_local_matrix_data: 2.072 [ms]
[OGL LOG][Proc: 0]p_matrix: call_update: 4.77 [ms]
[OGL LOG][Proc: 0]p_rhs: call_update: 9.201000000000001 [ms]
[OGL LOG][Preconditioner.H:121] Generate preconditioner BJ MaxBlockSize 1
[OGL LOG][Proc: 0]p: init_precond: 2.287 [ms]
[OGL LOG][StoppingCriterion.H:239] Creating stopping criterion with minIter 306 frequency 8
[OGL LOG][Proc: 0]p: generate_solver: 0.018 [ms]
[OGL LOG][Proc: 0]p: solve: 3716.741 [ms]
[OGL LOG][Proc: 0]p: copy_x_back: 11.193 [ms]
[OGL LOG][lduLduBase.H:330] 
Statistics:
	Time per iteration: 4461 [mu s]
	Time per residual norm calculation: 1454.000000 [mu s]
	Time per iteration and DOF: 0.088412 [ns]
	Retrieve results bandwidth 2.687000 [GByte/s]
[OGL LOG][Proc: 0]p: solve_multi_gpu: 3774.645 [ms]
BJcudaGKOCG:  Solving for p, Initial residual = 0.3638403832337725, Final residual = 0.003215369861559318, No Iterations 833
time step continuity errors : sum local = 0.005507653857894042, global = 9.517524432049562e-05, cumulative = 0.008596580574711778
smoothSolver:  Solving for nuTilda, Initial residual = 0.02097829575847751, Final residual = 0.002052251134563172, No Iterations 3
ExecutionTime = 621.55 s  ClockTime = 624 s

Time = 21

velocityDampingConstraint velocityDamping damped 95 (0%) of cells, with max limit 300
smoothSolver:  Solving for Ux, Initial residual = 0.01260930082953765, Final residual = 0.001038719590646129, No Iterations 4
smoothSolver:  Solving for Uy, Initial residual = 0.02552631792538754, Final residual = 0.002229929204865837, No Iterations 4
smoothSolver:  Solving for Uz, Initial residual = 0.02665624398775585, Final residual = 0.002204107667704174, No Iterations 4
[OGL LOG][Proc: 0]: global_index_init: 0.02 [ms]
[OGL LOG][Proc: 0]p_local_coeffs: call_update: 0 [ms]
[OGL LOG][Proc: 0]p_non_local_coeffs: call_update: 0 [ms]
[OGL LOG][Proc: 0]p: update_local_matrix_data: 150.336 [ms]
[OGL LOG][Proc: 0]p: update_non_local_matrix_data: 2.316 [ms]
[OGL LOG][Proc: 0]p_matrix: call_update: 4.962 [ms]
[OGL LOG][Proc: 0]p_rhs: call_update: 8.644 [ms]
[OGL LOG][Preconditioner.H:121] Generate preconditioner BJ MaxBlockSize 1
[OGL LOG][Proc: 0]p: init_precond: 2.499 [ms]
[OGL LOG][StoppingCriterion.H:239] Creating stopping criterion with minIter 499 frequency 10
[OGL LOG][Proc: 0]p: generate_solver: 0.014 [ms]
[OGL LOG][Proc: 0]p: solve: 3659.874 [ms]
[OGL LOG][Proc: 0]p: copy_x_back: 11.357 [ms]
[OGL LOG][lduLduBase.H:330] 
Statistics:
	Time per iteration: 4404 [mu s]
	Time per residual norm calculation: 1461.000000 [mu s]
	Time per iteration and DOF: 0.087282 [ns]
	Retrieve results bandwidth 2.648000 [GByte/s]
[OGL LOG][Proc: 0]p: solve_multi_gpu: 3706.325 [ms]
BJcudaGKOCG:  Solving for p, Initial residual = 0.3132286221076288, Final residual = 0.00285018077390086, No Iterations 831
time step continuity errors : sum local = 0.004699184707925504, global = 0.0002227473414500123, cumulative = 0.008819327916161791
smoothSolver:  Solving for nuTilda, Initial residual = 0.02868212151318903, Final residual = 0.001905635608606821, No Iterations 3
ExecutionTime = 642.24 s  ClockTime = 645 s

Time = 22

velocityDampingConstraint velocityDamping damped 2 (0%) of cells, with max limit 300
smoothSolver:  Solving for Ux, Initial residual = 0.009909499308285427, Final residual = 0.000825191802216484, No Iterations 4
smoothSolver:  Solving for Uy, Initial residual = 0.02428094489309042, Final residual = 0.001979720366872063, No Iterations 4
smoothSolver:  Solving for Uz, Initial residual = 0.02725692789250472, Final residual = 0.002192948736428272, No Iterations 4
[OGL LOG][Proc: 0]: global_index_init: 0.198 [ms]
[OGL LOG][Proc: 0]p_local_coeffs: call_update: 0 [ms]
[OGL LOG][Proc: 0]p_non_local_coeffs: call_update: 0 [ms]
[OGL LOG][Proc: 0]p: update_local_matrix_data: 152.661 [ms]
[OGL LOG][Proc: 0]p: update_non_local_matrix_data: 2.233 [ms]
[OGL LOG][Proc: 0]p_matrix: call_update: 4.827 [ms]
[OGL LOG][Proc: 0]p_rhs: call_update: 9.02 [ms]
[OGL LOG][Preconditioner.H:121] Generate preconditioner BJ MaxBlockSize 1
[OGL LOG][Proc: 0]p: init_precond: 2.582 [ms]
[OGL LOG][StoppingCriterion.H:239] Creating stopping criterion with minIter 498 frequency 10
[OGL LOG][Proc: 0]p: generate_solver: 0.02 [ms]
[OGL LOG][Proc: 0]p: solve: 2257.267 [ms]
[OGL LOG][Proc: 0]p: copy_x_back: 11.332 [ms]
[OGL LOG][lduLduBase.H:330] 
Statistics:
	Time per iteration: 4505 [mu s]
	Time per residual norm calculation: 1021.000000 [mu s]
	Time per iteration and DOF: 0.089284 [ns]
	Retrieve results bandwidth 2.654000 [GByte/s]
[OGL LOG][Proc: 0]p: solve_multi_gpu: 2304.927 [ms]
BJcudaGKOCG:  Solving for p, Initial residual = 0.2727751993755017, Final residual = 0.002240165467797066, No Iterations 501
time step continuity errors : sum local = 0.004067324287779882, global = -0.0007181150427476189, cumulative = 0.008101212873414171
smoothSolver:  Solving for nuTilda, Initial residual = 0.01998599559855754, Final residual = 0.001991522594016273, No Iterations 3
ExecutionTime = 661.67 s  ClockTime = 664 s

Time = 23

velocityDampingConstraint velocityDamping damped 0 (0%) of cells, with max limit 300
smoothSolver:  Solving for Ux, Initial residual = 0.009435678673943477, Final residual = 0.000746910923352633, No Iterations 4
smoothSolver:  Solving for Uy, Initial residual = 0.02475529981078713, Final residual = 0.002076343486749521, No Iterations 4
smoothSolver:  Solving for Uz, Initial residual = 0.02640623199424205, Final residual = 0.002196065128876786, No Iterations 4
[OGL LOG][Proc: 0]: global_index_init: 0.02 [ms]
[OGL LOG][Proc: 0]p_local_coeffs: call_update: 0 [ms]
[OGL LOG][Proc: 0]p_non_local_coeffs: call_update: 0 [ms]
[OGL LOG][Proc: 0]p: update_local_matrix_data: 149.961 [ms]
[OGL LOG][Proc: 0]p: update_non_local_matrix_data: 2.379 [ms]
[OGL LOG][Proc: 0]p_matrix: call_update: 4.739 [ms]
[OGL LOG][Proc: 0]p_rhs: call_update: 7.846 [ms]
[OGL LOG][Preconditioner.H:121] Generate preconditioner BJ MaxBlockSize 1
[OGL LOG][Proc: 0]p: init_precond: 2.279 [ms]
[OGL LOG][StoppingCriterion.H:239] Creating stopping criterion with minIter 300 frequency 7
[OGL LOG][Proc: 0]p: generate_solver: 0.014 [ms]
[OGL LOG][Proc: 0]p: solve: 3647.225 [ms]
[OGL LOG][Proc: 0]p: copy_x_back: 13.343 [ms]
[OGL LOG][lduLduBase.H:330] 
Statistics:
	Time per iteration: 4486 [mu s]
	Time per residual norm calculation: 1318.000000 [mu s]
	Time per iteration and DOF: 0.088907 [ns]
	Retrieve results bandwidth 2.254000 [GByte/s]
[OGL LOG][Proc: 0]p: solve_multi_gpu: 3695.221 [ms]
BJcudaGKOCG:  Solving for p, Initial residual = 0.2431466508623307, Final residual = 0.002338739018214471, No Iterations 813
time step continuity errors : sum local = 0.00425407994498476, global = -0.0001099393513364414, cumulative = 0.00799127352207773
smoothSolver:  Solving for nuTilda, Initial residual = 0.0316467359502861, Final residual = 0.001829134705943673, No Iterations 3
ExecutionTime = 682.26 s  ClockTime = 685 s

Time = 24

velocityDampingConstraint velocityDamping damped 4 (0%) of cells, with max limit 300
smoothSolver:  Solving for Ux, Initial residual = 0.00882340199508942, Final residual = 0.0007610643883411154, No Iterations 4
smoothSolver:  Solving for Uy, Initial residual = 0.02367622762893315, Final residual = 0.002035641515965807, No Iterations 4
smoothSolver:  Solving for Uz, Initial residual = 0.02397240273650731, Final residual = 0.002039631820583164, No Iterations 4
[OGL LOG][Proc: 0]: global_index_init: 0.158 [ms]
[OGL LOG][Proc: 0]p_local_coeffs: call_update: 0 [ms]
[OGL LOG][Proc: 0]p_non_local_coeffs: call_update: 0 [ms]
[OGL LOG][Proc: 0]p: update_local_matrix_data: 153.678 [ms]
[OGL LOG][Proc: 0]p: update_non_local_matrix_data: 2.203 [ms]
[OGL LOG][Proc: 0]p_matrix: call_update: 4.775 [ms]
[OGL LOG][Proc: 0]p_rhs: call_update: 9.499000000000001 [ms]
[OGL LOG][Preconditioner.H:121] Generate preconditioner BJ MaxBlockSize 1
[OGL LOG][Proc: 0]p: init_precond: 2.842 [ms]
[OGL LOG][StoppingCriterion.H:239] Creating stopping criterion with minIter 487 frequency 10
[OGL LOG][Proc: 0]p: generate_solver: 0.017 [ms]
[OGL LOG][Proc: 0]p: solve: 2216.946 [ms]
[OGL LOG][Proc: 0]p: copy_x_back: 11.4 [ms]
[OGL LOG][lduLduBase.H:330] 
Statistics:
	Time per iteration: 4515 [mu s]
	Time per residual norm calculation: 1313.000000 [mu s]
	Time per iteration and DOF: 0.089482 [ns]
	Retrieve results bandwidth 2.638000 [GByte/s]
[OGL LOG][Proc: 0]p: solve_multi_gpu: 2264.075 [ms]
BJcudaGKOCG:  Solving for p, Initial residual = 0.3295797589662265, Final residual = 0.003150022655894671, No Iterations 491
time step continuity errors : sum local = 0.003756636099795605, global = -0.0005091795460962156, cumulative = 0.007482093975981515
smoothSolver:  Solving for nuTilda, Initial residual = 0.01876097588890432, Final residual = 0.001093405366740209, No Iterations 4
ExecutionTime = 701.52 s  ClockTime = 704 s

Time = 25

velocityDampingConstraint velocityDamping damped 4 (0%) of cells, with max limit 300
smoothSolver:  Solving for Ux, Initial residual = 0.00870053484603505, Final residual = 0.0007933545072918401, No Iterations 4
smoothSolver:  Solving for Uy, Initial residual = 0.02333033069997337, Final residual = 0.002075369049692521, No Iterations 4
smoothSolver:  Solving for Uz, Initial residual = 0.02324511318903288, Final residual = 0.002022389246180067, No Iterations 4
[OGL LOG][Proc: 0]: global_index_init: 0.027 [ms]
[OGL LOG][Proc: 0]p_local_coeffs: call_update: 0 [ms]
[OGL LOG][Proc: 0]p_non_local_coeffs: call_update: 0 [ms]
[OGL LOG][Proc: 0]p: update_local_matrix_data: 153.605 [ms]
[OGL LOG][Proc: 0]p: update_non_local_matrix_data: 2.051 [ms]
[OGL LOG][Proc: 0]p_matrix: call_update: 4.629 [ms]
[OGL LOG][Proc: 0]p_rhs: call_update: 8.380000000000001 [ms]
[OGL LOG][Preconditioner.H:121] Generate preconditioner BJ MaxBlockSize 1
[OGL LOG][Proc: 0]p: init_precond: 2.382 [ms]
[OGL LOG][StoppingCriterion.H:239] Creating stopping criterion with minIter 294 frequency 8
[OGL LOG][Proc: 0]p: generate_solver: 0.018 [ms]
[OGL LOG][Proc: 0]p: solve: 1418.003 [ms]
[OGL LOG][Proc: 0]p: copy_x_back: 11.688 [ms]
[OGL LOG][lduLduBase.H:330] 
Statistics:
	Time per iteration: 4774 [mu s]
	Time per residual norm calculation: 1312.000000 [mu s]
	Time per iteration and DOF: 0.094615 [ns]
	Retrieve results bandwidth 2.573000 [GByte/s]
[OGL LOG][Proc: 0]p: solve_multi_gpu: 1461.74 [ms]
BJcudaGKOCG:  Solving for p, Initial residual = 0.3479656785178094, Final residual = 0.00333961504676439, No Iterations 297
time step continuity errors : sum local = 0.003378680591490762, global = 0.0001585919023567211, cumulative = 0.007640685878338236
smoothSolver:  Solving for nuTilda, Initial residual = 0.03176099802379655, Final residual = 0.001751931012149726, No Iterations 3
ExecutionTime = 720.02 s  ClockTime = 723 s

Time = 26

velocityDampingConstraint velocityDamping damped 0 (0%) of cells, with max limit 300
smoothSolver:  Solving for Ux, Initial residual = 0.008805046594309777, Final residual = 0.0007858512141790773, No Iterations 4
smoothSolver:  Solving for Uy, Initial residual = 0.0211822187435662, Final residual = 0.001945361632840565, No Iterations 4
smoothSolver:  Solving for Uz, Initial residual = 0.02138413159144241, Final residual = 0.001879124148263249, No Iterations 4
[OGL LOG][Proc: 0]: global_index_init: 0.019 [ms]
[OGL LOG][Proc: 0]p_local_coeffs: call_update: 0 [ms]
[OGL LOG][Proc: 0]p_non_local_coeffs: call_update: 0 [ms]
[OGL LOG][Proc: 0]p: update_local_matrix_data: 152.378 [ms]
[OGL LOG][Proc: 0]p: update_non_local_matrix_data: 2.346 [ms]
[OGL LOG][Proc: 0]p_matrix: call_update: 4.78 [ms]
[OGL LOG][Proc: 0]p_rhs: call_update: 9.372 [ms]
[OGL LOG][Preconditioner.H:121] Generate preconditioner BJ MaxBlockSize 1
[OGL LOG][Proc: 0]p: init_precond: 2.298 [ms]
[OGL LOG][StoppingCriterion.H:239] Creating stopping criterion with minIter 178 frequency 6
[OGL LOG][Proc: 0]p: generate_solver: 0.015 [ms]
[OGL LOG][Proc: 0]p: solve: 3643.928 [ms]
[OGL LOG][Proc: 0]p: copy_x_back: 12.068 [ms]
[OGL LOG][lduLduBase.H:330] 
Statistics:
	Time per iteration: 4526 [mu s]
	Time per residual norm calculation: 1318.000000 [mu s]
	Time per iteration and DOF: 0.089700 [ns]
	Retrieve results bandwidth 2.492000 [GByte/s]
[OGL LOG][Proc: 0]p: solve_multi_gpu: 3692.128 [ms]
BJcudaGKOCG:  Solving for p, Initial residual = 0.3104619691829179, Final residual = 0.002962637969576834, No Iterations 805
time step continuity errors : sum local = 0.002957482473498277, global = 7.370668984400305e-05, cumulative = 0.007714392568182239
smoothSolver:  Solving for nuTilda, Initial residual = 0.01741243253991957, Final residual = 0.001055282803679616, No Iterations 4
ExecutionTime = 740.8200000000001 s  ClockTime = 744 s

Time = 27

velocityDampingConstraint velocityDamping damped 0 (0%) of cells, with max limit 300
smoothSolver:  Solving for Ux, Initial residual = 0.007648136220563058, Final residual = 0.0006709561206209629, No Iterations 4
smoothSolver:  Solving for Uy, Initial residual = 0.0190502859250599, Final residual = 0.001742266895699407, No Iterations 4
smoothSolver:  Solving for Uz, Initial residual = 0.01958585942970545, Final residual = 0.001695386781995127, No Iterations 4
[OGL LOG][Proc: 0]: global_index_init: 0.02 [ms]
[OGL LOG][Proc: 0]p_local_coeffs: call_update: 0 [ms]
[OGL LOG][Proc: 0]p_non_local_coeffs: call_update: 0 [ms]
[OGL LOG][Proc: 0]p: update_local_matrix_data: 153.989 [ms]
[OGL LOG][Proc: 0]p: update_non_local_matrix_data: 2.239 [ms]
[OGL LOG][Proc: 0]p_matrix: call_update: 4.521 [ms]
[OGL LOG][Proc: 0]p_rhs: call_update: 8.49 [ms]
[OGL LOG][Preconditioner.H:121] Generate preconditioner BJ MaxBlockSize 1
[OGL LOG][Proc: 0]p: init_precond: 2.364 [ms]
[OGL LOG][StoppingCriterion.H:239] Creating stopping criterion with minIter 483 frequency 10
[OGL LOG][Proc: 0]p: generate_solver: 0.015 [ms]
[OGL LOG][Proc: 0]p: solve: 2893.986 [ms]
[OGL LOG][Proc: 0]p: copy_x_back: 11.605 [ms]
[OGL LOG][lduLduBase.H:330] 
Statistics:
	Time per iteration: 4445 [mu s]
	Time per residual norm calculation: 1312.000000 [mu s]
	Time per iteration and DOF: 0.088095 [ns]
	Retrieve results bandwidth 2.592000 [GByte/s]
[OGL LOG][Proc: 0]p: solve_multi_gpu: 2936.971 [ms]
BJcudaGKOCG:  Solving for p, Initial residual = 0.2137799424049275, Final residual = 0.002076953259245045, No Iterations 651
time step continuity errors : sum local = 0.002645790514550861, global = 0.0003161039304330443, cumulative = 0.008030496498615283
smoothSolver:  Solving for nuTilda, Initial residual = 0.0306695105555599, Final residual = 0.001681582838987012, No Iterations 3
ExecutionTime = 760.72 s  ClockTime = 764 s

Time = 28

velocityDampingConstraint velocityDamping damped 2 (0%) of cells, with max limit 300
smoothSolver:  Solving for Ux, Initial residual = 0.006863801702200314, Final residual = 0.0005980127047972144, No Iterations 4
smoothSolver:  Solving for Uy, Initial residual = 0.01879307128481238, Final residual = 0.001692139542191861, No Iterations 4
smoothSolver:  Solving for Uz, Initial residual = 0.01954392210119814, Final residual = 0.001704512176409756, No Iterations 4
[OGL LOG][Proc: 0]: global_index_init: 0.135 [ms]
[OGL LOG][Proc: 0]p_local_coeffs: call_update: 0 [ms]
[OGL LOG][Proc: 0]p_non_local_coeffs: call_update: 0 [ms]
[OGL LOG][Proc: 0]p: update_local_matrix_data: 152.933 [ms]
[OGL LOG][Proc: 0]p: update_non_local_matrix_data: 2.215 [ms]
[OGL LOG][Proc: 0]p_matrix: call_update: 4.632 [ms]
[OGL LOG][Proc: 0]p_rhs: call_update: 8.878 [ms]
[OGL LOG][Preconditioner.H:121] Generate preconditioner BJ MaxBlockSize 1
[OGL LOG][Proc: 0]p: init_precond: 2.755 [ms]
[OGL LOG][StoppingCriterion.H:239] Creating stopping criterion with minIter 390 frequency 9
[OGL LOG][Proc: 0]p: generate_solver: 0.021 [ms]
[OGL LOG][Proc: 0]p: solve: 1987.501 [ms]
[OGL LOG][Proc: 0]p: copy_x_back: 11.359 [ms]
[OGL LOG][lduLduBase.H:330] 
Statistics:
	Time per iteration: 4590 [mu s]
	Time per residual norm calculation: 1310.000000 [mu s]
	Time per iteration and DOF: 0.090968 [ns]
	Retrieve results bandwidth 2.648000 [GByte/s]
[OGL LOG][Proc: 0]p: solve_multi_gpu: 2033.678 [ms]
BJcudaGKOCG:  Solving for p, Initial residual = 0.1932959245729622, Final residual = 0.001921755021815318, No Iterations 433
time step continuity errors : sum local = 0.002432300435623234, global = -0.0004353998386728598, cumulative = 0.007595096659942423
smoothSolver:  Solving for nuTilda, Initial residual = 0.01608502646334398, Final residual = 0.001011714203735933, No Iterations 4
ExecutionTime = 779.6 s  ClockTime = 783 s

Time = 29

velocityDampingConstraint velocityDamping damped 0 (0%) of cells, with max limit 300
smoothSolver:  Solving for Ux, Initial residual = 0.00682497662072964, Final residual = 0.0005827203842058637, No Iterations 4
smoothSolver:  Solving for Uy, Initial residual = 0.01904104911339606, Final residual = 0.00171872316480833, No Iterations 4
smoothSolver:  Solving for Uz, Initial residual = 0.01943967477917746, Final residual = 0.001699820364402444, No Iterations 4
[OGL LOG][Proc: 0]: global_index_init: 0.02 [ms]
[OGL LOG][Proc: 0]p_local_coeffs: call_update: 0 [ms]
[OGL LOG][Proc: 0]p_non_local_coeffs: call_update: 0 [ms]
[OGL LOG][Proc: 0]p: update_local_matrix_data: 149.469 [ms]
[OGL LOG][Proc: 0]p: update_non_local_matrix_data: 2.44 [ms]
[OGL LOG][Proc: 0]p_matrix: call_update: 4.907 [ms]
[OGL LOG][Proc: 0]p_rhs: call_update: 9.807 [ms]
[OGL LOG][Preconditioner.H:121] Generate preconditioner BJ MaxBlockSize 1
[OGL LOG][Proc: 0]p: init_precond: 1.936 [ms]
[OGL LOG][StoppingCriterion.H:239] Creating stopping criterion with minIter 259 frequency 7
[OGL LOG][Proc: 0]p: generate_solver: 0.014 [ms]
[OGL LOG][Proc: 0]p: solve: 3568.919 [ms]
[OGL LOG][Proc: 0]p: copy_x_back: 14.999 [ms]
[OGL LOG][lduLduBase.H:330] 
Statistics:
	Time per iteration: 4546 [mu s]
	Time per residual norm calculation: 1316.000000 [mu s]
	Time per iteration and DOF: 0.090096 [ns]
	Retrieve results bandwidth 2.005000 [GByte/s]
[OGL LOG][Proc: 0]p: solve_multi_gpu: 3620.753 [ms]
BJcudaGKOCG:  Solving for p, Initial residual = 0.1721843729603305, Final residual = 0.001679755612942629, No Iterations 785
time step continuity errors : sum local = 0.002172226605760563, global = -7.760928629948787e-05, cumulative = 0.007517487373642935
smoothSolver:  Solving for nuTilda, Initial residual = 0.02861283568470289, Final residual = 0.001611965825423295, No Iterations 3
ExecutionTime = 800 s  ClockTime = 803 s

Time = 30

velocityDampingConstraint velocityDamping damped 0 (0%) of cells, with max limit 300
smoothSolver:  Solving for Ux, Initial residual = 0.00650573397413608, Final residual = 0.0005769111144274883, No Iterations 4
smoothSolver:  Solving for Uy, Initial residual = 0.01884335540572067, Final residual = 0.001708833875541071, No Iterations 4
smoothSolver:  Solving for Uz, Initial residual = 0.0188136206267815, Final residual = 0.001648021865197191, No Iterations 4
[OGL LOG][Proc: 0]: global_index_init: 0.02 [ms]
[OGL LOG][Proc: 0]p_local_coeffs: call_update: 0 [ms]
[OGL LOG][Proc: 0]p_non_local_coeffs: call_update: 0 [ms]
[OGL LOG][Proc: 0]p: update_local_matrix_data: 152.424 [ms]
[OGL LOG][Proc: 0]p: update_non_local_matrix_data: 2.268 [ms]
[OGL LOG][Proc: 0]p_matrix: call_update: 5.006 [ms]
[OGL LOG][Proc: 0]p_rhs: call_update: 9.084 [ms]
[OGL LOG][Preconditioner.H:121] Generate preconditioner BJ MaxBlockSize 1
[OGL LOG][Proc: 0]p: init_precond: 2.416 [ms]
[OGL LOG][StoppingCriterion.H:239] Creating stopping criterion with minIter 471 frequency 10
[OGL LOG][Proc: 0]p: generate_solver: 0.016 [ms]
[OGL LOG][Proc: 0]p: solve: 2195.565 [ms]
[OGL LOG][Proc: 0]p: copy_x_back: 11.327 [ms]
[OGL LOG][lduLduBase.H:330] 
Statistics:
	Time per iteration: 4564 [mu s]
	Time per residual norm calculation: 1462.000000 [mu s]
	Time per iteration and DOF: 0.090453 [ns]
	Retrieve results bandwidth 2.655000 [GByte/s]
[OGL LOG][Proc: 0]p: solve_multi_gpu: 2240.74 [ms]
BJcudaGKOCG:  Solving for p, Initial residual = 0.2738523753423139, Final residual = 0.001891841476373979, No Iterations 481
time step continuity errors : sum local = 0.001383413628877808, global = -0.0001758843286938831, cumulative = 0.007341603044949052
smoothSolver:  Solving for nuTilda, Initial residual = 0.01490213032912245, Final residual = 0.0009677210113502097, No Iterations 4
ExecutionTime = 819.16 s  ClockTime = 822 s

Time = 31

velocityDampingConstraint velocityDamping damped 0 (0%) of cells, with max limit 300
smoothSolver:  Solving for Ux, Initial residual = 0.006475835813437489, Final residual = 0.0005762830101668737, No Iterations 4
smoothSolver:  Solving for Uy, Initial residual = 0.01815471301043916, Final residual = 0.001665208689814363, No Iterations 4
smoothSolver:  Solving for Uz, Initial residual = 0.01816386807010842, Final residual = 0.001600725463818834, No Iterations 4
[OGL LOG][Proc: 0]: global_index_init: 0.024 [ms]
[OGL LOG][Proc: 0]p_local_coeffs: call_update: 0 [ms]
[OGL LOG][Proc: 0]p_non_local_coeffs: call_update: 0 [ms]
[OGL LOG][Proc: 0]p: update_local_matrix_data: 150.247 [ms]
[OGL LOG][Proc: 0]p: update_non_local_matrix_data: 2.195 [ms]
[OGL LOG][Proc: 0]p_matrix: call_update: 4.761 [ms]
[OGL LOG][Proc: 0]p_rhs: call_update: 9.380000000000001 [ms]
[OGL LOG][Preconditioner.H:121] Generate preconditioner BJ MaxBlockSize 1
[OGL LOG][Proc: 0]p: init_precond: 2.587 [ms]
[OGL LOG][StoppingCriterion.H:239] Creating stopping criterion with minIter 288 frequency 8
[OGL LOG][Proc: 0]p: generate_solver: 0.02 [ms]
[OGL LOG][Proc: 0]p: solve: 3349.758 [ms]
[OGL LOG][Proc: 0]p: copy_x_back: 11.338 [ms]
[OGL LOG][lduLduBase.H:330] 
Statistics:
	Time per iteration: 4496 [mu s]
	Time per residual norm calculation: 1307.000000 [mu s]
	Time per iteration and DOF: 0.089105 [ns]
	Retrieve results bandwidth 2.653000 [GByte/s]
[OGL LOG][Proc: 0]p: solve_multi_gpu: 3400.646 [ms]
BJcudaGKOCG:  Solving for p, Initial residual = 0.2603671624966045, Final residual = 0.002492368935452775, No Iterations 745
time step continuity errors : sum local = 0.00173543526616716, global = 6.792329300587262e-05, cumulative = 0.007409526337954924
smoothSolver:  Solving for nuTilda, Initial residual = 0.02666635369952743, Final residual = 0.001548322972420833, No Iterations 3
ExecutionTime = 839.42 s  ClockTime = 843 s

Time = 32

velocityDampingConstraint velocityDamping damped 0 (0%) of cells, with max limit 300
smoothSolver:  Solving for Ux, Initial residual = 0.006361590150927778, Final residual = 0.0005613775368070754, No Iterations 4
smoothSolver:  Solving for Uy, Initial residual = 0.01722667156174456, Final residual = 0.001574750161371234, No Iterations 4
smoothSolver:  Solving for Uz, Initial residual = 0.01715883793074477, Final residual = 0.001530907941815236, No Iterations 4
[OGL LOG][Proc: 0]: global_index_init: 0.021 [ms]
[OGL LOG][Proc: 0]p_local_coeffs: call_update: 0 [ms]
[OGL LOG][Proc: 0]p_non_local_coeffs: call_update: 0 [ms]
[OGL LOG][Proc: 0]p: update_local_matrix_data: 153.322 [ms]
[OGL LOG][Proc: 0]p: update_non_local_matrix_data: 2.275 [ms]
[OGL LOG][Proc: 0]p_matrix: call_update: 5.094 [ms]
[OGL LOG][Proc: 0]p_rhs: call_update: 8.499000000000001 [ms]
[OGL LOG][Preconditioner.H:121] Generate preconditioner BJ MaxBlockSize 1
[OGL LOG][Proc: 0]p: init_precond: 2.472 [ms]
[OGL LOG][StoppingCriterion.H:239] Creating stopping criterion with minIter 447 frequency 9
[OGL LOG][Proc: 0]p: generate_solver: 0.015 [ms]
[OGL LOG][Proc: 0]p: solve: 3684.697 [ms]
[OGL LOG][Proc: 0]p: copy_x_back: 11.529 [ms]
[OGL LOG][lduLduBase.H:330] 
Statistics:
	Time per iteration: 4444 [mu s]
	Time per residual norm calculation: 1018.000000 [mu s]
	Time per iteration and DOF: 0.088075 [ns]
	Retrieve results bandwidth 2.609000 [GByte/s]
[OGL LOG][Proc: 0]p: solve_multi_gpu: 3728.548 [ms]
BJcudaGKOCG:  Solving for p, Initial residual = 0.2194437978322343, Final residual = 0.002108495397533811, No Iterations 829
time step continuity errors : sum local = 0.001600755465301659, global = -1.769799133564279e-05, cumulative = 0.007391828346619281
smoothSolver:  Solving for nuTilda, Initial residual = 0.0139221207557078, Final residual = 0.0009278969089987482, No Iterations 4
ExecutionTime = 860.16 s  ClockTime = 863 s

Time = 33

velocityDampingConstraint velocityDamping damped 0 (0%) of cells, with max limit 300
smoothSolver:  Solving for Ux, Initial residual = 0.005898049477475359, Final residual = 0.000518438663104476, No Iterations 4
smoothSolver:  Solving for Uy, Initial residual = 0.01643672770366263, Final residual = 0.001508126479872193, No Iterations 4
smoothSolver:  Solving for Uz, Initial residual = 0.01650490421253149, Final residual = 0.001486320653252508, No Iterations 4
[OGL LOG][Proc: 0]: global_index_init: 0.021 [ms]
[OGL LOG][Proc: 0]p_local_coeffs: call_update: 0 [ms]
[OGL LOG][Proc: 0]p_non_local_coeffs: call_update: 0 [ms]
[OGL LOG][Proc: 0]p: update_local_matrix_data: 153.715 [ms]
[OGL LOG][Proc: 0]p: update_non_local_matrix_data: 2.182 [ms]
[OGL LOG][Proc: 0]p_matrix: call_update: 5.017 [ms]
[OGL LOG][Proc: 0]p_rhs: call_update: 9.276 [ms]
[OGL LOG][Preconditioner.H:121] Generate preconditioner BJ MaxBlockSize 1
[OGL LOG][Proc: 0]p: init_precond: 2.301 [ms]
[OGL LOG][StoppingCriterion.H:239] Creating stopping criterion with minIter 497 frequency 9
[OGL LOG][Proc: 0]p: generate_solver: 0.019 [ms]
[OGL LOG][Proc: 0]p: solve: 2285.37 [ms]
[OGL LOG][Proc: 0]p: copy_x_back: 11.594 [ms]
[OGL LOG][lduLduBase.H:330] 
Statistics:
	Time per iteration: 4525 [mu s]
	Time per residual norm calculation: 1314.000000 [mu s]
	Time per iteration and DOF: 0.089680 [ns]
	Retrieve results bandwidth 2.594000 [GByte/s]
[OGL LOG][Proc: 0]p: solve_multi_gpu: 2333.229 [ms]
BJcudaGKOCG:  Solving for p, Initial residual = 0.1510071242625056, Final residual = 0.001348091408297604, No Iterations 505
time step continuity errors : sum local = 0.0013462617640223, global = 0.0001581416499018858, cumulative = 0.007549969996521167
smoothSolver:  Solving for nuTilda, Initial residual = 0.02497595232272523, Final residual = 0.001489081418458873, No Iterations 3
ExecutionTime = 879.28 s  ClockTime = 883 s

Time = 34

velocityDampingConstraint velocityDamping damped 0 (0%) of cells, with max limit 300
smoothSolver:  Solving for Ux, Initial residual = 0.005518179566823089, Final residual = 0.0004890193935259973, No Iterations 4
smoothSolver:  Solving for Uy, Initial residual = 0.01637903117175782, Final residual = 0.001501376383496114, No Iterations 4
smoothSolver:  Solving for Uz, Initial residual = 0.01639262869949374, Final residual = 0.00149039676138417, No Iterations 4
[OGL LOG][Proc: 0]: global_index_init: 0.148 [ms]
[OGL LOG][Proc: 0]p_local_coeffs: call_update: 0 [ms]
[OGL LOG][Proc: 0]p_non_local_coeffs: call_update: 0 [ms]
[OGL LOG][Proc: 0]p: update_local_matrix_data: 149.588 [ms]
[OGL LOG][Proc: 0]p: update_non_local_matrix_data: 2.422 [ms]
[OGL LOG][Proc: 0]p_matrix: call_update: 5.206 [ms]
[OGL LOG][Proc: 0]p_rhs: call_update: 9.789999999999999 [ms]
[OGL LOG][Preconditioner.H:121] Generate preconditioner BJ MaxBlockSize 1
[OGL LOG][Proc: 0]p: init_precond: 1.172 [ms]
[OGL LOG][StoppingCriterion.H:239] Creating stopping criterion with minIter 303 frequency 8
[OGL LOG][Proc: 0]p: generate_solver: 0.014 [ms]
[OGL LOG][Proc: 0]p: solve: 1470.575 [ms]
[OGL LOG][Proc: 0]p: copy_x_back: 15.419 [ms]
[OGL LOG][lduLduBase.H:330] 
Statistics:
	Time per iteration: 4821 [mu s]
	Time per residual norm calculation: 1460.000000 [mu s]
	Time per iteration and DOF: 0.095547 [ns]
	Retrieve results bandwidth 1.950000 [GByte/s]
[OGL LOG][Proc: 0]p: solve_multi_gpu: 1523.12 [ms]
BJcudaGKOCG:  Solving for p, Initial residual = 0.1423247987544298, Final residual = 0.001420594955458448, No Iterations 305
time step continuity errors : sum local = 0.001392507449235072, global = -0.0002328448042508602, cumulative = 0.007317125192270306
smoothSolver:  Solving for nuTilda, Initial residual = 0.01306774602955788, Final residual = 0.0008887981469154548, No Iterations 4
ExecutionTime = 897.66 s  ClockTime = 901 s

Time = 35

velocityDampingConstraint velocityDamping damped 0 (0%) of cells, with max limit 300
smoothSolver:  Solving for Ux, Initial residual = 0.005497735558227058, Final residual = 0.000482574612469014, No Iterations 4
smoothSolver:  Solving for Uy, Initial residual = 0.01632050418640618, Final residual = 0.001510901944016905, No Iterations 4
smoothSolver:  Solving for Uz, Initial residual = 0.01643509714724067, Final residual = 0.001497005873032656, No Iterations 4
[OGL LOG][Proc: 0]: global_index_init: 0.019 [ms]
[OGL LOG][Proc: 0]p_local_coeffs: call_update: 0 [ms]
[OGL LOG][Proc: 0]p_non_local_coeffs: call_update: 0 [ms]
[OGL LOG][Proc: 0]p: update_local_matrix_data: 153.707 [ms]
[...]
[OGL LOG][lduLduBase.H:330] 
Statistics:
	Time per iteration: 4660 [mu s]
	Time per residual norm calculation: 1312.000000 [mu s]
	Time per iteration and DOF: 0.092356 [ns]
	Retrieve results bandwidth 2.684000 [GByte/s]
[OGL LOG][Proc: 0]p: solve_multi_gpu: 2412.346 [ms]
BJcudaGKOCG:  Solving for p, Initial residual = 0.04493878741906422, Final residual = 0.0004342744251967752, No Iterations 505
time step continuity errors : sum local = 0.0003294494625986918, global = -9.343783056794135e-06, cumulative = 0.007295818446854942
smoothSolver:  Solving for nuTilda, Initial residual = 0.006387936128358561, Final residual = 0.0004712500667173284, No Iterations 4
ExecutionTime = 1961.56 s  ClockTime = 1967 s

Time = 91

velocityDampingConstraint velocityDamping damped 0 (0%) of cells, with max limit 300
smoothSolver:  Solving for Ux, Initial residual = 0.002816972273185892, Final residual = 0.0002751998159783662, No Iterations 4
smoothSolver:  Solving for Uy, Initial residual = 0.01181667842934277, Final residual = 0.001167491566135324, No Iterations 4
smoothSolver:  Solving for Uz, Initial residual = 0.01301652732110993, Final residual = 0.001292609968517694, No Iterations 4
[OGL LOG][Proc: 0]: global_index_init: 0.019 [ms]
[OGL LOG][Proc: 0]p_local_coeffs: call_update: 0 [ms]
[OGL LOG][Proc: 0]p_non_local_coeffs: call_update: 0 [ms]
[OGL LOG][Proc: 0]p: update_local_matrix_data: 153.529 [ms]
[OGL LOG][Proc: 0]p: update_non_local_matrix_data: 2.298 [ms]
[OGL LOG][Proc: 0]p_matrix: call_update: 4.66 [ms]
[OGL LOG][Proc: 0]p_rhs: call_update: 9.366 [ms]
[OGL LOG][Preconditioner.H:121] Generate preconditioner BJ MaxBlockSize 1
[OGL LOG][Proc: 0]p: init_precond: 2.109 [ms]
[OGL LOG][StoppingCriterion.H:239] Creating stopping criterion with minIter 303 frequency 8
[OGL LOG][Proc: 0]p: generate_solver: 0.015 [ms]
[OGL LOG][Proc: 0]p: solve: 1595.411 [ms]
[OGL LOG][Proc: 0]p: copy_x_back: 11.505 [ms]
[OGL LOG][lduLduBase.H:330] 
Statistics:
	Time per iteration: 5230 [mu s]
	Time per residual norm calculation: 1311.000000 [mu s]
	Time per iteration and DOF: 0.103652 [ns]
	Retrieve results bandwidth 2.614000 [GByte/s]
[OGL LOG][Proc: 0]p: solve_multi_gpu: 1642.349 [ms]
BJcudaGKOCG:  Solving for p, Initial residual = 0.04572400200560101, Final residual = 0.0003748677765495942, No Iterations 305
time step continuity errors : sum local = 0.0002762052522027789, global = -4.424650709900667e-05, cumulative = 0.007251571939755935
smoothSolver:  Solving for nuTilda, Initial residual = 0.009444662002268695, Final residual = 0.000823001903006595, No Iterations 3
ExecutionTime = 1980.08 s  ClockTime = 1986 s

Time = 92

velocityDampingConstraint velocityDamping damped 0 (0%) of cells, with max limit 300
smoothSolver:  Solving for Ux, Initial residual = 0.002789168324101213, Final residual = 0.0002741280294899571, No Iterations 4
smoothSolver:  Solving for Uy, Initial residual = 0.01183498344511391, Final residual = 0.001171222753021973, No Iterations 4
smoothSolver:  Solving for Uz, Initial residual = 0.01306313178682166, Final residual = 0.001296504726409386, No Iterations 4
[OGL LOG][Proc: 0]: global_index_init: 0.02 [ms]
[OGL LOG][Proc: 0]p_local_coeffs: call_update: 0 [ms]
[OGL LOG][Proc: 0]p_non_local_coeffs: call_update: 0 [ms]
[OGL LOG][Proc: 0]p: update_local_matrix_data: 137.251 [ms]
[OGL LOG][Proc: 0]p: update_non_local_matrix_data: 2.124 [ms]
[OGL LOG][Proc: 0]p_matrix: call_update: 4.64 [ms]
[OGL LOG][Proc: 0]p_rhs: call_update: 7.813 [ms]
[OGL LOG][Preconditioner.H:121] Generate preconditioner BJ MaxBlockSize 1
[OGL LOG][Proc: 0]p: init_precond: 2.407 [ms]
[OGL LOG][StoppingCriterion.H:239] Creating stopping criterion with minIter 183 frequency 6
[OGL LOG][Proc: 0]p: generate_solver: 0.018 [ms]
[OGL LOG][Proc: 0]p: solve: 988.72 [ms]
[OGL LOG][Proc: 0]p: copy_x_back: 11.325 [ms]
[OGL LOG][lduLduBase.H:330] 
Statistics:
	Time per iteration: 5287 [mu s]
	Time per residual norm calculation: 1459.000000 [mu s]
	Time per iteration and DOF: 0.104782 [ns]
	Retrieve results bandwidth 2.656000 [GByte/s]
[OGL LOG][Proc: 0]p: solve_multi_gpu: 1048.596 [ms]
BJcudaGKOCG:  Solving for p, Initial residual = 0.04564204845783158, Final residual = 0.0003863601212273998, No Iterations 187
time step continuity errors : sum local = 0.0002825238819452465, global = -6.147959981246241e-05, cumulative = 0.007190092339943473
smoothSolver:  Solving for nuTilda, Initial residual = 0.006329562055272474, Final residual = 0.000470067673130685, No Iterations 4
ExecutionTime = 1997.95 s  ClockTime = 2004 s

Time = 93

velocityDampingConstraint velocityDamping damped 0 (0%) of cells, with max limit 300
smoothSolver:  Solving for Ux, Initial residual = 0.002798968926031114, Final residual = 0.0002737929651248821, No Iterations 4
smoothSolver:  Solving for Uy, Initial residual = 0.01184348025525783, Final residual = 0.001173797272818749, No Iterations 4
smoothSolver:  Solving for Uz, Initial residual = 0.01308285233870661, Final residual = 0.001298453155409413, No Iterations 4
[OGL LOG][Proc: 0]: global_index_init: 0.326 [ms]
[OGL LOG][Proc: 0]p_local_coeffs: call_update: 0 [ms]
[OGL LOG][Proc: 0]p_non_local_coeffs: call_update: 0 [ms]
[OGL LOG][Proc: 0]p: update_local_matrix_data: 153.018 [ms]
[OGL LOG][Proc: 0]p: update_non_local_matrix_data: 2.403 [ms]
[OGL LOG][Proc: 0]p_matrix: call_update: 4.778 [ms]
[OGL LOG][Proc: 0]p_rhs: call_update: 9.391999999999999 [ms]
[OGL LOG][Preconditioner.H:121] Generate preconditioner BJ MaxBlockSize 1
[OGL LOG][Proc: 0]p: init_precond: 2.781 [ms]
[OGL LOG][StoppingCriterion.H:239] Creating stopping criterion with minIter 112 frequency 4
[OGL LOG][Proc: 0]p: generate_solver: 0.015 [ms]
[OGL LOG][Proc: 0]p: solve: 2027.953 [ms]
[OGL LOG][Proc: 0]p: copy_x_back: 11.166 [ms]
[OGL LOG][lduLduBase.H:330] 
Statistics:
	Time per iteration: 4816 [mu s]
	Time per residual norm calculation: 1319.000000 [mu s]
	Time per iteration and DOF: 0.095447 [ns]
	Retrieve results bandwidth 2.694000 [GByte/s]
[OGL LOG][Proc: 0]p: solve_multi_gpu: 2076.783 [ms]
BJcudaGKOCG:  Solving for p, Initial residual = 0.04520658685744156, Final residual = 0.0004427227149683943, No Iterations 421
time step continuity errors : sum local = 0.0003225419016248346, global = -3.413288494667425e-05, cumulative = 0.007155959454996799
smoothSolver:  Solving for nuTilda, Initial residual = 0.009240131264825759, Final residual = 0.000822226131108374, No Iterations 3
ExecutionTime = 2016.73 s  ClockTime = 2023 s

Time = 94

velocityDampingConstraint velocityDamping damped 0 (0%) of cells, with max limit 300
smoothSolver:  Solving for Ux, Initial residual = 0.00277393126287054, Final residual = 0.0002727316636095249, No Iterations 4
smoothSolver:  Solving for Uy, Initial residual = 0.01188563552483393, Final residual = 0.001177733700981211, No Iterations 4
smoothSolver:  Solving for Uz, Initial residual = 0.0130959810760068, Final residual = 0.001300382956255966, No Iterations 4
[OGL LOG][Proc: 0]: global_index_init: 0.02 [ms]
[OGL LOG][Proc: 0]p_local_coeffs: call_update: 0 [ms]
[OGL LOG][Proc: 0]p_non_local_coeffs: call_update: 0 [ms]
[OGL LOG][Proc: 0]p: update_local_matrix_data: 138.055 [ms]
[OGL LOG][Proc: 0]p: update_non_local_matrix_data: 2.219 [ms]
[OGL LOG][Proc: 0]p_matrix: call_update: 5.488 [ms]
[OGL LOG][Proc: 0]p_rhs: call_update: 7.964 [ms]
[OGL LOG][Preconditioner.H:121] Generate preconditioner BJ MaxBlockSize 1
[OGL LOG][Proc: 0]p: init_precond: 2.405 [ms]
[OGL LOG][StoppingCriterion.H:239] Creating stopping criterion with minIter 252 frequency 7
[OGL LOG][Proc: 0]p: generate_solver: 0.018 [ms]
[OGL LOG][Proc: 0]p: solve: 1261.737 [ms]
[OGL LOG][Proc: 0]p: copy_x_back: 11.365 [ms]
[OGL LOG][lduLduBase.H:330] 
Statistics:
	Time per iteration: 4987 [mu s]
	Time per residual norm calculation: 1315.000000 [mu s]
	Time per iteration and DOF: 0.098836 [ns]
	Retrieve results bandwidth 2.646000 [GByte/s]
[OGL LOG][Proc: 0]p: solve_multi_gpu: 1320.889 [ms]
BJcudaGKOCG:  Solving for p, Initial residual = 0.04494054813511449, Final residual = 0.0002571675230827426, No Iterations 253
time step continuity errors : sum local = 0.0001871108457277779, global = -7.916251743725872e-06, cumulative = 0.007148043203253073
smoothSolver:  Solving for nuTilda, Initial residual = 0.00627226961678356, Final residual = 0.0004694182655334285, No Iterations 4
ExecutionTime = 2034.92 s  ClockTime = 2041 s

Time = 95

velocityDampingConstraint velocityDamping damped 0 (0%) of cells, with max limit 300
smoothSolver:  Solving for Ux, Initial residual = 0.002786332691642986, Final residual = 0.0002724396997132406, No Iterations 4
smoothSolver:  Solving for Uy, Initial residual = 0.01193453470287891, Final residual = 0.001182529891272242, No Iterations 4
smoothSolver:  Solving for Uz, Initial residual = 0.01310292724185327, Final residual = 0.001302022279517817, No Iterations 4
[OGL LOG][Proc: 0]: global_index_init: 0.026 [ms]
[OGL LOG][Proc: 0]p_local_coeffs: call_update: 0 [ms]
[OGL LOG][Proc: 0]p_non_local_coeffs: call_update: 0 [ms]
[OGL LOG][Proc: 0]p: update_local_matrix_data: 151.904 [ms]
[OGL LOG][Proc: 0]p: update_non_local_matrix_data: 2.235 [ms]
[OGL LOG][Proc: 0]p_matrix: call_update: 4.59 [ms]
[OGL LOG][Proc: 0]p_rhs: call_update: 9.545 [ms]
[OGL LOG][Preconditioner.H:121] Generate preconditioner BJ MaxBlockSize 1
[OGL LOG][Proc: 0]p: init_precond: 2.366 [ms]
[OGL LOG][StoppingCriterion.H:239] Creating stopping criterion with minIter 151 frequency 5
[OGL LOG][Proc: 0]p: generate_solver: 0.019 [ms]
[OGL LOG][Proc: 0]p: solve: 2019.664 [ms]
[OGL LOG][Proc: 0]p: copy_x_back: 11.512 [ms]
[OGL LOG][lduLduBase.H:330] 
Statistics:
	Time per iteration: 4740 [mu s]
	Time per residual norm calculation: 1307.000000 [mu s]
	Time per iteration and DOF: 0.093941 [ns]
	Retrieve results bandwidth 2.613000 [GByte/s]
[OGL LOG][Proc: 0]p: solve_multi_gpu: 2069.662 [ms]
BJcudaGKOCG:  Solving for p, Initial residual = 0.0444385761746116, Final residual = 0.0004400899978784466, No Iterations 426
time step continuity errors : sum local = 0.0003189737085005406, global = 4.808627612039157e-05, cumulative = 0.007196129479373464
smoothSolver:  Solving for nuTilda, Initial residual = 0.009045471625306946, Final residual = 0.0008221114398247425, No Iterations 3
ExecutionTime = 2053.77 s  ClockTime = 2060 s

Time = 96

velocityDampingConstraint velocityDamping damped 0 (0%) of cells, with max limit 300
smoothSolver:  Solving for Ux, Initial residual = 0.002746995204695762, Final residual = 0.0002706146871801489, No Iterations 4
smoothSolver:  Solving for Uy, Initial residual = 0.01189751171147143, Final residual = 0.001184349909394101, No Iterations 4
smoothSolver:  Solving for Uz, Initial residual = 0.01309729152302958, Final residual = 0.001303588265176882, No Iterations 4
[OGL LOG][Proc: 0]: global_index_init: 0.023 [ms]
[OGL LOG][Proc: 0]p_local_coeffs: call_update: 0 [ms]
[OGL LOG][Proc: 0]p_non_local_coeffs: call_update: 0 [ms]
[OGL LOG][Proc: 0]p: update_local_matrix_data: 138.362 [ms]
[OGL LOG][Proc: 0]p: update_non_local_matrix_data: 2.415 [ms]
[OGL LOG][Proc: 0]p_matrix: call_update: 4.539 [ms]
[OGL LOG][Proc: 0]p_rhs: call_update: 4.399 [ms]
[OGL LOG][Preconditioner.H:121] Generate preconditioner BJ MaxBlockSize 1
[OGL LOG][Proc: 0]p: init_precond: 2.564 [ms]
[OGL LOG][StoppingCriterion.H:239] Creating stopping criterion with minIter 255 frequency 7
[OGL LOG][Proc: 0]p: generate_solver: 0.017 [ms]
[OGL LOG][Proc: 0]p: solve: 3057.711 [ms]
[OGL LOG][Proc: 0]p: copy_x_back: 11.457 [ms]
[OGL LOG][lduLduBase.H:330] 
Statistics:
	Time per iteration: 4900 [mu s]
	Time per residual norm calculation: 1319.000000 [mu s]
	Time per iteration and DOF: 0.097112 [ns]
	Retrieve results bandwidth 2.625000 [GByte/s]
[OGL LOG][Proc: 0]p: solve_multi_gpu: 3111.948 [ms]
BJcudaGKOCG:  Solving for p, Initial residual = 0.04383977647801649, Final residual = 0.0004241947801882405, No Iterations 624
time step continuity errors : sum local = 0.000308638222371727, global = 5.268572915306791e-07, cumulative = 0.007196656336664995
smoothSolver:  Solving for nuTilda, Initial residual = 0.006213696282803515, Final residual = 0.0004692592703931271, No Iterations 4
ExecutionTime = 2073.75 s  ClockTime = 2080 s

Time = 97

velocityDampingConstraint velocityDamping damped 0 (0%) of cells, with max limit 300
smoothSolver:  Solving for Ux, Initial residual = 0.002740677852641544, Final residual = 0.000269156577309243, No Iterations 4
smoothSolver:  Solving for Uy, Initial residual = 0.01191723474303923, Final residual = 0.001188045955311509, No Iterations 4
smoothSolver:  Solving for Uz, Initial residual = 0.01307570792639582, Final residual = 0.001304026195904864, No Iterations 4
[OGL LOG][Proc: 0]: global_index_init: 0.316 [ms]
[OGL LOG][Proc: 0]p_local_coeffs: call_update: 0 [ms]
[OGL LOG][Proc: 0]p_non_local_coeffs: call_update: 0 [ms]
[OGL LOG][Proc: 0]p: update_local_matrix_data: 154.09 [ms]
[OGL LOG][Proc: 0]p: update_non_local_matrix_data: 2.183 [ms]
[OGL LOG][Proc: 0]p_matrix: call_update: 4.798 [ms]
[OGL LOG][Proc: 0]p_rhs: call_update: 9.282 [ms]
[OGL LOG][Preconditioner.H:121] Generate preconditioner BJ MaxBlockSize 1
[OGL LOG][Proc: 0]p: init_precond: 2.847 [ms]
[OGL LOG][StoppingCriterion.H:239] Creating stopping criterion with minIter 374 frequency 9
[OGL LOG][Proc: 0]p: generate_solver: 0.015 [ms]
[OGL LOG][Proc: 0]p: solve: 1768.902 [ms]
[OGL LOG][Proc: 0]p: copy_x_back: 11.314 [ms]
[OGL LOG][lduLduBase.H:330] 
Statistics:
	Time per iteration: 4667 [mu s]
	Time per residual norm calculation: 1459.000000 [mu s]
	Time per iteration and DOF: 0.092494 [ns]
	Retrieve results bandwidth 2.658000 [GByte/s]
[OGL LOG][Proc: 0]p: solve_multi_gpu: 1816.404 [ms]
BJcudaGKOCG:  Solving for p, Initial residual = 0.04188359020641619, Final residual = 9.964479629116675e-05, No Iterations 379
time step continuity errors : sum local = 7.491349017626972e-05, global = -8.61707829669384e-06, cumulative = 0.007188039258368302
smoothSolver:  Solving for nuTilda, Initial residual = 0.008857118735794084, Final residual = 0.0008222771225464069, No Iterations 3
ExecutionTime = 2092.35 s  ClockTime = 2098 s

Time = 98

velocityDampingConstraint velocityDamping damped 0 (0%) of cells, with max limit 300
smoothSolver:  Solving for Ux, Initial residual = 0.002706252860137289, Final residual = 0.0002671856872496805, No Iterations 4
smoothSolver:  Solving for Uy, Initial residual = 0.01193974607549467, Final residual = 0.001192201281205057, No Iterations 4
smoothSolver:  Solving for Uz, Initial residual = 0.01306143510194591, Final residual = 0.001304961178087951, No Iterations 4
[OGL LOG][Proc: 0]: global_index_init: 0.026 [ms]
[OGL LOG][Proc: 0]p_local_coeffs: call_update: 0 [ms]
[OGL LOG][Proc: 0]p_non_local_coeffs: call_update: 0 [ms]
[OGL LOG][Proc: 0]p: update_local_matrix_data: 138.394 [ms]
[OGL LOG][Proc: 0]p: update_non_local_matrix_data: 2.577 [ms]
[OGL LOG][Proc: 0]p_matrix: call_update: 4.557 [ms]
[OGL LOG][Proc: 0]p_rhs: call_update: 8.805999999999999 [ms]
[OGL LOG][Preconditioner.H:121] Generate preconditioner BJ MaxBlockSize 1
[OGL LOG][Proc: 0]p: init_precond: 2.308 [ms]
[OGL LOG][StoppingCriterion.H:239] Creating stopping criterion with minIter 227 frequency 7
[OGL LOG][Proc: 0]p: generate_solver: 0.018 [ms]
[OGL LOG][Proc: 0]p: solve: 2389.362 [ms]
[OGL LOG][Proc: 0]p: copy_x_back: 11.477 [ms]
[OGL LOG][lduLduBase.H:330] 
Statistics:
	Time per iteration: 4603 [mu s]
	Time per residual norm calculation: 1459.000000 [mu s]
	Time per iteration and DOF: 0.091226 [ns]
	Retrieve results bandwidth 2.621000 [GByte/s]
[OGL LOG][Proc: 0]p: solve_multi_gpu: 2447.625 [ms]
BJcudaGKOCG:  Solving for p, Initial residual = 0.04152420120630179, Final residual = 0.0004130606448052153, No Iterations 519
time step continuity errors : sum local = 0.0003090701204248771, global = -2.071574098736557e-05, cumulative = 0.007167323517380936
smoothSolver:  Solving for nuTilda, Initial residual = 0.006151349401202794, Final residual = 0.0004693072044945764, No Iterations 4
ExecutionTime = 2111.69 s  ClockTime = 2118 s

Time = 99

velocityDampingConstraint velocityDamping damped 0 (0%) of cells, with max limit 300
smoothSolver:  Solving for Ux, Initial residual = 0.002709976014256299, Final residual = 0.0002664635090121072, No Iterations 4
smoothSolver:  Solving for Uy, Initial residual = 0.01198269278844603, Final residual = 0.001196810346108984, No Iterations 4
smoothSolver:  Solving for Uz, Initial residual = 0.01304334490257909, Final residual = 0.0007775686935957441, No Iterations 5
[OGL LOG][Proc: 0]: global_index_init: 0.021 [ms]
[OGL LOG][Proc: 0]p_local_coeffs: call_update: 0 [ms]
[OGL LOG][Proc: 0]p_non_local_coeffs: call_update: 0 [ms]
[OGL LOG][Proc: 0]p: update_local_matrix_data: 153.035 [ms]
[OGL LOG][Proc: 0]p: update_non_local_matrix_data: 2.168 [ms]
[OGL LOG][Proc: 0]p_matrix: call_update: 4.761 [ms]
[OGL LOG][Proc: 0]p_rhs: call_update: 9.233000000000001 [ms]
[OGL LOG][Preconditioner.H:121] Generate preconditioner BJ MaxBlockSize 1
[OGL LOG][Proc: 0]p: init_precond: 2.574 [ms]
[OGL LOG][StoppingCriterion.H:239] Creating stopping criterion with minIter 311 frequency 8
[OGL LOG][Proc: 0]p: generate_solver: 0.014 [ms]
[OGL LOG][Proc: 0]p: solve: 2147.191 [ms]
[OGL LOG][Proc: 0]p: copy_x_back: 11.628 [ms]
[OGL LOG][lduLduBase.H:330] 
Statistics:
	Time per iteration: 5354 [mu s]
	Time per residual norm calculation: 1459.000000 [mu s]
	Time per iteration and DOF: 0.106110 [ns]
	Retrieve results bandwidth 2.587000 [GByte/s]
[OGL LOG][Proc: 0]p: solve_multi_gpu: 2195.767 [ms]
BJcudaGKOCG:  Solving for p, Initial residual = 0.04323483908002442, Final residual = 0.0004105970108333654, No Iterations 401
time step continuity errors : sum local = 0.0002973104076746343, global = -2.966606283620313e-05, cumulative = 0.007137657454544733
smoothSolver:  Solving for nuTilda, Initial residual = 0.008673593274489756, Final residual = 0.0008225127825692392, No Iterations 3
ExecutionTime = 2130.85 s  ClockTime = 2137 s

Time = 100

velocityDampingConstraint velocityDamping damped 0 (0%) of cells, with max limit 300
smoothSolver:  Solving for Ux, Initial residual = 0.002683460962638271, Final residual = 0.0002653967162252701, No Iterations 4
smoothSolver:  Solving for Uy, Initial residual = 0.01202064732027825, Final residual = 0.0007179221258501844, No Iterations 5
smoothSolver:  Solving for Uz, Initial residual = 0.01292540264055908, Final residual = 0.0007701714009734113, No Iterations 5
[OGL LOG][Proc: 0]: global_index_init: 0.021 [ms]
[OGL LOG][Proc: 0]p_local_coeffs: call_update: 0 [ms]
[OGL LOG][Proc: 0]p_non_local_coeffs: call_update: 0 [ms]
[OGL LOG][Proc: 0]p: update_local_matrix_data: 138.264 [ms]
[OGL LOG][Proc: 0]p: update_non_local_matrix_data: 2.253 [ms]
[OGL LOG][Proc: 0]p_matrix: call_update: 4.975 [ms]
[OGL LOG][Proc: 0]p_rhs: call_update: 8.983000000000001 [ms]
[OGL LOG][Preconditioner.H:121] Generate preconditioner BJ MaxBlockSize 1
[OGL LOG][Proc: 0]p: init_precond: 2.403 [ms]
[OGL LOG][StoppingCriterion.H:239] Creating stopping criterion with minIter 240 frequency 7
[OGL LOG][Proc: 0]p: generate_solver: 0.015 [ms]
[OGL LOG][Proc: 0]p: solve: 1211.428 [ms]
[OGL LOG][Proc: 0]p: copy_x_back: 11.428 [ms]
[OGL LOG][lduLduBase.H:330] 
Statistics:
	Time per iteration: 4924 [mu s]
	Time per residual norm calculation: 1446.000000 [mu s]
	Time per iteration and DOF: 0.097588 [ns]
	Retrieve results bandwidth 2.632000 [GByte/s]
[OGL LOG][Proc: 0]p: solve_multi_gpu: 1273.186 [ms]
BJcudaGKOCG:  Solving for p, Initial residual = 0.04342449138927022, Final residual = 0.0002927765893613031, No Iterations 246
time step continuity errors : sum local = 0.0002101052279952197, global = -2.977696420605396e-05, cumulative = 0.007107880490338679
smoothSolver:  Solving for nuTilda, Initial residual = 0.006088472169649494, Final residual = 0.0004695873176955732, No Iterations 4
ExecutionTime = 2149.22 s  ClockTime = 2155 s

End

Finalising parallel run
