/*---------------------------------------------------------------------------*\
| =========                 |                                                 |
| \\      /  F ield         | OpenFOAM: The Open Source CFD Toolbox           |
|  \\    /   O peration     | Version:  v2106                                 |
|   \\  /    A nd           | Website:  www.openfoam.com                      |
|    \\/     M anipulation  |                                                 |
\*---------------------------------------------------------------------------*/
Build  : f815a12bba-20210902 OPENFOAM=2106
Arch   : "LSB;label=32;scalar=64"
Exec   : simpleFoam -parallel -case /home/greole/data/code/exasim_project/micro_benchmarks/WindsorBody/workspace/3d8cb9f0f73930933580b3a2e8f3399d/case
Date   : Jun 25 2023
Time   : 18:59:03
Host   : nla-gpu2.ianm.kit.edu
PID    : 3737991
I/O    : uncollated
Case   : /home/greole/data/code/exasim_project/micro_benchmarks/WindsorBody/workspace/3d8cb9f0f73930933580b3a2e8f3399d/case
nProcs : 32
Hosts  :
(
    (nla-gpu2.ianm.kit.edu 32)
)
Pstream initialized with:
    floatTransfer      : 0
    nProcsSimpleSum    : 0
    commsType          : nonBlocking
    polling iterations : 0
trapFpe: Floating point exception trapping enabled (FOAM_SIGFPE).
fileModificationChecking : Monitoring run-time modified files using timeStampMaster (fileModificationSkew 5, maxFileModificationPolls 20)
allowSystemOperations : Allowing user-supplied system call operations

// * * * * * * * * * * * * * * * * * * * * * * * * * * * * * * * * * * * * * //
Create time

Create mesh for time = 0


SIMPLE: convergence criteria
    field p	 tolerance 1e-08
    field U	 tolerance 1e-08
    field k	 tolerance 1e-08
    field omega	 tolerance 1e-08
    field nuTilda	 tolerance 1e-08

Reading field p

Reading field U

Reading/calculating face flux field phi

Selecting incompressible transport model Newtonian
Selecting turbulence model type RAS
Selecting RAS turbulence model SpalartAllmaras
Selecting patchDistMethod meshWave
RAS
{
    RASModel        SpalartAllmaras;
    turbulence      on;
    printCoeffs     on;
    sigmaNut        0.6666666666666666;
    kappa           0.41;
    Cb1             0.1355;
    Cb2             0.622;
    Cw2             0.3;
    Cw3             2;
    Cv1             7.1;
    Cs              0.3;
}

No MRF models present

Creating finite volume options from "system/fvOptions"

Selecting finite volume options type velocityDampingConstraint
    Source: velocityDamping
    - selecting all cells
    - selected 6307136 cell(s) with volume 27.82583051608611

Starting time loop

--> FOAM Warning : 
    From bool Foam::functionObjectList::read()
    in file db/functionObjects/functionObjectList/functionObjectList.C at line 1013
    Reading "/home/greole/data/code/exasim_project/micro_benchmarks/WindsorBody/workspace/3d8cb9f0f73930933580b3a2e8f3399d/case/system/controlDict" at line 2 to 41
    Entry lref is not a dictionary
--> FOAM Warning : 
    From bool Foam::functionObjectList::read()
    in file db/functionObjects/functionObjectList/functionObjectList.C at line 1013
    Reading "/home/greole/data/code/exasim_project/micro_benchmarks/WindsorBody/workspace/3d8cb9f0f73930933580b3a2e8f3399d/case/system/controlDict" at line 2 to 41
    Entry Aref is not a dictionary
--> FOAM Warning : 
    From bool Foam::functionObjectList::read()
    in file db/functionObjects/functionObjectList/functionObjectList.C at line 1013
    Reading "/home/greole/data/code/exasim_project/micro_benchmarks/WindsorBody/workspace/3d8cb9f0f73930933580b3a2e8f3399d/case/system/controlDict" at line 2 to 41
    Entry yawAngle is not a dictionary
--> FOAM Warning : 
    From bool Foam::functionObjectList::read()
    in file db/functionObjects/functionObjectList/functionObjectList.C at line 1013
    Reading "/home/greole/data/code/exasim_project/micro_benchmarks/WindsorBody/workspace/3d8cb9f0f73930933580b3a2e8f3399d/case/system/controlDict" at line 2 to 41
    Entry lDomain is not a dictionary
--> FOAM Warning : 
    From bool Foam::functionObjectList::read()
    in file db/functionObjects/functionObjectList/functionObjectList.C at line 1013
    Reading "/home/greole/data/code/exasim_project/micro_benchmarks/WindsorBody/workspace/3d8cb9f0f73930933580b3a2e8f3399d/case/system/controlDict" at line 2 to 41
    Entry bDomain is not a dictionary
--> FOAM Warning : 
    From bool Foam::functionObjectList::read()
    in file db/functionObjects/functionObjectList/functionObjectList.C at line 1013
    Reading "/home/greole/data/code/exasim_project/micro_benchmarks/WindsorBody/workspace/3d8cb9f0f73930933580b3a2e8f3399d/case/system/controlDict" at line 2 to 41
    Entry hDomain is not a dictionary
--> FOAM Warning : 
    From bool Foam::functionObjectList::read()
    in file db/functionObjects/functionObjectList/functionObjectList.C at line 1013
    Reading "/home/greole/data/code/exasim_project/micro_benchmarks/WindsorBody/workspace/3d8cb9f0f73930933580b3a2e8f3399d/case/system/controlDict" at line 2 to 41
    Entry xCenter is not a dictionary
--> FOAM Warning : 
    From bool Foam::functionObjectList::read()
    in file db/functionObjects/functionObjectList/functionObjectList.C at line 1013
    Reading "/home/greole/data/code/exasim_project/micro_benchmarks/WindsorBody/workspace/3d8cb9f0f73930933580b3a2e8f3399d/case/system/controlDict" at line 2 to 41
    Entry yCenter is not a dictionary
--> FOAM Warning : 
    From bool Foam::functionObjectList::read()
    in file db/functionObjects/functionObjectList/functionObjectList.C at line 1013
    Reading "/home/greole/data/code/exasim_project/micro_benchmarks/WindsorBody/workspace/3d8cb9f0f73930933580b3a2e8f3399d/case/system/controlDict" at line 2 to 41
    Entry zCenter is not a dictionary
--> FOAM Warning : 
    From bool Foam::functionObjectList::read()
    in file db/functionObjects/functionObjectList/functionObjectList.C at line 1013
    Reading "/home/greole/data/code/exasim_project/micro_benchmarks/WindsorBody/workspace/3d8cb9f0f73930933580b3a2e8f3399d/case/system/controlDict" at line 2 to 41
    Entry inletPatch is not a dictionary
--> FOAM Warning : 
    From bool Foam::functionObjectList::read()
    in file db/functionObjects/functionObjectList/functionObjectList.C at line 1013
    Reading "/home/greole/data/code/exasim_project/micro_benchmarks/WindsorBody/workspace/3d8cb9f0f73930933580b3a2e8f3399d/case/system/controlDict" at line 2 to 41
    Entry outletPatch is not a dictionary
--> FOAM Warning : 
    From bool Foam::functionObjectList::read()
    in file db/functionObjects/functionObjectList/functionObjectList.C at line 1013
    Reading "/home/greole/data/code/exasim_project/micro_benchmarks/WindsorBody/workspace/3d8cb9f0f73930933580b3a2e8f3399d/case/system/controlDict" at line 2 to 41
    Entry wallPatches is not a dictionary
--> FOAM Warning : 
    From bool Foam::functionObjectList::read()
    in file db/functionObjects/functionObjectList/functionObjectList.C at line 1013
    Reading "/home/greole/data/code/exasim_project/micro_benchmarks/WindsorBody/workspace/3d8cb9f0f73930933580b3a2e8f3399d/case/system/controlDict" at line 2 to 41
    Entry forcesWallPatches is not a dictionary
--> FOAM Warning : 
    From bool Foam::functionObjectList::read()
    in file db/functionObjects/functionObjectList/functionObjectList.C at line 1013
    Reading "/home/greole/data/code/exasim_project/micro_benchmarks/WindsorBody/workspace/3d8cb9f0f73930933580b3a2e8f3399d/case/system/controlDict" at line 2 to 41
    Entry symmPatches is not a dictionary
--> FOAM Warning : 
    From bool Foam::functionObjectList::read()
    in file db/functionObjects/functionObjectList/functionObjectList.C at line 1013
    Reading "/home/greole/data/code/exasim_project/micro_benchmarks/WindsorBody/workspace/3d8cb9f0f73930933580b3a2e8f3399d/case/system/controlDict" at line 2 to 41
    Entry Uinf is not a dictionary
--> FOAM Warning : 
    From bool Foam::functionObjectList::read()
    in file db/functionObjects/functionObjectList/functionObjectList.C at line 1013
    Reading "/home/greole/data/code/exasim_project/micro_benchmarks/WindsorBody/workspace/3d8cb9f0f73930933580b3a2e8f3399d/case/system/controlDict" at line 2 to 41
    Entry UinfMag is not a dictionary
--> FOAM Warning : 
    From bool Foam::functionObjectList::read()
    in file db/functionObjects/functionObjectList/functionObjectList.C at line 1013
    Reading "/home/greole/data/code/exasim_project/micro_benchmarks/WindsorBody/workspace/3d8cb9f0f73930933580b3a2e8f3399d/case/system/controlDict" at line 2 to 41
    Entry nu is not a dictionary
--> FOAM Warning : 
    From bool Foam::functionObjectList::read()
    in file db/functionObjects/functionObjectList/functionObjectList.C at line 1013
    Reading "/home/greole/data/code/exasim_project/micro_benchmarks/WindsorBody/workspace/3d8cb9f0f73930933580b3a2e8f3399d/case/system/controlDict" at line 2 to 41
    Entry pref is not a dictionary
--> FOAM Warning : 
    From bool Foam::functionObjectList::read()
    in file db/functionObjects/functionObjectList/functionObjectList.C at line 1013
    Reading "/home/greole/data/code/exasim_project/micro_benchmarks/WindsorBody/workspace/3d8cb9f0f73930933580b3a2e8f3399d/case/system/controlDict" at line 2 to 41
    Entry viscRatio is not a dictionary
--> FOAM Warning : 
    From bool Foam::functionObjectList::read()
    in file db/functionObjects/functionObjectList/functionObjectList.C at line 1013
    Reading "/home/greole/data/code/exasim_project/micro_benchmarks/WindsorBody/workspace/3d8cb9f0f73930933580b3a2e8f3399d/case/system/controlDict" at line 2 to 41
    Entry Tu is not a dictionary
--> FOAM Warning : 
    From bool Foam::functionObjectList::read()
    in file db/functionObjects/functionObjectList/functionObjectList.C at line 1013
    Reading "/home/greole/data/code/exasim_project/micro_benchmarks/WindsorBody/workspace/3d8cb9f0f73930933580b3a2e8f3399d/case/system/controlDict" at line 2 to 41
    Entry LESturbModel is not a dictionary
--> FOAM Warning : 
    From bool Foam::functionObjectList::read()
    in file db/functionObjects/functionObjectList/functionObjectList.C at line 1013
    Reading "/home/greole/data/code/exasim_project/micro_benchmarks/WindsorBody/workspace/3d8cb9f0f73930933580b3a2e8f3399d/case/system/controlDict" at line 2 to 41
    Entry RASturbModel is not a dictionary
--> FOAM Warning : 
    From bool Foam::functionObjectList::read()
    in file db/functionObjects/functionObjectList/functionObjectList.C at line 1013
    Reading "/home/greole/data/code/exasim_project/micro_benchmarks/WindsorBody/workspace/3d8cb9f0f73930933580b3a2e8f3399d/case/system/controlDict" at line 2 to 41
    Entry deltaTurb is not a dictionary
--> FOAM Warning : 
    From bool Foam::functionObjectList::read()
    in file db/functionObjects/functionObjectList/functionObjectList.C at line 1013
    Reading "/home/greole/data/code/exasim_project/micro_benchmarks/WindsorBody/workspace/3d8cb9f0f73930933580b3a2e8f3399d/case/system/controlDict" at line 2 to 41
    Entry dt is not a dictionary
--> FOAM Warning : 
    From bool Foam::functionObjectList::read()
    in file db/functionObjects/functionObjectList/functionObjectList.C at line 1013
    Reading "/home/greole/data/code/exasim_project/micro_benchmarks/WindsorBody/workspace/3d8cb9f0f73930933580b3a2e8f3399d/case/system/controlDict" at line 2 to 41
    Entry tAvg is not a dictionary
--> FOAM Warning : 
    From bool Foam::functionObjectList::read()
    in file db/functionObjects/functionObjectList/functionObjectList.C at line 1013
    Reading "/home/greole/data/code/exasim_project/micro_benchmarks/WindsorBody/workspace/3d8cb9f0f73930933580b3a2e8f3399d/case/system/controlDict" at line 2 to 41
    Entry tEnd is not a dictionary
--> FOAM Warning : 
    From bool Foam::functionObjectList::read()
    in file db/functionObjects/functionObjectList/functionObjectList.C at line 1013
    Reading "/home/greole/data/code/exasim_project/micro_benchmarks/WindsorBody/workspace/3d8cb9f0f73930933580b3a2e8f3399d/case/system/controlDict" at line 2 to 41
    Entry writeInterval_ is not a dictionary
--> FOAM Warning : 
    From bool Foam::functionObjectList::read()
    in file db/functionObjects/functionObjectList/functionObjectList.C at line 1013
    Reading "/home/greole/data/code/exasim_project/micro_benchmarks/WindsorBody/workspace/3d8cb9f0f73930933580b3a2e8f3399d/case/system/controlDict" at line 2 to 41
    Entry nCores is not a dictionary
--> FOAM Warning : 
    From bool Foam::functionObjectList::read()
    in file db/functionObjects/functionObjectList/functionObjectList.C at line 1013
    Reading "/home/greole/data/code/exasim_project/micro_benchmarks/WindsorBody/workspace/3d8cb9f0f73930933580b3a2e8f3399d/case/system/controlDict" at line 2 to 41
    Entry interpScheme is not a dictionary
--> FOAM Warning : 
    From bool Foam::functionObjectList::read()
    in file db/functionObjects/functionObjectList/functionObjectList.C at line 1013
    Reading "/home/greole/data/code/exasim_project/micro_benchmarks/WindsorBody/workspace/3d8cb9f0f73930933580b3a2e8f3399d/case/system/controlDict" at line 2 to 41
    Entry probeField is not a dictionary
wallShearStress wallShearStress:
    processing wall patches: 
        Windsor_Body
        CFDWT_Floor
        Windsor_Pins
        Windsor_Base

pressure calc_cp:
    Operating mode: staticCoeff
    Not including hydrostatic effects

forceCoeffs forceCoeffsAll:
    rho: rhoInf
    Freestream density (rhoInf) set to 1
    Not including porosity effects

forceCoeffs dragCoeffBase:
    rho: rhoInf
    Freestream density (rhoInf) set to 1
    Not including porosity effects

Time = 1

velocityDampingConstraint velocityDamping damped 0 (0%) of cells
[INFO] MatrixAssemblyU: 484.863 [ms]
smoothSolver:  Solving for Ux, Initial residual = 0.9999999999990106, Final residual = 0.08740394529067033, No Iterations 15
smoothSolver:  Solving for Uy, Initial residual = 1, Final residual = 0.08989488380680077, No Iterations 31
smoothSolver:  Solving for Uz, Initial residual = 1, Final residual = 0.03329925895369379, No Iterations 2
[INFO] MomentumPredictor: 491.158 [ms]
[INFO] MatrixAssemblyPI: 137.597 [ms]
[INFO] MatrixAssemblyPII: 71.274 [ms]
[OGL LOG][lduLduBase.H:122] Initialising OGL
	OGL commit:  b92e557
	Branch: cyclic 
	Build type: Release
	Ginkgo version: 1.5.0 ( develop)
	Ginkgo commit: 4292ffdee
	MPI is GPU aware: 1
	Forces host buffer based communication: 1
	CPU ranks per GPU: 1
	Matrix format: Coo
	End OGL_INFO
[OGL LOG][Proc: 0]: global_index_init: 49.33 [ms]
[OGL LOG][Proc: 0]p_local_cols: call_init: 0.044 [ms]
[OGL LOG][Proc: 0]p_local_rows: call_init: 0.016 [ms]
[OGL LOG][Proc: 0]p_local_ldu_map: call_init: 0.197 [ms]
[OGL LOG][Proc: 0]p_local_coeffs: call_init: 0.015 [ms]
[OGL LOG][Proc: 0]p_non_local_cols: call_init: 0.004 [ms]
[OGL LOG][Proc: 0]p_non_local_rows: call_init: 0.003 [ms]
[OGL LOG][Proc: 0]p_non_local_ldu_map: call_init: 0.003 [ms]
[OGL LOG][Proc: 0]p_non_local_coeffs: call_init: 0.003 [ms]
[OGL LOG][Proc: 0]p: init_local_sparsity_pattern: 48.33 [ms]
[OGL LOG][Proc: 0]p: init_non_local_sparsity_pattern: 2.963 [ms]
[OGL LOG][Proc: 0]p: update_local_matrix_data: 9.662000000000001 [ms]
[OGL LOG][Proc: 0]p: update_non_local_matrix_data: 0.144 [ms]
[OGL LOG][Proc: 0]device_partition: call_init: 11.037 [ms]
[OGL LOG][Proc: 0]p_matrix: call_init: 103.491 [ms]
[OGL LOG][Proc: 0]p_rhs: call_init: 16.082 [ms]
[OGL LOG][Proc: 0]p_solution: call_init: 0.9 [ms]
[OGL LOG][Preconditioner.H:121] Generate preconditioner BJ MaxBlockSize 1
[OGL LOG][Proc: 0]p: init_precond: 5.46 [ms]
[OGL LOG][StoppingCriterion.H:372] Creating stopping criterion with minIter 0 frequency 1
[OGL LOG][Proc: 0]p: generate_solver: 0.006 [ms]
[OGL LOG][Proc: 0]p: solve: 2206.585 [ms]
[OGL LOG][Proc: 0]p: copy_x_back: 3.386 [ms]
[OGL LOG][lduLduBase.H:339] 
Statistics:
	Time per iteration: 1889 [mu s]
	Time per residual norm calculation: 2115.000000 [mu s]
	Time per iteration and DOF: 0.299502 [ns]
	Retrieve results bandwidth 0.615000 [GByte/s]
[OGL LOG][Proc: 0]p: solve_multi_gpu: 2347.571 [ms]
BJhipGKOCG:  Solving for p, Initial residual = 1.000000000000124, Final residual = 0.009889810075096804, No Iterations 1168
[INFO] SolveP: 3220.398 [ms]
time step continuity errors : sum local = 0.003628608729831434, global = 4.47785385279391e-05, cumulative = 4.47785385279391e-05
[INFO] postSolveP: 57.968 [ms]
smoothSolver:  Solving for nuTilda, Initial residual = 0.9999999998003455, Final residual = 0.06434532536739153, No Iterations 3
[INFO] TimeStep: 4807.909 [ms]
ExecutionTime = 8.58 s  ClockTime = 9 s

--> FOAM Warning : 
    From virtual bool Foam::functionObjects::fieldSelection::checkSelection()
    in file functionObjects/fieldSelections/fieldSelection/fieldSelection.C at line 166
    Field k not found
--> FOAM Warning : 
    From virtual bool Foam::functionObjects::fieldSelection::checkSelection()
    in file functionObjects/fieldSelections/fieldSelection/fieldSelection.C at line 166
    Field gammaInt not found
--> FOAM Warning : 
    From virtual bool Foam::functionObjects::fieldSelection::checkSelection()
    in file functionObjects/fieldSelections/fieldSelection/fieldSelection.C at line 166
    Field omega not found
--> FOAM Warning : 
    From virtual bool Foam::functionObjects::fieldSelection::checkSelection()
    in file functionObjects/fieldSelections/fieldSelection/fieldSelection.C at line 166
    Field ReThetat not found
--> FOAM Warning : 
    From virtual bool Foam::functionObjects::fieldSelection::checkSelection()
    in file functionObjects/fieldSelections/fieldSelection/fieldSelection.C at line 166
    Field epsilon not found
--> FOAM Warning : 
    From virtual bool Foam::functionObjects::solverFieldSelection::updateSelection()
    in file functionObjects/fieldSelections/solverFieldSelection/solverFieldSelection.C at line 85
    Valid solver fields are: 3(U nuTilda p)Time = 2

velocityDampingConstraint velocityDamping damped 0 (0%) of cells
[INFO] MatrixAssemblyU: 470.247 [ms]
smoothSolver:  Solving for Ux, Initial residual = 0.2130737490275372, Final residual = 0.01845992406672651, No Iterations 13
smoothSolver:  Solving for Uy, Initial residual = 0.355290976004255, Final residual = 0.03328918091539022, No Iterations 13
smoothSolver:  Solving for Uz, Initial residual = 0.3287269656191756, Final residual = 0.02817215245390942, No Iterations 13
[INFO] MomentumPredictor: 381.109 [ms]
[INFO] MatrixAssemblyPI: 116.196 [ms]
[INFO] MatrixAssemblyPII: 39.213 [ms]
[OGL LOG][Proc: 0]: global_index_init: 0.033 [ms]
[OGL LOG][Proc: 0]p_local_coeffs: call_update: 0.002 [ms]
[OGL LOG][Proc: 0]p_non_local_coeffs: call_update: 0 [ms]
[OGL LOG][Proc: 0]p: update_local_matrix_data: 10.771 [ms]
[OGL LOG][Proc: 0]p: update_non_local_matrix_data: 0.123 [ms]
[OGL LOG][Proc: 0]p_matrix: call_update: 3.775 [ms]
[OGL LOG][Proc: 0]p_rhs: call_update: 2.664 [ms]
[OGL LOG][Preconditioner.H:121] Generate preconditioner BJ MaxBlockSize 1
[OGL LOG][Proc: 0]p: init_precond: 0.378 [ms]
[OGL LOG][StoppingCriterion.H:372] Creating stopping criterion with minIter 0 frequency 1
[OGL LOG][Proc: 0]p: generate_solver: 0.001 [ms]
[OGL LOG][Proc: 0]p: solve: 1760.705 [ms]
[OGL LOG][Proc: 0]p: copy_x_back: 0.841 [ms]
[OGL LOG][lduLduBase.H:339] 
Statistics:
	Time per iteration: 1855 [mu s]
	Time per residual norm calculation: 408.000000 [mu s]
	Time per iteration and DOF: 0.294111 [ns]
	Retrieve results bandwidth 2.479000 [GByte/s]
[OGL LOG][Proc: 0]p: solve_multi_gpu: 1768.878 [ms]
BJhipGKOCG:  Solving for p, Initial residual = 0.2096062565556445, Final residual = 0.002077533930329158, No Iterations 949
[INFO] SolveP: 1783.349 [ms]
time step continuity errors : sum local = 0.04258291755280189, global = 0.001869787338549168, cumulative = 0.001914565877077107
[INFO] postSolveP: 32.829 [ms]
smoothSolver:  Solving for nuTilda, Initial residual = 0.4060314762742884, Final residual = 0.02534527007044104, No Iterations 1
[INFO] TimeStep: 3096.556 [ms]
ExecutionTime = 11.87 s  ClockTime = 13 s

Time = 3

velocityDampingConstraint velocityDamping damped 829 (0.01314384214959056%) of cells
[INFO] MatrixAssemblyU: 456.616 [ms]
smoothSolver:  Solving for Ux, Initial residual = 0.1248611062846724, Final residual = 0.01178032902277877, No Iterations 9
smoothSolver:  Solving for Uy, Initial residual = 0.2054107283094834, Final residual = 0.01980792033468822, No Iterations 10
smoothSolver:  Solving for Uz, Initial residual = 0.2182789711036667, Final residual = 0.02139599854870091, No Iterations 9
[INFO] MomentumPredictor: 292.093 [ms]
[INFO] MatrixAssemblyPI: 91.765 [ms]
[INFO] MatrixAssemblyPII: 40.387 [ms]
[OGL LOG][Proc: 0]: global_index_init: 0.056 [ms]
[OGL LOG][Proc: 0]p_local_coeffs: call_update: 0 [ms]
[OGL LOG][Proc: 0]p_non_local_coeffs: call_update: 0 [ms]
[OGL LOG][Proc: 0]p: update_local_matrix_data: 11.424 [ms]
[OGL LOG][Proc: 0]p: update_non_local_matrix_data: 0.219 [ms]
[OGL LOG][Proc: 0]p_matrix: call_update: 2.765 [ms]
[OGL LOG][Proc: 0]p_rhs: call_update: 2.886 [ms]
[OGL LOG][Preconditioner.H:121] Generate preconditioner BJ MaxBlockSize 1
[OGL LOG][Proc: 0]p: init_precond: 0.319 [ms]
[OGL LOG][StoppingCriterion.H:372] Creating stopping criterion with minIter 569 frequency 9
[OGL LOG][Proc: 0]p: generate_solver: 0.001 [ms]
[OGL LOG][Proc: 0]p: solve: 812.5700000000001 [ms]
[OGL LOG][Proc: 0]p: copy_x_back: 0.8240000000000001 [ms]
[OGL LOG][lduLduBase.H:339] 
Statistics:
	Time per iteration: 1408 [mu s]
	Time per residual norm calculation: 376.000000 [mu s]
	Time per iteration and DOF: 0.223239 [ns]
	Retrieve results bandwidth 2.530000 [GByte/s]
[OGL LOG][Proc: 0]p: solve_multi_gpu: 819.869 [ms]
BJhipGKOCG:  Solving for p, Initial residual = 0.1172295885739666, Final residual = 0.00109776524381335, No Iterations 577
[INFO] SolveP: 834.051 [ms]
time step continuity errors : sum local = 0.01238785985759806, global = 4.485046375939028e-05, cumulative = 0.001959416340836497
[INFO] postSolveP: 20.627 [ms]
smoothSolver:  Solving for nuTilda, Initial residual = 0.2091743433725709, Final residual = 0.0131413453958684, No Iterations 2
[INFO] TimeStep: 1999.567 [ms]
ExecutionTime = 14.13 s  ClockTime = 15 s

Time = 4

velocityDampingConstraint velocityDamping damped 0 (0%) of cells
[INFO] MatrixAssemblyU: 438.409 [ms]
smoothSolver:  Solving for Ux, Initial residual = 0.05447100973842992, Final residual = 0.0049781631207115, No Iterations 11
smoothSolver:  Solving for Uy, Initial residual = 0.1227423358323449, Final residual = 0.01107127592658942, No Iterations 11
smoothSolver:  Solving for Uz, Initial residual = 0.1338160521533963, Final residual = 0.01303544279661166, No Iterations 10
[INFO] MomentumPredictor: 328.377 [ms]
[INFO] MatrixAssemblyPI: 81.592 [ms]
[INFO] MatrixAssemblyPII: 38.652 [ms]
[OGL LOG][Proc: 0]: global_index_init: 0.116 [ms]
[OGL LOG][Proc: 0]p_local_coeffs: call_update: 0 [ms]
[OGL LOG][Proc: 0]p_non_local_coeffs: call_update: 0 [ms]
[OGL LOG][Proc: 0]p: update_local_matrix_data: 11.896 [ms]
[OGL LOG][Proc: 0]p: update_non_local_matrix_data: 0.074 [ms]
[OGL LOG][Proc: 0]p_matrix: call_update: 2.734 [ms]
[OGL LOG][Proc: 0]p_rhs: call_update: 0.73 [ms]
[OGL LOG][Preconditioner.H:121] Generate preconditioner BJ MaxBlockSize 1
[OGL LOG][Proc: 0]p: init_precond: 0.324 [ms]
[OGL LOG][StoppingCriterion.H:372] Creating stopping criterion with minIter 346 frequency 8
[OGL LOG][Proc: 0]p: generate_solver: 0.001 [ms]
[OGL LOG][Proc: 0]p: solve: 487.589 [ms]
[OGL LOG][Proc: 0]p: copy_x_back: 0.799 [ms]
[OGL LOG][lduLduBase.H:339] 
Statistics:
	Time per iteration: 1381 [mu s]
	Time per residual norm calculation: 436.000000 [mu s]
	Time per iteration and DOF: 0.218958 [ns]
	Retrieve results bandwidth 2.609000 [GByte/s]
[OGL LOG][Proc: 0]p: solve_multi_gpu: 492.623 [ms]
BJhipGKOCG:  Solving for p, Initial residual = 0.1414304627331315, Final residual = 0.001409605598545459, No Iterations 353
[INFO] SolveP: 507.547 [ms]
time step continuity errors : sum local = 0.01343423120257695, global = -0.0002692372447508257, cumulative = 0.001690179096085672
[INFO] postSolveP: 20.336 [ms]
smoothSolver:  Solving for nuTilda, Initial residual = 0.1246557631467026, Final residual = 0.0105286771710304, No Iterations 2
[INFO] TimeStep: 1662.781 [ms]
ExecutionTime = 16.09 s  ClockTime = 17 s

Time = 5

velocityDampingConstraint velocityDamping damped 119 (0.001886751768155943%) of cells
[INFO] MatrixAssemblyU: 432.246 [ms]
smoothSolver:  Solving for Ux, Initial residual = 0.04419123170930487, Final residual = 0.004209664564749664, No Iterations 10
smoothSolver:  Solving for Uy, Initial residual = 0.09831822081397976, Final residual = 0.009307673016567347, No Iterations 11
smoothSolver:  Solving for Uz, Initial residual = 0.1141430505030389, Final residual = 0.01130426125741418, No Iterations 10
[INFO] MomentumPredictor: 329.511 [ms]
[INFO] MatrixAssemblyPI: 84.42700000000001 [ms]
[INFO] MatrixAssemblyPII: 36.357 [ms]
[OGL LOG][Proc: 0]: global_index_init: 0.172 [ms]
[OGL LOG][Proc: 0]p_local_coeffs: call_update: 0 [ms]
[OGL LOG][Proc: 0]p_non_local_coeffs: call_update: 0 [ms]
[OGL LOG][Proc: 0]p: update_local_matrix_data: 10.819 [ms]
[OGL LOG][Proc: 0]p: update_non_local_matrix_data: 0.181 [ms]
[OGL LOG][Proc: 0]p_matrix: call_update: 2.98 [ms]
[OGL LOG][Proc: 0]p_rhs: call_update: 3.648 [ms]
[OGL LOG][Preconditioner.H:121] Generate preconditioner BJ MaxBlockSize 1
[OGL LOG][Proc: 0]p: init_precond: 0.338 [ms]
[OGL LOG][StoppingCriterion.H:372] Creating stopping criterion with minIter 211 frequency 6
[OGL LOG][Proc: 0]p: generate_solver: 0.001 [ms]
[OGL LOG][Proc: 0]p: solve: 539.931 [ms]
[OGL LOG][Proc: 0]p: copy_x_back: 0.8290000000000001 [ms]
[OGL LOG][lduLduBase.H:339] 
Statistics:
	Time per iteration: 1574 [mu s]
	Time per residual norm calculation: 449.000000 [mu s]
	Time per iteration and DOF: 0.249559 [ns]
	Retrieve results bandwidth 2.515000 [GByte/s]
[OGL LOG][Proc: 0]p: solve_multi_gpu: 548.157 [ms]
BJhipGKOCG:  Solving for p, Initial residual = 0.103038161031692, Final residual = 0.0009451666204357898, No Iterations 343
[INFO] SolveP: 561.1799999999999 [ms]
time step continuity errors : sum local = 0.007045534181499817, global = 0.0004205342227971645, cumulative = 0.002110713318882836
[INFO] postSolveP: 20.655 [ms]
smoothSolver:  Solving for nuTilda, Initial residual = 0.07089369312042816, Final residual = 0.00431465045565052, No Iterations 3
[INFO] TimeStep: 1731.305 [ms]
ExecutionTime = 18.12 s  ClockTime = 19 s

Time = 6

velocityDampingConstraint velocityDamping damped 0 (0%) of cells
[INFO] MatrixAssemblyU: 424.936 [ms]
smoothSolver:  Solving for Ux, Initial residual = 0.0298990726122163, Final residual = 0.002670368608515818, No Iterations 12
smoothSolver:  Solving for Uy, Initial residual = 0.07486767055093517, Final residual = 0.006950804878911409, No Iterations 12
smoothSolver:  Solving for Uz, Initial residual = 0.08089908036775079, Final residual = 0.006941650400406704, No Iterations 12
[INFO] MomentumPredictor: 361.073 [ms]
[INFO] MatrixAssemblyPI: 80.75700000000001 [ms]
[INFO] MatrixAssemblyPII: 38.422 [ms]
[OGL LOG][Proc: 0]: global_index_init: 2.361 [ms]
[OGL LOG][Proc: 0]p_local_coeffs: call_update: 0 [ms]
[OGL LOG][Proc: 0]p_non_local_coeffs: call_update: 0 [ms]
[OGL LOG][Proc: 0]p: update_local_matrix_data: 11.244 [ms]
[OGL LOG][Proc: 0]p: update_non_local_matrix_data: 0.108 [ms]
[OGL LOG][Proc: 0]p_matrix: call_update: 2.768 [ms]
[OGL LOG][Proc: 0]p_rhs: call_update: 1.822 [ms]
[OGL LOG][Preconditioner.H:121] Generate preconditioner BJ MaxBlockSize 1
[OGL LOG][Proc: 0]p: init_precond: 0.275 [ms]
[OGL LOG][StoppingCriterion.H:372] Creating stopping criterion with minIter 205 frequency 6
[OGL LOG][Proc: 0]p: generate_solver: 0.002 [ms]
[OGL LOG][Proc: 0]p: solve: 473.634 [ms]
[OGL LOG][Proc: 0]p: copy_x_back: 0.8080000000000001 [ms]
[OGL LOG][lduLduBase.H:339] 
Statistics:
	Time per iteration: 1457 [mu s]
	Time per residual norm calculation: 435.000000 [mu s]
	Time per iteration and DOF: 0.231008 [ns]
	Retrieve results bandwidth 2.580000 [GByte/s]
[OGL LOG][Proc: 0]p: solve_multi_gpu: 479.707 [ms]
BJhipGKOCG:  Solving for p, Initial residual = 0.0914946615642059, Final residual = 0.0008884392317962381, No Iterations 325
[INFO] SolveP: 497.186 [ms]
time step continuity errors : sum local = 0.006895242542095245, global = 0.0002053393517847215, cumulative = 0.002316052670667558
[INFO] postSolveP: 20.45 [ms]
smoothSolver:  Solving for nuTilda, Initial residual = 0.06423297028540562, Final residual = 0.003008136789284683, No Iterations 3
[INFO] TimeStep: 1677.992 [ms]
ExecutionTime = 20.07 s  ClockTime = 21 s

Time = 7

velocityDampingConstraint velocityDamping damped 15 (0.0002378258531289003%) of cells
[INFO] MatrixAssemblyU: 431.45 [ms]
smoothSolver:  Solving for Ux, Initial residual = 0.02708364711123991, Final residual = 0.002415139221448762, No Iterations 12
smoothSolver:  Solving for Uy, Initial residual = 0.06790724776698098, Final residual = 0.006435492314243872, No Iterations 12
smoothSolver:  Solving for Uz, Initial residual = 0.07108130616200449, Final residual = 0.006229487792710923, No Iterations 12
[INFO] MomentumPredictor: 342.759 [ms]
[INFO] MatrixAssemblyPI: 79.91 [ms]
[INFO] MatrixAssemblyPII: 36.07 [ms]
[OGL LOG][Proc: 0]: global_index_init: 0.13 [ms]
[OGL LOG][Proc: 0]p_local_coeffs: call_update: 0 [ms]
[OGL LOG][Proc: 0]p_non_local_coeffs: call_update: 0 [ms]
[OGL LOG][Proc: 0]p: update_local_matrix_data: 11.795 [ms]
[OGL LOG][Proc: 0]p: update_non_local_matrix_data: 0.096 [ms]
[OGL LOG][Proc: 0]p_matrix: call_update: 2.707 [ms]
[OGL LOG][Proc: 0]p_rhs: call_update: 2.393 [ms]
[OGL LOG][Preconditioner.H:121] Generate preconditioner BJ MaxBlockSize 1
[OGL LOG][Proc: 0]p: init_precond: 0.348 [ms]
[OGL LOG][StoppingCriterion.H:372] Creating stopping criterion with minIter 195 frequency 6
[OGL LOG][Proc: 0]p: generate_solver: 0 [ms]
[OGL LOG][Proc: 0]p: solve: 477.298 [ms]
[OGL LOG][Proc: 0]p: copy_x_back: 0.864 [ms]
[OGL LOG][lduLduBase.H:339] 
Statistics:
	Time per iteration: 1367 [mu s]
	Time per residual norm calculation: 459.000000 [mu s]
	Time per iteration and DOF: 0.216739 [ns]
	Retrieve results bandwidth 2.413000 [GByte/s]
[OGL LOG][Proc: 0]p: solve_multi_gpu: 484.09 [ms]
BJhipGKOCG:  Solving for p, Initial residual = 0.0795935539270671, Final residual = 0.0007937216149875401, No Iterations 349
[INFO] SolveP: 499.217 [ms]
time step continuity errors : sum local = 0.006039157502733263, global = -0.0004005083914997177, cumulative = 0.00191554427916784
[INFO] postSolveP: 20.78 [ms]
smoothSolver:  Solving for nuTilda, Initial residual = 0.04910243323608372, Final residual = 0.003231587363262862, No Iterations 3
[INFO] TimeStep: 1670.565 [ms]
ExecutionTime = 22.04 s  ClockTime = 23 s

Time = 8

velocityDampingConstraint velocityDamping damped 0 (0%) of cells
[INFO] MatrixAssemblyU: 414.71 [ms]
smoothSolver:  Solving for Ux, Initial residual = 0.02307012931401621, Final residual = 0.002141971896509223, No Iterations 12
smoothSolver:  Solving for Uy, Initial residual = 0.06036257220965918, Final residual = 0.00593992418816468, No Iterations 12
smoothSolver:  Solving for Uz, Initial residual = 0.06205173394350728, Final residual = 0.005634812174356768, No Iterations 12
[INFO] MomentumPredictor: 363.096 [ms]
[INFO] MatrixAssemblyPI: 78.387 [ms]
[INFO] MatrixAssemblyPII: 36.105 [ms]
[OGL LOG][Proc: 0]: global_index_init: 0.08700000000000001 [ms]
[OGL LOG][Proc: 0]p_local_coeffs: call_update: 0 [ms]
[OGL LOG][Proc: 0]p_non_local_coeffs: call_update: 0 [ms]
[OGL LOG][Proc: 0]p: update_local_matrix_data: 11.135 [ms]
[OGL LOG][Proc: 0]p: update_non_local_matrix_data: 0.074 [ms]
[OGL LOG][Proc: 0]p_matrix: call_update: 2.887 [ms]
[OGL LOG][Proc: 0]p_rhs: call_update: 4.616 [ms]
[OGL LOG][Preconditioner.H:121] Generate preconditioner BJ MaxBlockSize 1
[OGL LOG][Proc: 0]p: init_precond: 0.374 [ms]
[OGL LOG][StoppingCriterion.H:372] Creating stopping criterion with minIter 209 frequency 8
[OGL LOG][Proc: 0]p: generate_solver: 0.001 [ms]
[OGL LOG][Proc: 0]p: solve: 1111.591 [ms]
[OGL LOG][Proc: 0]p: copy_x_back: 0.873 [ms]
[OGL LOG][lduLduBase.H:339] 
Statistics:
	Time per iteration: 1476 [mu s]
	Time per residual norm calculation: 459.000000 [mu s]
	Time per iteration and DOF: 0.234021 [ns]
	Retrieve results bandwidth 2.388000 [GByte/s]
[OGL LOG][Proc: 0]p: solve_multi_gpu: 1120.844 [ms]
BJhipGKOCG:  Solving for p, Initial residual = 0.07194315307233189, Final residual = 0.0007086376665310038, No Iterations 753
[INFO] SolveP: 1134.67 [ms]
time step continuity errors : sum local = 0.005497033072906177, global = -0.0003618921597171106, cumulative = 0.001553652119450729
[INFO] postSolveP: 25.663 [ms]
smoothSolver:  Solving for nuTilda, Initial residual = 0.06532230098469834, Final residual = 0.005866905258866168, No Iterations 2
[INFO] TimeStep: 2306.439 [ms]
ExecutionTime = 24.63 s  ClockTime = 26 s

Time = 9

velocityDampingConstraint velocityDamping damped 0 (0%) of cells
[INFO] MatrixAssemblyU: 431.184 [ms]
smoothSolver:  Solving for Ux, Initial residual = 0.02047394953973848, Final residual = 0.001912118656692033, No Iterations 12
smoothSolver:  Solving for Uy, Initial residual = 0.05463073324025652, Final residual = 0.005441026274577824, No Iterations 12
smoothSolver:  Solving for Uz, Initial residual = 0.05534205361402848, Final residual = 0.005141052039058601, No Iterations 12
[INFO] MomentumPredictor: 344.675 [ms]
[INFO] MatrixAssemblyPI: 81.38 [ms]
[INFO] MatrixAssemblyPII: 36.05 [ms]
[OGL LOG][Proc: 0]: global_index_init: 0.109 [ms]
[OGL LOG][Proc: 0]p_local_coeffs: call_update: 0 [ms]
[OGL LOG][Proc: 0]p_non_local_coeffs: call_update: 0 [ms]
[OGL LOG][Proc: 0]p: update_local_matrix_data: 10.852 [ms]
[OGL LOG][Proc: 0]p: update_non_local_matrix_data: 0.122 [ms]
[OGL LOG][Proc: 0]p_matrix: call_update: 3.282 [ms]
[OGL LOG][Proc: 0]p_rhs: call_update: 1.753 [ms]
[OGL LOG][Preconditioner.H:121] Generate preconditioner BJ MaxBlockSize 1
[OGL LOG][Proc: 0]p: init_precond: 0.35 [ms]
[OGL LOG][StoppingCriterion.H:372] Creating stopping criterion with minIter 451 frequency 10
[OGL LOG][Proc: 0]p: generate_solver: 0.001 [ms]
[OGL LOG][Proc: 0]p: solve: 601.95 [ms]
[OGL LOG][Proc: 0]p: copy_x_back: 0.891 [ms]
[OGL LOG][lduLduBase.H:339] 
Statistics:
	Time per iteration: 1305 [mu s]
	Time per residual norm calculation: 454.000000 [mu s]
	Time per iteration and DOF: 0.206908 [ns]
	Retrieve results bandwidth 2.340000 [GByte/s]
[OGL LOG][Proc: 0]p: solve_multi_gpu: 608.71 [ms]
BJhipGKOCG:  Solving for p, Initial residual = 0.06842319182793356, Final residual = 0.0003237523157004549, No Iterations 461
[INFO] SolveP: 621.788 [ms]
time step continuity errors : sum local = 0.00243999870049446, global = 0.0004663083393926359, cumulative = 0.002019960458843366
[INFO] postSolveP: 18.818 [ms]
smoothSolver:  Solving for nuTilda, Initial residual = 0.04414198411565447, Final residual = 0.003204266369018386, No Iterations 3
[INFO] TimeStep: 1787.689 [ms]
ExecutionTime = 26.74 s  ClockTime = 28 s

Time = 10

velocityDampingConstraint velocityDamping damped 0 (0%) of cells
[INFO] MatrixAssemblyU: 417.397 [ms]
smoothSolver:  Solving for Ux, Initial residual = 0.01842598921752544, Final residual = 0.00173236082174381, No Iterations 12
smoothSolver:  Solving for Uy, Initial residual = 0.05029390711824661, Final residual = 0.005018174041520941, No Iterations 12
smoothSolver:  Solving for Uz, Initial residual = 0.05056633150912253, Final residual = 0.004772007996372661, No Iterations 12
[INFO] MomentumPredictor: 347.586 [ms]
[INFO] MatrixAssemblyPI: 79.491 [ms]
[INFO] MatrixAssemblyPII: 37.829 [ms]
[OGL LOG][Proc: 0]: global_index_init: 0.028 [ms]
[OGL LOG][Proc: 0]p_local_coeffs: call_update: 0 [ms]
[OGL LOG][Proc: 0]p_non_local_coeffs: call_update: 0 [ms]
[OGL LOG][Proc: 0]p: update_local_matrix_data: 12.061 [ms]
[OGL LOG][Proc: 0]p: update_non_local_matrix_data: 0.067 [ms]
[OGL LOG][Proc: 0]p_matrix: call_update: 2.715 [ms]
[OGL LOG][Proc: 0]p_rhs: call_update: 2.899 [ms]
[OGL LOG][Preconditioner.H:121] Generate preconditioner BJ MaxBlockSize 1
[OGL LOG][Proc: 0]p: init_precond: 0.294 [ms]
[OGL LOG][StoppingCriterion.H:372] Creating stopping criterion with minIter 276 frequency 9
[OGL LOG][Proc: 0]p: generate_solver: 0.001 [ms]
[OGL LOG][Proc: 0]p: solve: 402.303 [ms]
[OGL LOG][Proc: 0]p: copy_x_back: 0.85 [ms]
[OGL LOG][lduLduBase.H:339] 
Statistics:
	Time per iteration: 1350 [mu s]
	Time per residual norm calculation: 424.000000 [mu s]
	Time per iteration and DOF: 0.214043 [ns]
	Retrieve results bandwidth 2.453000 [GByte/s]
[OGL LOG][Proc: 0]p: solve_multi_gpu: 409.45 [ms]
BJhipGKOCG:  Solving for p, Initial residual = 0.06259840118649343, Final residual = 0.0006086182581638575, No Iterations 298
[INFO] SolveP: 423.919 [ms]
time step continuity errors : sum local = 0.004544272340293611, global = 0.0009100387830854727, cumulative = 0.002929999241928838
[INFO] postSolveP: 19.662 [ms]
smoothSolver:  Solving for nuTilda, Initial residual = 0.06964361504642542, Final residual = 0.005496007454674673, No Iterations 2
[INFO] TimeStep: 1566.328 [ms]
ExecutionTime = 28.6 s  ClockTime = 30 s

Time = 11

velocityDampingConstraint velocityDamping damped 0 (0%) of cells
[INFO] MatrixAssemblyU: 412.722 [ms]
smoothSolver:  Solving for Ux, Initial residual = 0.01673012860125695, Final residual = 0.001607070019459567, No Iterations 12
smoothSolver:  Solving for Uy, Initial residual = 0.04741896988257639, Final residual = 0.004700460936329735, No Iterations 12
smoothSolver:  Solving for Uz, Initial residual = 0.04712141857873539, Final residual = 0.004486843269937046, No Iterations 12
[INFO] MomentumPredictor: 342.883 [ms]
[INFO] MatrixAssemblyPI: 75.682 [ms]
[INFO] MatrixAssemblyPII: 38.463 [ms]
[OGL LOG][Proc: 0]: global_index_init: 0.038 [ms]
[OGL LOG][Proc: 0]p_local_coeffs: call_update: 0 [ms]
[OGL LOG][Proc: 0]p_non_local_coeffs: call_update: 0 [ms]
[OGL LOG][Proc: 0]p: update_local_matrix_data: 11.51 [ms]
[OGL LOG][Proc: 0]p: update_non_local_matrix_data: 0.082 [ms]
[OGL LOG][Proc: 0]p_matrix: call_update: 2.735 [ms]
[OGL LOG][Proc: 0]p_rhs: call_update: 5.738 [ms]
[OGL LOG][Preconditioner.H:121] Generate preconditioner BJ MaxBlockSize 1
[OGL LOG][Proc: 0]p: init_precond: 0.307 [ms]
[OGL LOG][StoppingCriterion.H:372] Creating stopping criterion with minIter 178 frequency 6
[OGL LOG][Proc: 0]p: generate_solver: 0.001 [ms]
[OGL LOG][Proc: 0]p: solve: 1018.017 [ms]
[OGL LOG][Proc: 0]p: copy_x_back: 0.89 [ms]
[OGL LOG][lduLduBase.H:339] 
Statistics:
	Time per iteration: 1366 [mu s]
	Time per residual norm calculation: 416.000000 [mu s]
	Time per iteration and DOF: 0.216580 [ns]
	Retrieve results bandwidth 2.343000 [GByte/s]
[OGL LOG][Proc: 0]p: solve_multi_gpu: 1028.164 [ms]
BJhipGKOCG:  Solving for p, Initial residual = 0.05818552032086163, Final residual = 0.0005532473993430359, No Iterations 745
[INFO] SolveP: 1041.65 [ms]
time step continuity errors : sum local = 0.00414246315933136, global = -0.0001638142130889393, cumulative = 0.002766185028839899
[INFO] postSolveP: 24.254 [ms]
smoothSolver:  Solving for nuTilda, Initial residual = 0.03913649880016706, Final residual = 0.00302792590921105, No Iterations 3
[INFO] TimeStep: 2194.132 [ms]
ExecutionTime = 31.11 s  ClockTime = 32 s

Time = 12

velocityDampingConstraint velocityDamping damped 0 (0%) of cells
[INFO] MatrixAssemblyU: 418.002 [ms]
smoothSolver:  Solving for Ux, Initial residual = 0.01558958635411997, Final residual = 0.001518409783702822, No Iterations 12
smoothSolver:  Solving for Uy, Initial residual = 0.04570420261858735, Final residual = 0.004481861212348649, No Iterations 12
smoothSolver:  Solving for Uz, Initial residual = 0.04510353701601239, Final residual = 0.004294052655787802, No Iterations 12
[INFO] MomentumPredictor: 371.86 [ms]
[INFO] MatrixAssemblyPI: 78.114 [ms]
[INFO] MatrixAssemblyPII: 36.483 [ms]
[OGL LOG][Proc: 0]: global_index_init: 0.024 [ms]
[OGL LOG][Proc: 0]p_local_coeffs: call_update: 0 [ms]
[OGL LOG][Proc: 0]p_non_local_coeffs: call_update: 0 [ms]
[OGL LOG][Proc: 0]p: update_local_matrix_data: 10.757 [ms]
[OGL LOG][Proc: 0]p: update_non_local_matrix_data: 0.131 [ms]
[OGL LOG][Proc: 0]p_matrix: call_update: 6.543 [ms]
[OGL LOG][Proc: 0]p_rhs: call_update: 0.265 [ms]
[OGL LOG][Preconditioner.H:121] Generate preconditioner BJ MaxBlockSize 1
[OGL LOG][Proc: 0]p: init_precond: 0.387 [ms]
[OGL LOG][StoppingCriterion.H:372] Creating stopping criterion with minIter 447 frequency 9
[OGL LOG][Proc: 0]p: generate_solver: 0.002 [ms]
[OGL LOG][Proc: 0]p: solve: 635.856 [ms]
[OGL LOG][Proc: 0]p: copy_x_back: 0.8260000000000001 [ms]
[OGL LOG][lduLduBase.H:339] 
Statistics:
	Time per iteration: 1409 [mu s]
	Time per residual norm calculation: 486.000000 [mu s]
	Time per iteration and DOF: 0.223398 [ns]
	Retrieve results bandwidth 2.524000 [GByte/s]
[OGL LOG][Proc: 0]p: solve_multi_gpu: 644.332 [ms]
BJhipGKOCG:  Solving for p, Initial residual = 0.05119942893845014, Final residual = 0.0002599473680884685, No Iterations 451
[INFO] SolveP: 657.426 [ms]
time step continuity errors : sum local = 0.002075373778866538, global = -0.0003671468482206818, cumulative = 0.002399038180619217
[INFO] postSolveP: 21.187 [ms]
smoothSolver:  Solving for nuTilda, Initial residual = 0.06545636679803238, Final residual = 0.005104526821429264, No Iterations 2
[INFO] TimeStep: 1830.485 [ms]
ExecutionTime = 33.25 s  ClockTime = 35 s

Time = 13

velocityDampingConstraint velocityDamping damped 0 (0%) of cells
[INFO] MatrixAssemblyU: 410.612 [ms]
smoothSolver:  Solving for Ux, Initial residual = 0.01448939813565098, Final residual = 0.001443289149515609, No Iterations 12
smoothSolver:  Solving for Uy, Initial residual = 0.04359388479525788, Final residual = 0.004282007633407917, No Iterations 12
smoothSolver:  Solving for Uz, Initial residual = 0.04301065314103438, Final residual = 0.004144511255969583, No Iterations 12
[INFO] MomentumPredictor: 340.764 [ms]
[INFO] MatrixAssemblyPI: 77.34999999999999 [ms]
[INFO] MatrixAssemblyPII: 36.712 [ms]
[OGL LOG][Proc: 0]: global_index_init: 0.042 [ms]
[OGL LOG][Proc: 0]p_local_coeffs: call_update: 0 [ms]
[OGL LOG][Proc: 0]p_non_local_coeffs: call_update: 0 [ms]
[OGL LOG][Proc: 0]p: update_local_matrix_data: 11.272 [ms]
[OGL LOG][Proc: 0]p: update_non_local_matrix_data: 0.09 [ms]
[OGL LOG][Proc: 0]p_matrix: call_update: 4.939 [ms]
[OGL LOG][Proc: 0]p_rhs: call_update: 0.252 [ms]
[OGL LOG][Preconditioner.H:121] Generate preconditioner BJ MaxBlockSize 1
[OGL LOG][Proc: 0]p: init_precond: 0.283 [ms]
[OGL LOG][StoppingCriterion.H:372] Creating stopping criterion with minIter 270 frequency 9
[OGL LOG][Proc: 0]p: generate_solver: 0.001 [ms]
[OGL LOG][Proc: 0]p: solve: 374.516 [ms]
[OGL LOG][Proc: 0]p: copy_x_back: 0.844 [ms]
[OGL LOG][lduLduBase.H:339] 
Statistics:
	Time per iteration: 1337 [mu s]
	Time per residual norm calculation: 408.000000 [mu s]
	Time per iteration and DOF: 0.211982 [ns]
	Retrieve results bandwidth 2.470000 [GByte/s]
[OGL LOG][Proc: 0]p: solve_multi_gpu: 381.314 [ms]
BJhipGKOCG:  Solving for p, Initial residual = 0.04859962344475494, Final residual = 0.0004831358861511178, No Iterations 280
[INFO] SolveP: 395.351 [ms]
time step continuity errors : sum local = 0.003825784289225777, global = -0.0007601433109171912, cumulative = 0.001638894869702026
[INFO] postSolveP: 19.937 [ms]
smoothSolver:  Solving for nuTilda, Initial residual = 0.03472072329074005, Final residual = 0.002829990412827465, No Iterations 3
[INFO] TimeStep: 1528.487 [ms]
ExecutionTime = 35.08 s  ClockTime = 36 s

Time = 14

velocityDampingConstraint velocityDamping damped 0 (0%) of cells
[INFO] MatrixAssemblyU: 407.088 [ms]
smoothSolver:  Solving for Ux, Initial residual = 0.0136536830645033, Final residual = 0.001171714894952217, No Iterations 13
smoothSolver:  Solving for Uy, Initial residual = 0.04166564873634902, Final residual = 0.004108441744875872, No Iterations 12
smoothSolver:  Solving for Uz, Initial residual = 0.0419086711601536, Final residual = 0.004055518696830658, No Iterations 12
[INFO] MomentumPredictor: 346.125 [ms]
[INFO] MatrixAssemblyPI: 76.78700000000001 [ms]
[INFO] MatrixAssemblyPII: 36.051 [ms]
[OGL LOG][Proc: 0]: global_index_init: 0.031 [ms]
[OGL LOG][Proc: 0]p_local_coeffs: call_update: 0 [ms]
[OGL LOG][Proc: 0]p_non_local_coeffs: call_update: 0 [ms]
[OGL LOG][Proc: 0]p: update_local_matrix_data: 11.395 [ms]
[OGL LOG][Proc: 0]p: update_non_local_matrix_data: 0.076 [ms]
[OGL LOG][Proc: 0]p_matrix: call_update: 2.92 [ms]
[OGL LOG][Proc: 0]p_rhs: call_update: 3.395 [ms]
[OGL LOG][Preconditioner.H:121] Generate preconditioner BJ MaxBlockSize 1
[OGL LOG][Proc: 0]p: init_precond: 0.347 [ms]
[OGL LOG][StoppingCriterion.H:372] Creating stopping criterion with minIter 168 frequency 6
[OGL LOG][Proc: 0]p: generate_solver: 0.001 [ms]
[OGL LOG][Proc: 0]p: solve: 961.5840000000001 [ms]
[OGL LOG][Proc: 0]p: copy_x_back: 0.968 [ms]
[OGL LOG][lduLduBase.H:339] 
Statistics:
	Time per iteration: 1403 [mu s]
	Time per residual norm calculation: 430.000000 [mu s]
	Time per iteration and DOF: 0.222446 [ns]
	Retrieve results bandwidth 2.154000 [GByte/s]
[OGL LOG][Proc: 0]p: solve_multi_gpu: 969.713 [ms]
BJhipGKOCG:  Solving for p, Initial residual = 0.04652936920658352, Final residual = 0.0004534582520385534, No Iterations 685
[INFO] SolveP: 983.424 [ms]
time step continuity errors : sum local = 0.003583490840374549, global = -0.0002599423470448388, cumulative = 0.001378952522657187
[INFO] postSolveP: 21.077 [ms]
smoothSolver:  Solving for nuTilda, Initial residual = 0.05813117511956112, Final residual = 0.004804412054371539, No Iterations 2
[INFO] TimeStep: 2119.083 [ms]
ExecutionTime = 37.5 s  ClockTime = 39 s

Time = 15

velocityDampingConstraint velocityDamping damped 0 (0%) of cells
[INFO] MatrixAssemblyU: 414.812 [ms]
smoothSolver:  Solving for Ux, Initial residual = 0.01294408390750149, Final residual = 0.001116445961433618, No Iterations 13
smoothSolver:  Solving for Uy, Initial residual = 0.04057429244350201, Final residual = 0.00400361057283989, No Iterations 12
smoothSolver:  Solving for Uz, Initial residual = 0.04192399148165236, Final residual = 0.004060986599940218, No Iterations 12
[INFO] MomentumPredictor: 352.815 [ms]
[INFO] MatrixAssemblyPI: 77.428 [ms]
[INFO] MatrixAssemblyPII: 37.542 [ms]
[OGL LOG][Proc: 0]: global_index_init: 0.082 [ms]
[OGL LOG][Proc: 0]p_local_coeffs: call_update: 0 [ms]
[OGL LOG][Proc: 0]p_non_local_coeffs: call_update: 0 [ms]
[OGL LOG][Proc: 0]p: update_local_matrix_data: 11.981 [ms]
[OGL LOG][Proc: 0]p: update_non_local_matrix_data: 0.08600000000000001 [ms]
[OGL LOG][Proc: 0]p_matrix: call_update: 3.675 [ms]
[OGL LOG][Proc: 0]p_rhs: call_update: 2.607 [ms]
[OGL LOG][Preconditioner.H:121] Generate preconditioner BJ MaxBlockSize 1
[OGL LOG][Proc: 0]p: init_precond: 0.367 [ms]
[OGL LOG][StoppingCriterion.H:372] Creating stopping criterion with minIter 411 frequency 9
[OGL LOG][Proc: 0]p: generate_solver: 0.001 [ms]
[OGL LOG][Proc: 0]p: solve: 556.696 [ms]
[OGL LOG][Proc: 0]p: copy_x_back: 0.8270000000000001 [ms]
[OGL LOG][lduLduBase.H:339] 
Statistics:
	Time per iteration: 1341 [mu s]
	Time per residual norm calculation: 449.000000 [mu s]
	Time per iteration and DOF: 0.212616 [ns]
	Retrieve results bandwidth 2.521000 [GByte/s]
[OGL LOG][Proc: 0]p: solve_multi_gpu: 567.4350000000001 [ms]
BJhipGKOCG:  Solving for p, Initial residual = 0.04682116359288113, Final residual = 0.0003474498328036101, No Iterations 415
[INFO] SolveP: 581.578 [ms]
time step continuity errors : sum local = 0.002651168742855029, global = 0.0004982391796440768, cumulative = 0.001877191702301264
[INFO] postSolveP: 19.039 [ms]
smoothSolver:  Solving for nuTilda, Initial residual = 0.03139655249446784, Final residual = 0.002664659868800618, No Iterations 3
[INFO] TimeStep: 1731.642 [ms]
ExecutionTime = 39.54 s  ClockTime = 41 s

Time = 16

velocityDampingConstraint velocityDamping damped 0 (0%) of cells
[INFO] MatrixAssemblyU: 417.529 [ms]
smoothSolver:  Solving for Ux, Initial residual = 0.01225651156824827, Final residual = 0.001059348102397084, No Iterations 13
smoothSolver:  Solving for Uy, Initial residual = 0.03940452894828263, Final residual = 0.003925554845214755, No Iterations 12
smoothSolver:  Solving for Uz, Initial residual = 0.04164221639151554, Final residual = 0.004057222441713231, No Iterations 12
[INFO] MomentumPredictor: 345.239 [ms]
[INFO] MatrixAssemblyPI: 80.46599999999999 [ms]
[INFO] MatrixAssemblyPII: 36.84 [ms]
[OGL LOG][Proc: 0]: global_index_init: 0.073 [ms]
[OGL LOG][Proc: 0]p_local_coeffs: call_update: 0 [ms]
[OGL LOG][Proc: 0]p_non_local_coeffs: call_update: 0 [ms]
[OGL LOG][Proc: 0]p: update_local_matrix_data: 11.102 [ms]
[OGL LOG][Proc: 0]p: update_non_local_matrix_data: 0.07200000000000001 [ms]
[OGL LOG][Proc: 0]p_matrix: call_update: 3.061 [ms]
[OGL LOG][Proc: 0]p_rhs: call_update: 1.909 [ms]
[OGL LOG][Preconditioner.H:121] Generate preconditioner BJ MaxBlockSize 1
[OGL LOG][Proc: 0]p: init_precond: 0.316 [ms]
[OGL LOG][StoppingCriterion.H:372] Creating stopping criterion with minIter 249 frequency 9
[OGL LOG][Proc: 0]p: generate_solver: 0.001 [ms]
[OGL LOG][Proc: 0]p: solve: 855.558 [ms]
[OGL LOG][Proc: 0]p: copy_x_back: 0.852 [ms]
[OGL LOG][lduLduBase.H:339] 
Statistics:
	Time per iteration: 1336 [mu s]
	Time per residual norm calculation: 415.000000 [mu s]
	Time per iteration and DOF: 0.211824 [ns]
	Retrieve results bandwidth 2.447000 [GByte/s]
[OGL LOG][Proc: 0]p: solve_multi_gpu: 862.149 [ms]
BJhipGKOCG:  Solving for p, Initial residual = 0.04528704366529201, Final residual = 0.0004305363038039019, No Iterations 640
[INFO] SolveP: 875.448 [ms]
time step continuity errors : sum local = 0.003310204359692334, global = -8.622733383009847e-05, cumulative = 0.001790964368471165
[INFO] postSolveP: 20.965 [ms]
smoothSolver:  Solving for nuTilda, Initial residual = 0.05168881824446443, Final residual = 0.004555645033967539, No Iterations 2
[INFO] TimeStep: 2016.759 [ms]
ExecutionTime = 41.84 s  ClockTime = 43 s

Time = 17

velocityDampingConstraint velocityDamping damped 0 (0%) of cells
[INFO] MatrixAssemblyU: 425.753 [ms]
smoothSolver:  Solving for Ux, Initial residual = 0.0115532554403306, Final residual = 0.001006394108330787, No Iterations 13
smoothSolver:  Solving for Uy, Initial residual = 0.03908589631520186, Final residual = 0.003906872732395545, No Iterations 12
smoothSolver:  Solving for Uz, Initial residual = 0.0417090232424643, Final residual = 0.0040742302388611, No Iterations 12
[INFO] MomentumPredictor: 361.222 [ms]
[INFO] MatrixAssemblyPI: 76.393 [ms]
[INFO] MatrixAssemblyPII: 36.185 [ms]
[OGL LOG][Proc: 0]: global_index_init: 0.064 [ms]
[OGL LOG][Proc: 0]p_local_coeffs: call_update: 0 [ms]
[OGL LOG][Proc: 0]p_non_local_coeffs: call_update: 0 [ms]
[OGL LOG][Proc: 0]p: update_local_matrix_data: 11.325 [ms]
[OGL LOG][Proc: 0]p: update_non_local_matrix_data: 0.143 [ms]
[OGL LOG][Proc: 0]p_matrix: call_update: 4.583 [ms]
[OGL LOG][Proc: 0]p_rhs: call_update: 0.926 [ms]
[OGL LOG][Preconditioner.H:121] Generate preconditioner BJ MaxBlockSize 1
[OGL LOG][Proc: 0]p: init_precond: 0.354 [ms]
[OGL LOG][StoppingCriterion.H:372] Creating stopping criterion with minIter 384 frequency 9
[OGL LOG][Proc: 0]p: generate_solver: 0.001 [ms]
[OGL LOG][Proc: 0]p: solve: 522.125 [ms]
[OGL LOG][Proc: 0]p: copy_x_back: 0.893 [ms]
[OGL LOG][lduLduBase.H:339] 
Statistics:
	Time per iteration: 1345 [mu s]
	Time per residual norm calculation: 430.000000 [mu s]
	Time per iteration and DOF: 0.213251 [ns]
	Retrieve results bandwidth 2.335000 [GByte/s]
[OGL LOG][Proc: 0]p: solve_multi_gpu: 529.3530000000001 [ms]
BJhipGKOCG:  Solving for p, Initial residual = 0.04323282645809107, Final residual = 0.0001286488254196755, No Iterations 388
[INFO] SolveP: 543.297 [ms]
time step continuity errors : sum local = 0.001031355647514719, global = -0.0002057434074774483, cumulative = 0.001585220960993717
[INFO] postSolveP: 19.049 [ms]
smoothSolver:  Solving for nuTilda, Initial residual = 0.02893760943142825, Final residual = 0.002514804765131927, No Iterations 3
[INFO] TimeStep: 1709.672 [ms]
ExecutionTime = 43.86 s  ClockTime = 45 s

Time = 18

velocityDampingConstraint velocityDamping damped 0 (0%) of cells
[INFO] MatrixAssemblyU: 410.303 [ms]
smoothSolver:  Solving for Ux, Initial residual = 0.01119616409029614, Final residual = 0.000967676310442956, No Iterations 13
smoothSolver:  Solving for Uy, Initial residual = 0.03874033797492583, Final residual = 0.003322306384885234, No Iterations 13
smoothSolver:  Solving for Uz, Initial residual = 0.04169903194247378, Final residual = 0.004064525264442826, No Iterations 12
[INFO] MomentumPredictor: 365.054 [ms]
[INFO] MatrixAssemblyPI: 80.136 [ms]
[INFO] MatrixAssemblyPII: 36.684 [ms]
[OGL LOG][Proc: 0]: global_index_init: 0.016 [ms]
[OGL LOG][Proc: 0]p_local_coeffs: call_update: 0 [ms]
[OGL LOG][Proc: 0]p_non_local_coeffs: call_update: 0 [ms]
[OGL LOG][Proc: 0]p: update_local_matrix_data: 11.592 [ms]
[OGL LOG][Proc: 0]p: update_non_local_matrix_data: 0.08 [ms]
[OGL LOG][Proc: 0]p_matrix: call_update: 2.745 [ms]
[OGL LOG][Proc: 0]p_rhs: call_update: 3.227 [ms]
[OGL LOG][Preconditioner.H:121] Generate preconditioner BJ MaxBlockSize 1
[OGL LOG][Proc: 0]p: init_precond: 0.341 [ms]
[OGL LOG][StoppingCriterion.H:372] Creating stopping criterion with minIter 232 frequency 7
[OGL LOG][Proc: 0]p: generate_solver: 0.001 [ms]
[OGL LOG][Proc: 0]p: solve: 343.164 [ms]
[OGL LOG][Proc: 0]p: copy_x_back: 0.85 [ms]
[OGL LOG][lduLduBase.H:339] 
Statistics:
	Time per iteration: 1356 [mu s]
	Time per residual norm calculation: 418.000000 [mu s]
	Time per iteration and DOF: 0.214995 [ns]
	Retrieve results bandwidth 2.453000 [GByte/s]
[OGL LOG][Proc: 0]p: solve_multi_gpu: 350.767 [ms]
BJhipGKOCG:  Solving for p, Initial residual = 0.04328470354231114, Final residual = 0.0004205942804721634, No Iterations 253
[INFO] SolveP: 364.465 [ms]
time step continuity errors : sum local = 0.003379982649711354, global = -0.0003418060924426188, cumulative = 0.001243414868551098
[INFO] postSolveP: 19.383 [ms]
smoothSolver:  Solving for nuTilda, Initial residual = 0.04634732266011309, Final residual = 0.004304603294370244, No Iterations 2
[INFO] TimeStep: 1517.087 [ms]
ExecutionTime = 45.67 s  ClockTime = 47 s

Time = 19

velocityDampingConstraint velocityDamping damped 0 (0%) of cells
[INFO] MatrixAssemblyU: 408.312 [ms]
smoothSolver:  Solving for Ux, Initial residual = 0.01085169603511178, Final residual = 0.0009371825885408628, No Iterations 13
smoothSolver:  Solving for Uy, Initial residual = 0.03904292311186798, Final residual = 0.003345361010605185, No Iterations 13
smoothSolver:  Solving for Uz, Initial residual = 0.04250245611738676, Final residual = 0.004117917698818479, No Iterations 12
[INFO] MomentumPredictor: 354.707 [ms]
[INFO] MatrixAssemblyPI: 76.867 [ms]
[INFO] MatrixAssemblyPII: 36.742 [ms]
[OGL LOG][Proc: 0]: global_index_init: 0.043 [ms]
[OGL LOG][Proc: 0]p_local_coeffs: call_update: 0 [ms]
[OGL LOG][Proc: 0]p_non_local_coeffs: call_update: 0 [ms]
[OGL LOG][Proc: 0]p: update_local_matrix_data: 11.489 [ms]
[OGL LOG][Proc: 0]p: update_non_local_matrix_data: 0.123 [ms]
[OGL LOG][Proc: 0]p_matrix: call_update: 2.794 [ms]
[OGL LOG][Proc: 0]p_rhs: call_update: 1.802 [ms]
[OGL LOG][Preconditioner.H:121] Generate preconditioner BJ MaxBlockSize 1
[OGL LOG][Proc: 0]p: init_precond: 0.372 [ms]
[OGL LOG][StoppingCriterion.H:372] Creating stopping criterion with minIter 151 frequency 5
[OGL LOG][Proc: 0]p: generate_solver: 0.001 [ms]
[OGL LOG][Proc: 0]p: solve: 465.144 [ms]
[OGL LOG][Proc: 0]p: copy_x_back: 0.851 [ms]
[OGL LOG][lduLduBase.H:339] 
Statistics:
	Time per iteration: 1405 [mu s]
	Time per residual norm calculation: 461.000000 [mu s]
	Time per iteration and DOF: 0.222764 [ns]
	Retrieve results bandwidth 2.450000 [GByte/s]
[OGL LOG][Proc: 0]p: solve_multi_gpu: 471.391 [ms]
BJhipGKOCG:  Solving for p, Initial residual = 0.0436533818047178, Final residual = 0.0004317066695154778, No Iterations 331
[INFO] SolveP: 485.853 [ms]
time step continuity errors : sum local = 0.003480791661712917, global = -0.0003767049556229394, cumulative = 0.0008667099129281591
[INFO] postSolveP: 18.345 [ms]
smoothSolver:  Solving for nuTilda, Initial residual = 0.02700579626068674, Final residual = 0.002365521676388612, No Iterations 3
[INFO] TimeStep: 1628.649 [ms]
ExecutionTime = 47.61 s  ClockTime = 49 s

Time = 20

velocityDampingConstraint velocityDamping damped 0 (0%) of cells
[INFO] MatrixAssemblyU: 416.463 [ms]
smoothSolver:  Solving for Ux, Initial residual = 0.01069831380307373, Final residual = 0.0009187762288850412, No Iterations 13
smoothSolver:  Solving for Uy, Initial residual = 0.03942634565926217, Final residual = 0.003359376356323445, No Iterations 13
smoothSolver:  Solving for Uz, Initial residual = 0.04310885447992038, Final residual = 0.00414902713756874, No Iterations 12
[INFO] MomentumPredictor: 363.729 [ms]
[INFO] MatrixAssemblyPI: 77.282 [ms]
[INFO] MatrixAssemblyPII: 36.535 [ms]
[OGL LOG][Proc: 0]: global_index_init: 0.059 [ms]
[OGL LOG][Proc: 0]p_local_coeffs: call_update: 0 [ms]
[OGL LOG][Proc: 0]p_non_local_coeffs: call_update: 0 [ms]
[OGL LOG][Proc: 0]p: update_local_matrix_data: 11.334 [ms]
[OGL LOG][Proc: 0]p: update_non_local_matrix_data: 0.08600000000000001 [ms]
[OGL LOG][Proc: 0]p_matrix: call_update: 5.246 [ms]
[OGL LOG][Proc: 0]p_rhs: call_update: 1.41 [ms]
[OGL LOG][Preconditioner.H:121] Generate preconditioner BJ MaxBlockSize 1
[OGL LOG][Proc: 0]p: init_precond: 0.313 [ms]
[OGL LOG][StoppingCriterion.H:372] Creating stopping criterion with minIter 198 frequency 6
[OGL LOG][Proc: 0]p: generate_solver: 0.001 [ms]
[OGL LOG][Proc: 0]p: solve: 501.153 [ms]
[OGL LOG][Proc: 0]p: copy_x_back: 0.841 [ms]
[OGL LOG][lduLduBase.H:339] 
Statistics:
	Time per iteration: 1411 [mu s]
	Time per residual norm calculation: 431.000000 [mu s]
	Time per iteration and DOF: 0.223715 [ns]
	Retrieve results bandwidth 2.479000 [GByte/s]
[OGL LOG][Proc: 0]p: solve_multi_gpu: 509.452 [ms]
BJhipGKOCG:  Solving for p, Initial residual = 0.04361413768177658, Final residual = 0.0004277631052262785, No Iterations 355
[INFO] SolveP: 522.921 [ms]
time step continuity errors : sum local = 0.003477397552615396, global = -0.0003906594670597029, cumulative = 0.0004760504458684561
[INFO] postSolveP: 19.839 [ms]
smoothSolver:  Solving for nuTilda, Initial residual = 0.04181309191032722, Final residual = 0.004051182267607604, No Iterations 2
[INFO] TimeStep: 1675.413 [ms]
ExecutionTime = 49.61 s  ClockTime = 51 s

Time = 21

velocityDampingConstraint velocityDamping damped 0 (0%) of cells
[INFO] MatrixAssemblyU: 409.691 [ms]
smoothSolver:  Solving for Ux, Initial residual = 0.01050600452426792, Final residual = 0.0009055652945429822, No Iterations 13
smoothSolver:  Solving for Uy, Initial residual = 0.03993080175365692, Final residual = 0.00396900125589537, No Iterations 12
smoothSolver:  Solving for Uz, Initial residual = 0.04345420973361871, Final residual = 0.004149468063648668, No Iterations 12
[INFO] MomentumPredictor: 348.315 [ms]
[INFO] MatrixAssemblyPI: 77.22 [ms]
[INFO] MatrixAssemblyPII: 36.581 [ms]
[OGL LOG][Proc: 0]: global_index_init: 0.044 [ms]
[OGL LOG][Proc: 0]p_local_coeffs: call_update: 0 [ms]
[OGL LOG][Proc: 0]p_non_local_coeffs: call_update: 0 [ms]
[OGL LOG][Proc: 0]p: update_local_matrix_data: 11.619 [ms]
[OGL LOG][Proc: 0]p: update_non_local_matrix_data: 0.187 [ms]
[OGL LOG][Proc: 0]p_matrix: call_update: 4.94 [ms]
[OGL LOG][Proc: 0]p_rhs: call_update: 0.286 [ms]
[OGL LOG][Preconditioner.H:121] Generate preconditioner BJ MaxBlockSize 1
[OGL LOG][Proc: 0]p: init_precond: 0.36 [ms]
[OGL LOG][StoppingCriterion.H:372] Creating stopping criterion with minIter 213 frequency 6
[OGL LOG][Proc: 0]p: generate_solver: 0.001 [ms]
[OGL LOG][Proc: 0]p: solve: 471.193 [ms]
[OGL LOG][Proc: 0]p: copy_x_back: 0.857 [ms]
[OGL LOG][lduLduBase.H:339] 
Statistics:
	Time per iteration: 1398 [mu s]
	Time per residual norm calculation: 490.000000 [mu s]
	Time per iteration and DOF: 0.221654 [ns]
	Retrieve results bandwidth 2.433000 [GByte/s]
[OGL LOG][Proc: 0]p: solve_multi_gpu: 478.074 [ms]
BJhipGKOCG:  Solving for p, Initial residual = 0.04377588938716021, Final residual = 0.0004250470631018168, No Iterations 337
[INFO] SolveP: 491.894 [ms]
time step continuity errors : sum local = 0.003488032924311131, global = -0.0003013895905386076, cumulative = 0.0001746608553298485
[INFO] postSolveP: 20.631 [ms]
smoothSolver:  Solving for nuTilda, Initial residual = 0.02521681239621779, Final residual = 0.002220726113688687, No Iterations 3
[INFO] TimeStep: 1631.965 [ms]
ExecutionTime = 51.54 s  ClockTime = 53 s

Time = 22

velocityDampingConstraint velocityDamping damped 0 (0%) of cells
[INFO] MatrixAssemblyU: 410.888 [ms]
smoothSolver:  Solving for Ux, Initial residual = 0.0104716241785507, Final residual = 0.0008932736217007092, No Iterations 13
smoothSolver:  Solving for Uy, Initial residual = 0.04057936642741321, Final residual = 0.004002158021106227, No Iterations 12
smoothSolver:  Solving for Uz, Initial residual = 0.04332709020053812, Final residual = 0.004106513696169664, No Iterations 12
[INFO] MomentumPredictor: 346.792 [ms]
[INFO] MatrixAssemblyPI: 76.035 [ms]
[INFO] MatrixAssemblyPII: 36.248 [ms]
[OGL LOG][Proc: 0]: global_index_init: 0.194 [ms]
[OGL LOG][Proc: 0]p_local_coeffs: call_update: 0 [ms]
[OGL LOG][Proc: 0]p_non_local_coeffs: call_update: 0 [ms]
[OGL LOG][Proc: 0]p: update_local_matrix_data: 11.027 [ms]
[OGL LOG][Proc: 0]p: update_non_local_matrix_data: 0.079 [ms]
[OGL LOG][Proc: 0]p_matrix: call_update: 4.499 [ms]
[OGL LOG][Proc: 0]p_rhs: call_update: 0.632 [ms]
[OGL LOG][Preconditioner.H:121] Generate preconditioner BJ MaxBlockSize 1
[OGL LOG][Proc: 0]p: init_precond: 0.363 [ms]
[OGL LOG][StoppingCriterion.H:372] Creating stopping criterion with minIter 202 frequency 8
[OGL LOG][Proc: 0]p: generate_solver: 0 [ms]
[OGL LOG][Proc: 0]p: solve: 443.629 [ms]
[OGL LOG][Proc: 0]p: copy_x_back: 0.8100000000000001 [ms]
[OGL LOG][lduLduBase.H:339] 
Statistics:
	Time per iteration: 1348 [mu s]
	Time per residual norm calculation: 427.000000 [mu s]
	Time per iteration and DOF: 0.213726 [ns]
	Retrieve results bandwidth 2.574000 [GByte/s]
[OGL LOG][Proc: 0]p: solve_multi_gpu: 450.41 [ms]
BJhipGKOCG:  Solving for p, Initial residual = 0.04370822912073746, Final residual = 0.0004365375110155792, No Iterations 329
[INFO] SolveP: 464.713 [ms]
time step continuity errors : sum local = 0.003611288256288128, global = -0.00010899216937437, cumulative = 6.56686859554785e-05
[INFO] postSolveP: 21.084 [ms]
smoothSolver:  Solving for nuTilda, Initial residual = 0.03796386787128931, Final residual = 0.002020933021910663, No Iterations 3
[INFO] TimeStep: 1608.537 [ms]
ExecutionTime = 53.46 s  ClockTime = 55 s

Time = 23

velocityDampingConstraint velocityDamping damped 0 (0%) of cells
[INFO] MatrixAssemblyU: 409.883 [ms]
smoothSolver:  Solving for Ux, Initial residual = 0.01035009899271482, Final residual = 0.0008842207246600723, No Iterations 13
smoothSolver:  Solving for Uy, Initial residual = 0.0411935784823247, Final residual = 0.004010837622977033, No Iterations 12
smoothSolver:  Solving for Uz, Initial residual = 0.04292716538722039, Final residual = 0.004027891378811178, No Iterations 12
[INFO] MomentumPredictor: 372.538 [ms]
[INFO] MatrixAssemblyPI: 77.98999999999999 [ms]
[INFO] MatrixAssemblyPII: 35.734 [ms]
[OGL LOG][Proc: 0]: global_index_init: 0.118 [ms]
[OGL LOG][Proc: 0]p_local_coeffs: call_update: 0 [ms]
[OGL LOG][Proc: 0]p_non_local_coeffs: call_update: 0 [ms]
[OGL LOG][Proc: 0]p: update_local_matrix_data: 10.496 [ms]
[OGL LOG][Proc: 0]p: update_non_local_matrix_data: 0.115 [ms]
[OGL LOG][Proc: 0]p_matrix: call_update: 3.131 [ms]
[OGL LOG][Proc: 0]p_rhs: call_update: 1.632 [ms]
[OGL LOG][Preconditioner.H:121] Generate preconditioner BJ MaxBlockSize 1
[OGL LOG][Proc: 0]p: init_precond: 0.354 [ms]
[OGL LOG][StoppingCriterion.H:372] Creating stopping criterion with minIter 197 frequency 6
[OGL LOG][Proc: 0]p: generate_solver: 0.001 [ms]
[OGL LOG][Proc: 0]p: solve: 465.507 [ms]
[OGL LOG][Proc: 0]p: copy_x_back: 0.8100000000000001 [ms]
[OGL LOG][lduLduBase.H:339] 
Statistics:
	Time per iteration: 1381 [mu s]
	Time per residual norm calculation: 469.000000 [mu s]
	Time per iteration and DOF: 0.218958 [ns]
	Retrieve results bandwidth 2.574000 [GByte/s]
[OGL LOG][Proc: 0]p: solve_multi_gpu: 471.868 [ms]
BJhipGKOCG:  Solving for p, Initial residual = 0.04350317971232613, Final residual = 0.0004197621054111973, No Iterations 337
[INFO] SolveP: 484.632 [ms]
time step continuity errors : sum local = 0.003517400638168266, global = 0.0001443127080453224, cumulative = 0.0002099813940008009
[INFO] postSolveP: 18.349 [ms]
smoothSolver:  Solving for nuTilda, Initial residual = 0.02340490428805299, Final residual = 0.002089715305221777, No Iterations 3
[INFO] TimeStep: 1650.244 [ms]
ExecutionTime = 55.41 s  ClockTime = 57 s

Time = 24

velocityDampingConstraint velocityDamping damped 0 (0%) of cells
[INFO] MatrixAssemblyU: 410.448 [ms]
smoothSolver:  Solving for Ux, Initial residual = 0.01037696921741959, Final residual = 0.001031638592878297, No Iterations 12
smoothSolver:  Solving for Uy, Initial residual = 0.0418832160335357, Final residual = 0.004051416493584576, No Iterations 12
smoothSolver:  Solving for Uz, Initial residual = 0.04251290167626281, Final residual = 0.003952838701888845, No Iterations 12
[INFO] MomentumPredictor: 345.889 [ms]
[INFO] MatrixAssemblyPI: 76.84099999999999 [ms]
[INFO] MatrixAssemblyPII: 36.224 [ms]
[OGL LOG][Proc: 0]: global_index_init: 0.039 [ms]
[OGL LOG][Proc: 0]p_local_coeffs: call_update: 0 [ms]
[OGL LOG][Proc: 0]p_non_local_coeffs: call_update: 0 [ms]
[OGL LOG][Proc: 0]p: update_local_matrix_data: 11.156 [ms]
[OGL LOG][Proc: 0]p: update_non_local_matrix_data: 0.08700000000000001 [ms]
[OGL LOG][Proc: 0]p_matrix: call_update: 3.145 [ms]
[OGL LOG][Proc: 0]p_rhs: call_update: 0.778 [ms]
[OGL LOG][Preconditioner.H:121] Generate preconditioner BJ MaxBlockSize 1
[OGL LOG][Proc: 0]p: init_precond: 0.351 [ms]
[OGL LOG][StoppingCriterion.H:372] Creating stopping criterion with minIter 202 frequency 8
[OGL LOG][Proc: 0]p: generate_solver: 0 [ms]
[OGL LOG][Proc: 0]p: solve: 474.388 [ms]
[OGL LOG][Proc: 0]p: copy_x_back: 0.84 [ms]
[OGL LOG][lduLduBase.H:339] 
Statistics:
	Time per iteration: 1407 [mu s]
	Time per residual norm calculation: 438.000000 [mu s]
	Time per iteration and DOF: 0.223081 [ns]
	Retrieve results bandwidth 2.482000 [GByte/s]
[OGL LOG][Proc: 0]p: solve_multi_gpu: 479.987 [ms]
BJhipGKOCG:  Solving for p, Initial residual = 0.0431207237205589, Final residual = 0.0004142242391688958, No Iterations 337
[INFO] SolveP: 493.536 [ms]
time step continuity errors : sum local = 0.003521983747877399, global = 0.0003858555419858506, cumulative = 0.0005958369359866514
[INFO] postSolveP: 19.455 [ms]
smoothSolver:  Solving for nuTilda, Initial residual = 0.03447096274260281, Final residual = 0.001911707361073678, No Iterations 3
[INFO] TimeStep: 1629.464 [ms]
ExecutionTime = 57.34 s  ClockTime = 59 s

Time = 25

velocityDampingConstraint velocityDamping damped 0 (0%) of cells
[INFO] MatrixAssemblyU: 408.809 [ms]
smoothSolver:  Solving for Ux, Initial residual = 0.01032311076040152, Final residual = 0.0008825197036472565, No Iterations 13
smoothSolver:  Solving for Uy, Initial residual = 0.0426902825639257, Final residual = 0.004142526320045649, No Iterations 12
smoothSolver:  Solving for Uz, Initial residual = 0.04221914394200563, Final residual = 0.003911768487821011, No Iterations 12
[INFO] MomentumPredictor: 349.598 [ms]
[INFO] MatrixAssemblyPI: 77.072 [ms]
[INFO] MatrixAssemblyPII: 37.331 [ms]
[OGL LOG][Proc: 0]: global_index_init: 0.017 [ms]
[OGL LOG][Proc: 0]p_local_coeffs: call_update: 0 [ms]
[OGL LOG][Proc: 0]p_non_local_coeffs: call_update: 0 [ms]
[OGL LOG][Proc: 0]p: update_local_matrix_data: 11.159 [ms]
[OGL LOG][Proc: 0]p: update_non_local_matrix_data: 0.14 [ms]
[OGL LOG][Proc: 0]p_matrix: call_update: 2.942 [ms]
[OGL LOG][Proc: 0]p_rhs: call_update: 3.285 [ms]
[OGL LOG][Preconditioner.H:121] Generate preconditioner BJ MaxBlockSize 1
[OGL LOG][Proc: 0]p: init_precond: 0.354 [ms]
[OGL LOG][StoppingCriterion.H:372] Creating stopping criterion with minIter 202 frequency 6
[OGL LOG][Proc: 0]p: generate_solver: 0.001 [ms]
[OGL LOG][Proc: 0]p: solve: 483.825 [ms]
[OGL LOG][Proc: 0]p: copy_x_back: 0.872 [ms]
[OGL LOG][lduLduBase.H:339] 
Statistics:
	Time per iteration: 1386 [mu s]
	Time per residual norm calculation: 468.000000 [mu s]
	Time per iteration and DOF: 0.219751 [ns]
	Retrieve results bandwidth 2.391000 [GByte/s]
[OGL LOG][Proc: 0]p: solve_multi_gpu: 491.722 [ms]
BJhipGKOCG:  Solving for p, Initial residual = 0.04250617165118047, Final residual = 0.0004227455047168129, No Iterations 349
[INFO] SolveP: 506.277 [ms]
time step continuity errors : sum local = 0.00365071533964893, global = 0.0006234037960404315, cumulative = 0.001219240732027083
[INFO] postSolveP: 22.689 [ms]
smoothSolver:  Solving for nuTilda, Initial residual = 0.02154705369946142, Final residual = 0.001958419250618551, No Iterations 3
[INFO] TimeStep: 1647.993 [ms]
ExecutionTime = 59.29 s  ClockTime = 61 s

Time = 26

velocityDampingConstraint velocityDamping damped 0 (0%) of cells
[INFO] MatrixAssemblyU: 411.938 [ms]
smoothSolver:  Solving for Ux, Initial residual = 0.01039834640148278, Final residual = 0.001035772170130404, No Iterations 12
smoothSolver:  Solving for Uy, Initial residual = 0.04365010512262991, Final residual = 0.004298935169678642, No Iterations 12
smoothSolver:  Solving for Uz, Initial residual = 0.04223788292318049, Final residual = 0.003951555510606258, No Iterations 12
[INFO] MomentumPredictor: 343.642 [ms]
[INFO] MatrixAssemblyPI: 77.779 [ms]
[INFO] MatrixAssemblyPII: 36.621 [ms]
[OGL LOG][Proc: 0]: global_index_init: 0.074 [ms]
[OGL LOG][Proc: 0]p_local_coeffs: call_update: 0 [ms]
[OGL LOG][Proc: 0]p_non_local_coeffs: call_update: 0 [ms]
[OGL LOG][Proc: 0]p: update_local_matrix_data: 10.348 [ms]
[OGL LOG][Proc: 0]p: update_non_local_matrix_data: 0.115 [ms]
[OGL LOG][Proc: 0]p_matrix: call_update: 3.362 [ms]
[OGL LOG][Proc: 0]p_rhs: call_update: 1.58 [ms]
[OGL LOG][Preconditioner.H:121] Generate preconditioner BJ MaxBlockSize 1
[OGL LOG][Proc: 0]p: init_precond: 0.351 [ms]
[OGL LOG][StoppingCriterion.H:372] Creating stopping criterion with minIter 209 frequency 8
[OGL LOG][Proc: 0]p: generate_solver: 0.001 [ms]
[OGL LOG][Proc: 0]p: solve: 1006.551 [ms]
[OGL LOG][Proc: 0]p: copy_x_back: 0.919 [ms]
[OGL LOG][lduLduBase.H:339] 
Statistics:
	Time per iteration: 1351 [mu s]
	Time per residual norm calculation: 452.000000 [mu s]
	Time per iteration and DOF: 0.214202 [ns]
	Retrieve results bandwidth 2.269000 [GByte/s]
[OGL LOG][Proc: 0]p: solve_multi_gpu: 1013.242 [ms]
BJhipGKOCG:  Solving for p, Initial residual = 0.04209374451330765, Final residual = 0.000419885161887904, No Iterations 745
[INFO] SolveP: 1026.556 [ms]
time step continuity errors : sum local = 0.003682520113644922, global = -9.376613355398323e-05, cumulative = 0.0011254745984731
[INFO] postSolveP: 21.524 [ms]
smoothSolver:  Solving for nuTilda, Initial residual = 0.03149773847349983, Final residual = 0.001805431834503126, No Iterations 3
[INFO] TimeStep: 2172.427 [ms]
ExecutionTime = 61.76 s  ClockTime = 63 s

Time = 27

velocityDampingConstraint velocityDamping damped 0 (0%) of cells
[INFO] MatrixAssemblyU: 408.354 [ms]
smoothSolver:  Solving for Ux, Initial residual = 0.01040968869890607, Final residual = 0.001036116159454808, No Iterations 12
smoothSolver:  Solving for Uy, Initial residual = 0.04493178556960054, Final residual = 0.004469238407491501, No Iterations 12
smoothSolver:  Solving for Uz, Initial residual = 0.04263574695144964, Final residual = 0.004023327045795756, No Iterations 12
[INFO] MomentumPredictor: 345.177 [ms]
[INFO] MatrixAssemblyPI: 77.41 [ms]
[INFO] MatrixAssemblyPII: 36.284 [ms]
[OGL LOG][Proc: 0]: global_index_init: 0.038 [ms]
[OGL LOG][Proc: 0]p_local_coeffs: call_update: 0 [ms]
[OGL LOG][Proc: 0]p_non_local_coeffs: call_update: 0 [ms]
[OGL LOG][Proc: 0]p: update_local_matrix_data: 11.173 [ms]
[OGL LOG][Proc: 0]p: update_non_local_matrix_data: 0.113 [ms]
[OGL LOG][Proc: 0]p_matrix: call_update: 3.097 [ms]
[OGL LOG][Proc: 0]p_rhs: call_update: 4.301 [ms]
[OGL LOG][Preconditioner.H:121] Generate preconditioner BJ MaxBlockSize 1
[OGL LOG][Proc: 0]p: init_precond: 0.308 [ms]
[OGL LOG][StoppingCriterion.H:372] Creating stopping criterion with minIter 447 frequency 12
[OGL LOG][Proc: 0]p: generate_solver: 0.001 [ms]
[OGL LOG][Proc: 0]p: solve: 643.633 [ms]
[OGL LOG][Proc: 0]p: copy_x_back: 0.838 [ms]
[OGL LOG][lduLduBase.H:339] 
Statistics:
	Time per iteration: 1408 [mu s]
	Time per residual norm calculation: 362.000000 [mu s]
	Time per iteration and DOF: 0.223239 [ns]
	Retrieve results bandwidth 2.488000 [GByte/s]
[OGL LOG][Proc: 0]p: solve_multi_gpu: 652.646 [ms]
BJhipGKOCG:  Solving for p, Initial residual = 0.04125143565603995, Final residual = 8.879507426589108e-05, No Iterations 457
[INFO] SolveP: 666.063 [ms]
time step continuity errors : sum local = 0.0008105787573534374, global = -0.0001070099979390375, cumulative = 0.001018464600534062
[INFO] postSolveP: 19.681 [ms]
smoothSolver:  Solving for nuTilda, Initial residual = 0.01984796927082968, Final residual = 0.001832593002143254, No Iterations 3
[INFO] TimeStep: 1802.756 [ms]
ExecutionTime = 63.88 s  ClockTime = 66 s

Time = 28

velocityDampingConstraint velocityDamping damped 0 (0%) of cells
[INFO] MatrixAssemblyU: 417.594 [ms]
smoothSolver:  Solving for Ux, Initial residual = 0.01050635323290762, Final residual = 0.001039502333298108, No Iterations 12
smoothSolver:  Solving for Uy, Initial residual = 0.0461512318838318, Final residual = 0.003965306480882017, No Iterations 13
smoothSolver:  Solving for Uz, Initial residual = 0.04346916082644208, Final residual = 0.004134216305095806, No Iterations 12
[INFO] MomentumPredictor: 357.075 [ms]
[INFO] MatrixAssemblyPI: 77.419 [ms]
[INFO] MatrixAssemblyPII: 35.079 [ms]
[OGL LOG][Proc: 0]: global_index_init: 0.046 [ms]
[OGL LOG][Proc: 0]p_local_coeffs: call_update: 0 [ms]
[OGL LOG][Proc: 0]p_non_local_coeffs: call_update: 0 [ms]
[OGL LOG][Proc: 0]p: update_local_matrix_data: 11.776 [ms]
[OGL LOG][Proc: 0]p: update_non_local_matrix_data: 0.079 [ms]
[OGL LOG][Proc: 0]p_matrix: call_update: 3.023 [ms]
[OGL LOG][Proc: 0]p_rhs: call_update: 1.359 [ms]
[OGL LOG][Preconditioner.H:121] Generate preconditioner BJ MaxBlockSize 1
[OGL LOG][Proc: 0]p: init_precond: 0.359 [ms]
[OGL LOG][StoppingCriterion.H:372] Creating stopping criterion with minIter 274 frequency 7
[OGL LOG][Proc: 0]p: generate_solver: 0.001 [ms]
[OGL LOG][Proc: 0]p: solve: 412.824 [ms]
[OGL LOG][Proc: 0]p: copy_x_back: 0.839 [ms]
[OGL LOG][lduLduBase.H:339] 
Statistics:
	Time per iteration: 1336 [mu s]
	Time per residual norm calculation: 466.000000 [mu s]
	Time per iteration and DOF: 0.211824 [ns]
	Retrieve results bandwidth 2.485000 [GByte/s]
[OGL LOG][Proc: 0]p: solve_multi_gpu: 418.884 [ms]
BJhipGKOCG:  Solving for p, Initial residual = 0.04248142566430283, Final residual = 0.000415748939235284, No Iterations 309
[INFO] SolveP: 433.744 [ms]
time step continuity errors : sum local = 0.003813500446395007, global = -0.0002208596204968236, cumulative = 0.0007976049800372386
[INFO] postSolveP: 19.601 [ms]
smoothSolver:  Solving for nuTilda, Initial residual = 0.0289609252868993, Final residual = 0.001698266057479015, No Iterations 3
[INFO] TimeStep: 1600.934 [ms]
ExecutionTime = 65.79000000000001 s  ClockTime = 68 s

Time = 29

velocityDampingConstraint velocityDamping damped 0 (0%) of cells
[INFO] MatrixAssemblyU: 411.593 [ms]
smoothSolver:  Solving for Ux, Initial residual = 0.01056378936818187, Final residual = 0.001043194867902349, No Iterations 12
smoothSolver:  Solving for Uy, Initial residual = 0.04769060596474198, Final residual = 0.004107324442970547, No Iterations 13
smoothSolver:  Solving for Uz, Initial residual = 0.04492785508419378, Final residual = 0.00428083808824096, No Iterations 12
[INFO] MomentumPredictor: 348.237 [ms]
[INFO] MatrixAssemblyPI: 77.91500000000001 [ms]
[INFO] MatrixAssemblyPII: 35.793 [ms]
[OGL LOG][Proc: 0]: global_index_init: 0.047 [ms]
[OGL LOG][Proc: 0]p_local_coeffs: call_update: 0 [ms]
[OGL LOG][Proc: 0]p_non_local_coeffs: call_update: 0 [ms]
[OGL LOG][Proc: 0]p: update_local_matrix_data: 11.429 [ms]
[OGL LOG][Proc: 0]p: update_non_local_matrix_data: 0.094 [ms]
[OGL LOG][Proc: 0]p_matrix: call_update: 2.946 [ms]
[OGL LOG][Proc: 0]p_rhs: call_update: 0.636 [ms]
[OGL LOG][Preconditioner.H:121] Generate preconditioner BJ MaxBlockSize 1
[OGL LOG][Proc: 0]p: init_precond: 0.339 [ms]
[OGL LOG][StoppingCriterion.H:372] Creating stopping criterion with minIter 185 frequency 7
[OGL LOG][Proc: 0]p: generate_solver: 0.001 [ms]
[OGL LOG][Proc: 0]p: solve: 496.321 [ms]
[OGL LOG][Proc: 0]p: copy_x_back: 0.8230000000000001 [ms]
[OGL LOG][lduLduBase.H:339] 
Statistics:
	Time per iteration: 1414 [mu s]
	Time per residual norm calculation: 434.000000 [mu s]
	Time per iteration and DOF: 0.224191 [ns]
	Retrieve results bandwidth 2.533000 [GByte/s]
[OGL LOG][Proc: 0]p: solve_multi_gpu: 501.564 [ms]
BJhipGKOCG:  Solving for p, Initial residual = 0.04355233148676997, Final residual = 0.0004287816835373262, No Iterations 351
[INFO] SolveP: 515.122 [ms]
time step continuity errors : sum local = 0.00395981126375037, global = -0.0002306771668649686, cumulative = 0.00056692781317227
[INFO] postSolveP: 21.605 [ms]
smoothSolver:  Solving for nuTilda, Initial residual = 0.01835482946699669, Final residual = 0.001709266437585272, No Iterations 3
[INFO] TimeStep: 1658.549 [ms]
ExecutionTime = 67.75 s  ClockTime = 69 s

Time = 30

velocityDampingConstraint velocityDamping damped 0 (0%) of cells
[INFO] MatrixAssemblyU: 423.485 [ms]
smoothSolver:  Solving for Ux, Initial residual = 0.01075798015790708, Final residual = 0.001049766962621942, No Iterations 12
smoothSolver:  Solving for Uy, Initial residual = 0.04978500681947637, Final residual = 0.004257653008834864, No Iterations 13
smoothSolver:  Solving for Uz, Initial residual = 0.04653292754752691, Final residual = 0.004420081384000997, No Iterations 12
[INFO] MomentumPredictor: 347.819 [ms]
[INFO] MatrixAssemblyPI: 77.123 [ms]
[INFO] MatrixAssemblyPII: 36.382 [ms]
[OGL LOG][Proc: 0]: global_index_init: 0.097 [ms]
[OGL LOG][Proc: 0]p_local_coeffs: call_update: 0 [ms]
[OGL LOG][Proc: 0]p_non_local_coeffs: call_update: 0 [ms]
[OGL LOG][Proc: 0]p: update_local_matrix_data: 11.461 [ms]
[OGL LOG][Proc: 0]p: update_non_local_matrix_data: 0.092 [ms]
[OGL LOG][Proc: 0]p_matrix: call_update: 8.588000000000001 [ms]
[OGL LOG][Proc: 0]p_rhs: call_update: 0.962 [ms]
[OGL LOG][Preconditioner.H:121] Generate preconditioner BJ MaxBlockSize 1
[OGL LOG][Proc: 0]p: init_precond: 0.23 [ms]
[OGL LOG][StoppingCriterion.H:372] Creating stopping criterion with minIter 210 frequency 6
[OGL LOG][Proc: 0]p: generate_solver: 0.001 [ms]
[OGL LOG][Proc: 0]p: solve: 350.383 [ms]
[OGL LOG][Proc: 0]p: copy_x_back: 0.844 [ms]
[OGL LOG][lduLduBase.H:339] 
Statistics:
	Time per iteration: 1384 [mu s]
	Time per residual norm calculation: 462.000000 [mu s]
	Time per iteration and DOF: 0.219434 [ns]
	Retrieve results bandwidth 2.470000 [GByte/s]
[OGL LOG][Proc: 0]p: solve_multi_gpu: 361.446 [ms]
BJhipGKOCG:  Solving for p, Initial residual = 0.04452985374373698, Final residual = 0.0004345810604298612, No Iterations 253
[INFO] SolveP: 375.899 [ms]
time step continuity errors : sum local = 0.004067465961635821, global = -0.0001786055004554037, cumulative = 0.0003883223127168663
[INFO] postSolveP: 20.359 [ms]
smoothSolver:  Solving for nuTilda, Initial residual = 0.0267731888943916, Final residual = 0.001591327358541475, No Iterations 3
[INFO] TimeStep: 1534.701 [ms]
[...]
	Time per iteration and DOF: 0.221019 [ns]
	Retrieve results bandwidth 2.704000 [GByte/s]
[OGL LOG][Proc: 0]p: solve_multi_gpu: 329.539 [ms]
BJhipGKOCG:  Solving for p, Initial residual = 0.05743822870210555, Final residual = 0.0005659159191376106, No Iterations 231
[INFO] SolveP: 343.135 [ms]
time step continuity errors : sum local = 0.00570025360134431, global = -0.0001310090623128284, cumulative = 0.0004623346691172788
[INFO] postSolveP: 19.324 [ms]
smoothSolver:  Solving for nuTilda, Initial residual = 0.01295272514830478, Final residual = 0.001160646431624626, No Iterations 3
[INFO] TimeStep: 1485.849 [ms]
ExecutionTime = 89.73 s  ClockTime = 92 s

Time = 42

velocityDampingConstraint velocityDamping damped 0 (0%) of cells
[INFO] MatrixAssemblyU: 417.31 [ms]
smoothSolver:  Solving for Ux, Initial residual = 0.01210888218856845, Final residual = 0.001207604740079138, No Iterations 12
smoothSolver:  Solving for Uy, Initial residual = 0.0712005176167616, Final residual = 0.006691447070431101, No Iterations 13
smoothSolver:  Solving for Uz, Initial residual = 0.07098812281364045, Final residual = 0.006088152614170904, No Iterations 13
[INFO] MomentumPredictor: 352.864 [ms]
[INFO] MatrixAssemblyPI: 76.61499999999999 [ms]
[INFO] MatrixAssemblyPII: 36.281 [ms]
[OGL LOG][Proc: 0]: global_index_init: 0.108 [ms]
[OGL LOG][Proc: 0]p_local_coeffs: call_update: 0 [ms]
[OGL LOG][Proc: 0]p_non_local_coeffs: call_update: 0 [ms]
[OGL LOG][Proc: 0]p: update_local_matrix_data: 11.337 [ms]
[OGL LOG][Proc: 0]p: update_non_local_matrix_data: 0.074 [ms]
[OGL LOG][Proc: 0]p_matrix: call_update: 3.014 [ms]
[OGL LOG][Proc: 0]p_rhs: call_update: 1.4 [ms]
[OGL LOG][Preconditioner.H:121] Generate preconditioner BJ MaxBlockSize 1
[OGL LOG][Proc: 0]p: init_precond: 0.274 [ms]
[OGL LOG][StoppingCriterion.H:372] Creating stopping criterion with minIter 138 frequency 5
[OGL LOG][Proc: 0]p: generate_solver: 0.001 [ms]
[OGL LOG][Proc: 0]p: solve: 326.517 [ms]
[OGL LOG][Proc: 0]p: copy_x_back: 0.789 [ms]
[OGL LOG][lduLduBase.H:339] 
Statistics:
	Time per iteration: 1413 [mu s]
	Time per residual norm calculation: 450.000000 [mu s]
	Time per iteration and DOF: 0.224032 [ns]
	Retrieve results bandwidth 2.643000 [GByte/s]
[OGL LOG][Proc: 0]p: solve_multi_gpu: 332.438 [ms]
BJhipGKOCG:  Solving for p, Initial residual = 0.0571885381791443, Final residual = 0.000554031484401694, No Iterations 231
[INFO] SolveP: 346.744 [ms]
time step continuity errors : sum local = 0.005580069035926229, global = -0.0002601073459498585, cumulative = 0.0002022273231674204
[INFO] postSolveP: 19.002 [ms]
smoothSolver:  Solving for nuTilda, Initial residual = 0.01846779345199455, Final residual = 0.00111388417909774, No Iterations 3
[INFO] TimeStep: 1497.275 [ms]
ExecutionTime = 91.55 s  ClockTime = 94 s

Time = 43

velocityDampingConstraint velocityDamping damped 0 (0%) of cells
[INFO] MatrixAssemblyU: 415.548 [ms]
smoothSolver:  Solving for Ux, Initial residual = 0.01201409528981393, Final residual = 0.001034831900135765, No Iterations 13
smoothSolver:  Solving for Uy, Initial residual = 0.07194009741324919, Final residual = 0.006916575882880115, No Iterations 13
smoothSolver:  Solving for Uz, Initial residual = 0.07071164440357865, Final residual = 0.006177510126367213, No Iterations 13
[INFO] MomentumPredictor: 361.045 [ms]
[INFO] MatrixAssemblyPI: 77.01900000000001 [ms]
[INFO] MatrixAssemblyPII: 35.741 [ms]
[OGL LOG][Proc: 0]: global_index_init: 0.074 [ms]
[OGL LOG][Proc: 0]p_local_coeffs: call_update: 0 [ms]
[OGL LOG][Proc: 0]p_non_local_coeffs: call_update: 0 [ms]
[OGL LOG][Proc: 0]p: update_local_matrix_data: 11.15 [ms]
[OGL LOG][Proc: 0]p: update_non_local_matrix_data: 0.095 [ms]
[OGL LOG][Proc: 0]p_matrix: call_update: 3.26 [ms]
[OGL LOG][Proc: 0]p_rhs: call_update: 2.013 [ms]
[OGL LOG][Preconditioner.H:121] Generate preconditioner BJ MaxBlockSize 1
[OGL LOG][Proc: 0]p: init_precond: 0.319 [ms]
[OGL LOG][StoppingCriterion.H:372] Creating stopping criterion with minIter 138 frequency 5
[OGL LOG][Proc: 0]p: generate_solver: 0.001 [ms]
[OGL LOG][Proc: 0]p: solve: 317.014 [ms]
[OGL LOG][Proc: 0]p: copy_x_back: 0.8260000000000001 [ms]
[OGL LOG][lduLduBase.H:339] 
Statistics:
	Time per iteration: 1402 [mu s]
	Time per residual norm calculation: 449.000000 [mu s]
	Time per iteration and DOF: 0.222288 [ns]
	Retrieve results bandwidth 2.524000 [GByte/s]
[OGL LOG][Proc: 0]p: solve_multi_gpu: 323.861 [ms]
BJhipGKOCG:  Solving for p, Initial residual = 0.05650842131178777, Final residual = 0.0005564577821542482, No Iterations 226
[INFO] SolveP: 338.295 [ms]
time step continuity errors : sum local = 0.005592826964334106, global = -0.000425803109447827, cumulative = -0.0002235757862804066
[INFO] postSolveP: 19.117 [ms]
smoothSolver:  Solving for nuTilda, Initial residual = 0.01236287361378239, Final residual = 0.001104402099504658, No Iterations 3
[INFO] TimeStep: 1502.315 [ms]
ExecutionTime = 93.34999999999999 s  ClockTime = 95 s

Time = 44

velocityDampingConstraint velocityDamping damped 0 (0%) of cells
[INFO] MatrixAssemblyU: 416.574 [ms]
smoothSolver:  Solving for Ux, Initial residual = 0.0120337622100385, Final residual = 0.00104356144013635, No Iterations 13
smoothSolver:  Solving for Uy, Initial residual = 0.07245845373208533, Final residual = 0.007121432171059558, No Iterations 13
smoothSolver:  Solving for Uz, Initial residual = 0.07009020848636179, Final residual = 0.006245079033419666, No Iterations 13
[INFO] MomentumPredictor: 362.141 [ms]
[INFO] MatrixAssemblyPI: 77.495 [ms]
[INFO] MatrixAssemblyPII: 36.279 [ms]
[OGL LOG][Proc: 0]: global_index_init: 0.284 [ms]
[OGL LOG][Proc: 0]p_local_coeffs: call_update: 0 [ms]
[OGL LOG][Proc: 0]p_non_local_coeffs: call_update: 0 [ms]
[OGL LOG][Proc: 0]p: update_local_matrix_data: 11.372 [ms]
[OGL LOG][Proc: 0]p: update_non_local_matrix_data: 0.142 [ms]
[OGL LOG][Proc: 0]p_matrix: call_update: 2.802 [ms]
[OGL LOG][Proc: 0]p_rhs: call_update: 0.541 [ms]
[OGL LOG][Preconditioner.H:121] Generate preconditioner BJ MaxBlockSize 1
[OGL LOG][Proc: 0]p: init_precond: 0.351 [ms]
[OGL LOG][StoppingCriterion.H:372] Creating stopping criterion with minIter 135 frequency 5
[OGL LOG][Proc: 0]p: generate_solver: 0.001 [ms]
[OGL LOG][Proc: 0]p: solve: 356.189 [ms]
[OGL LOG][Proc: 0]p: copy_x_back: 0.847 [ms]
[OGL LOG][lduLduBase.H:339] 
Statistics:
	Time per iteration: 1447 [mu s]
	Time per residual norm calculation: 388.000000 [mu s]
	Time per iteration and DOF: 0.229423 [ns]
	Retrieve results bandwidth 2.462000 [GByte/s]
[OGL LOG][Proc: 0]p: solve_multi_gpu: 361.199 [ms]
BJhipGKOCG:  Solving for p, Initial residual = 0.05574594208932302, Final residual = 0.0005561208788859461, No Iterations 246
[INFO] SolveP: 375.275 [ms]
time step continuity errors : sum local = 0.005550547146699544, global = -0.000637729930351926, cumulative = -0.0008613057166323326
[INFO] postSolveP: 20.485 [ms]
smoothSolver:  Solving for nuTilda, Initial residual = 0.01752624171925951, Final residual = 0.001061696498119021, No Iterations 3
[INFO] TimeStep: 1541.417 [ms]
ExecutionTime = 95.20999999999999 s  ClockTime = 97 s

Time = 45

velocityDampingConstraint velocityDamping damped 0 (0%) of cells
[INFO] MatrixAssemblyU: 417.416 [ms]
smoothSolver:  Solving for Ux, Initial residual = 0.01188519710663845, Final residual = 0.001052396498360109, No Iterations 13
smoothSolver:  Solving for Uy, Initial residual = 0.07251521764672375, Final residual = 0.007250508163418929, No Iterations 13
smoothSolver:  Solving for Uz, Initial residual = 0.0692144630645363, Final residual = 0.006294860336749703, No Iterations 13
[INFO] MomentumPredictor: 366.993 [ms]
[INFO] MatrixAssemblyPI: 82.65300000000001 [ms]
[INFO] MatrixAssemblyPII: 36.012 [ms]
[OGL LOG][Proc: 0]: global_index_init: 0.04 [ms]
[OGL LOG][Proc: 0]p_local_coeffs: call_update: 0 [ms]
[OGL LOG][Proc: 0]p_non_local_coeffs: call_update: 0 [ms]
[OGL LOG][Proc: 0]p: update_local_matrix_data: 11.094 [ms]
[OGL LOG][Proc: 0]p: update_non_local_matrix_data: 0.127 [ms]
[OGL LOG][Proc: 0]p_matrix: call_update: 3.016 [ms]
[OGL LOG][Proc: 0]p_rhs: call_update: 3.544 [ms]
[OGL LOG][Preconditioner.H:121] Generate preconditioner BJ MaxBlockSize 1
[OGL LOG][Proc: 0]p: init_precond: 0.37 [ms]
[OGL LOG][StoppingCriterion.H:372] Creating stopping criterion with minIter 147 frequency 5
[OGL LOG][Proc: 0]p: generate_solver: 0.001 [ms]
[OGL LOG][Proc: 0]p: solve: 387.396 [ms]
[OGL LOG][Proc: 0]p: copy_x_back: 0.772 [ms]
[OGL LOG][lduLduBase.H:339] 
Statistics:
	Time per iteration: 1456 [mu s]
	Time per residual norm calculation: 453.000000 [mu s]
	Time per iteration and DOF: 0.230850 [ns]
	Retrieve results bandwidth 2.701000 [GByte/s]
[OGL LOG][Proc: 0]p: solve_multi_gpu: 395.555 [ms]
BJhipGKOCG:  Solving for p, Initial residual = 0.05515440406571787, Final residual = 0.0005479414204975065, No Iterations 266
[INFO] SolveP: 411.12 [ms]
time step continuity errors : sum local = 0.005409619344915764, global = -0.0008295869845056745, cumulative = -0.001690892701138007
[INFO] postSolveP: 18.387 [ms]
smoothSolver:  Solving for nuTilda, Initial residual = 0.01180209742354426, Final residual = 0.00105048529582006, No Iterations 3
[INFO] TimeStep: 1582.916 [ms]
ExecutionTime = 97.09999999999999 s  ClockTime = 99 s

Time = 46

velocityDampingConstraint velocityDamping damped 0 (0%) of cells
[INFO] MatrixAssemblyU: 417.623 [ms]
smoothSolver:  Solving for Ux, Initial residual = 0.01175633085484013, Final residual = 0.00105524341605229, No Iterations 13
smoothSolver:  Solving for Uy, Initial residual = 0.07233787614480271, Final residual = 0.006231011439799932, No Iterations 14
smoothSolver:  Solving for Uz, Initial residual = 0.06792896716930635, Final residual = 0.006330630740416068, No Iterations 13
[INFO] MomentumPredictor: 373.741 [ms]
[INFO] MatrixAssemblyPI: 78.00700000000001 [ms]
[INFO] MatrixAssemblyPII: 35.122 [ms]
[OGL LOG][Proc: 0]: global_index_init: 0.031 [ms]
[OGL LOG][Proc: 0]p_local_coeffs: call_update: 0 [ms]
[OGL LOG][Proc: 0]p_non_local_coeffs: call_update: 0 [ms]
[OGL LOG][Proc: 0]p: update_local_matrix_data: 10.974 [ms]
[OGL LOG][Proc: 0]p: update_non_local_matrix_data: 0.162 [ms]
[OGL LOG][Proc: 0]p_matrix: call_update: 3.307 [ms]
[OGL LOG][Proc: 0]p_rhs: call_update: 0.578 [ms]
[OGL LOG][Preconditioner.H:121] Generate preconditioner BJ MaxBlockSize 1
[OGL LOG][Proc: 0]p: init_precond: 0.301 [ms]
[OGL LOG][StoppingCriterion.H:372] Creating stopping criterion with minIter 159 frequency 5
[OGL LOG][Proc: 0]p: generate_solver: 0.011 [ms]
[OGL LOG][Proc: 0]p: solve: 824.0360000000001 [ms]
[OGL LOG][Proc: 0]p: copy_x_back: 0.844 [ms]
[OGL LOG][lduLduBase.H:339] 
Statistics:
	Time per iteration: 1394 [mu s]
	Time per residual norm calculation: 444.000000 [mu s]
	Time per iteration and DOF: 0.221019 [ns]
	Retrieve results bandwidth 2.470000 [GByte/s]
[OGL LOG][Proc: 0]p: solve_multi_gpu: 829.6080000000001 [ms]
BJhipGKOCG:  Solving for p, Initial residual = 0.05446892104697214, Final residual = 0.0005371200407305033, No Iterations 591
[INFO] SolveP: 842.833 [ms]
time step continuity errors : sum local = 0.005253921804908163, global = -0.0001695480382109762, cumulative = -0.001860440739348983
[INFO] postSolveP: 18.423 [ms]
smoothSolver:  Solving for nuTilda, Initial residual = 0.01664682688321856, Final residual = 0.001013246733848972, No Iterations 3
[INFO] TimeStep: 2013.417 [ms]
ExecutionTime = 99.42 s  ClockTime = 102 s

Time = 47

velocityDampingConstraint velocityDamping damped 0 (0%) of cells
[INFO] MatrixAssemblyU: 415.756 [ms]
smoothSolver:  Solving for Ux, Initial residual = 0.01167175850337106, Final residual = 0.001061185165334405, No Iterations 13
smoothSolver:  Solving for Uy, Initial residual = 0.07217151674197309, Final residual = 0.006219244616316671, No Iterations 14
smoothSolver:  Solving for Uz, Initial residual = 0.06680681802503438, Final residual = 0.006357720138986759, No Iterations 13
[INFO] MomentumPredictor: 373.296 [ms]
[INFO] MatrixAssemblyPI: 76.78400000000001 [ms]
[INFO] MatrixAssemblyPII: 36.435 [ms]
[OGL LOG][Proc: 0]: global_index_init: 0.053 [ms]
[OGL LOG][Proc: 0]p_local_coeffs: call_update: 0 [ms]
[OGL LOG][Proc: 0]p_non_local_coeffs: call_update: 0 [ms]
[OGL LOG][Proc: 0]p: update_local_matrix_data: 11.366 [ms]
[OGL LOG][Proc: 0]p: update_non_local_matrix_data: 0.089 [ms]
[OGL LOG][Proc: 0]p_matrix: call_update: 3.005 [ms]
[OGL LOG][Proc: 0]p_rhs: call_update: 1.792 [ms]
[OGL LOG][Preconditioner.H:121] Generate preconditioner BJ MaxBlockSize 1
[OGL LOG][Proc: 0]p: init_precond: 0.334 [ms]
[OGL LOG][StoppingCriterion.H:372] Creating stopping criterion with minIter 354 frequency 8
[OGL LOG][Proc: 0]p: generate_solver: 0.001 [ms]
[OGL LOG][Proc: 0]p: solve: 479.747 [ms]
[OGL LOG][Proc: 0]p: copy_x_back: 0.876 [ms]
[OGL LOG][lduLduBase.H:339] 
Statistics:
	Time per iteration: 1328 [mu s]
	Time per residual norm calculation: 395.000000 [mu s]
	Time per iteration and DOF: 0.210555 [ns]
	Retrieve results bandwidth 2.380000 [GByte/s]
[OGL LOG][Proc: 0]p: solve_multi_gpu: 486.245 [ms]
BJhipGKOCG:  Solving for p, Initial residual = 0.05514134252776951, Final residual = 0.000249174249205908, No Iterations 361
[INFO] SolveP: 499.749 [ms]
time step continuity errors : sum local = 0.002357628262561809, global = 0.0004152638793547525, cumulative = -0.001445176859994231
[INFO] postSolveP: 19.336 [ms]
smoothSolver:  Solving for nuTilda, Initial residual = 0.01129003155526427, Final residual = 0.001003700964609956, No Iterations 3
[INFO] TimeStep: 1668.665 [ms]
ExecutionTime = 101.39 s  ClockTime = 104 s

Time = 48

velocityDampingConstraint velocityDamping damped 0 (0%) of cells
[INFO] MatrixAssemblyU: 421.299 [ms]
smoothSolver:  Solving for Ux, Initial residual = 0.01159931807031576, Final residual = 0.001068669619237765, No Iterations 13
smoothSolver:  Solving for Uy, Initial residual = 0.07153250016396555, Final residual = 0.006198985663961706, No Iterations 14
smoothSolver:  Solving for Uz, Initial residual = 0.06544476997887086, Final residual = 0.006347105982552268, No Iterations 13
[INFO] MomentumPredictor: 371.156 [ms]
[INFO] MatrixAssemblyPI: 77.078 [ms]
[INFO] MatrixAssemblyPII: 35.875 [ms]
[OGL LOG][Proc: 0]: global_index_init: 0.044 [ms]
[OGL LOG][Proc: 0]p_local_coeffs: call_update: 0 [ms]
[OGL LOG][Proc: 0]p_non_local_coeffs: call_update: 0 [ms]
[OGL LOG][Proc: 0]p: update_local_matrix_data: 11.49 [ms]
[OGL LOG][Proc: 0]p: update_non_local_matrix_data: 0.078 [ms]
[OGL LOG][Proc: 0]p_matrix: call_update: 5.095 [ms]
[OGL LOG][Proc: 0]p_rhs: call_update: 0.234 [ms]
[OGL LOG][Preconditioner.H:121] Generate preconditioner BJ MaxBlockSize 1
[OGL LOG][Proc: 0]p: init_precond: 0.396 [ms]
[OGL LOG][StoppingCriterion.H:372] Creating stopping criterion with minIter 216 frequency 6
[OGL LOG][Proc: 0]p: generate_solver: 0.001 [ms]
[OGL LOG][Proc: 0]p: solve: 372.828 [ms]
[OGL LOG][Proc: 0]p: copy_x_back: 0.838 [ms]
[OGL LOG][lduLduBase.H:339] 
Statistics:
	Time per iteration: 1406 [mu s]
	Time per residual norm calculation: 9133.000000 [mu s]
	Time per iteration and DOF: 0.222922 [ns]
	Retrieve results bandwidth 2.488000 [GByte/s]
[OGL LOG][Proc: 0]p: solve_multi_gpu: 379.859 [ms]
BJhipGKOCG:  Solving for p, Initial residual = 0.05420618691512823, Final residual = 0.0005281666761905655, No Iterations 265
[INFO] SolveP: 395.029 [ms]
time step continuity errors : sum local = 0.004970734741315722, global = 0.0007796496303283345, cumulative = -0.0006655272296658961
[INFO] postSolveP: 18.336 [ms]
smoothSolver:  Solving for nuTilda, Initial residual = 0.01586755893576339, Final residual = 0.0009724905079150096, No Iterations 3
[INFO] TimeStep: 1567.867 [ms]
ExecutionTime = 103.28 s  ClockTime = 105 s

Time = 49

velocityDampingConstraint velocityDamping damped 0 (0%) of cells
[INFO] MatrixAssemblyU: 417.968 [ms]
smoothSolver:  Solving for Ux, Initial residual = 0.01148651449685843, Final residual = 0.001073299983825163, No Iterations 13
smoothSolver:  Solving for Uy, Initial residual = 0.07081306789706202, Final residual = 0.006177497003906661, No Iterations 14
smoothSolver:  Solving for Uz, Initial residual = 0.06448358871342058, Final residual = 0.006331004943413073, No Iterations 13
[INFO] MomentumPredictor: 373.89 [ms]
[INFO] MatrixAssemblyPI: 74.971 [ms]
[INFO] MatrixAssemblyPII: 33.334 [ms]
[OGL LOG][Proc: 0]: global_index_init: 0.017 [ms]
[OGL LOG][Proc: 0]p_local_coeffs: call_update: 0 [ms]
[OGL LOG][Proc: 0]p_non_local_coeffs: call_update: 0 [ms]
[OGL LOG][Proc: 0]p: update_local_matrix_data: 11.236 [ms]
[OGL LOG][Proc: 0]p: update_non_local_matrix_data: 0.095 [ms]
[OGL LOG][Proc: 0]p_matrix: call_update: 2.871 [ms]
[OGL LOG][Proc: 0]p_rhs: call_update: 3.663 [ms]
[OGL LOG][Preconditioner.H:121] Generate preconditioner BJ MaxBlockSize 1
[OGL LOG][Proc: 0]p: init_precond: 0.319 [ms]
[OGL LOG][StoppingCriterion.H:372] Creating stopping criterion with minIter 0 frequency 1
[OGL LOG][Proc: 0]p: generate_solver: 0.001 [ms]
[OGL LOG][Proc: 0]p: solve: 587.87 [ms]
[OGL LOG][Proc: 0]p: copy_x_back: 0.844 [ms]
[OGL LOG][lduLduBase.H:339] 
Statistics:
	Time per iteration: 1797 [mu s]
	Time per residual norm calculation: 414.000000 [mu s]
	Time per iteration and DOF: 0.284915 [ns]
	Retrieve results bandwidth 2.470000 [GByte/s]
[OGL LOG][Proc: 0]p: solve_multi_gpu: 596.069 [ms]
BJhipGKOCG:  Solving for p, Initial residual = 0.053601067900655, Final residual = 0.0005349322531041694, No Iterations 327
[INFO] SolveP: 609.794 [ms]
time step continuity errors : sum local = 0.005016705452251045, global = 0.0008183031701449228, cumulative = 0.0001527759404790268
[INFO] postSolveP: 18.777 [ms]
smoothSolver:  Solving for nuTilda, Initial residual = 0.01085894321694736, Final residual = 0.0009666564435623973, No Iterations 3
[INFO] TimeStep: 1786.382 [ms]
ExecutionTime = 105.37 s  ClockTime = 108 s

Time = 50

velocityDampingConstraint velocityDamping damped 0 (0%) of cells
[INFO] MatrixAssemblyU: 416.583 [ms]
smoothSolver:  Solving for Ux, Initial residual = 0.0114761817045218, Final residual = 0.001074952283161308, No Iterations 13
smoothSolver:  Solving for Uy, Initial residual = 0.06998686853044003, Final residual = 0.006125510247741479, No Iterations 14
smoothSolver:  Solving for Uz, Initial residual = 0.06381244648954543, Final residual = 0.006327991378101711, No Iterations 13
[INFO] MomentumPredictor: 383.61 [ms]
[INFO] MatrixAssemblyPI: 76.81999999999999 [ms]
[INFO] MatrixAssemblyPII: 36.229 [ms]
[OGL LOG][Proc: 0]: global_index_init: 0.038 [ms]
[OGL LOG][Proc: 0]p_local_coeffs: call_update: 0 [ms]
[OGL LOG][Proc: 0]p_non_local_coeffs: call_update: 0 [ms]
[OGL LOG][Proc: 0]p: update_local_matrix_data: 11.605 [ms]
[OGL LOG][Proc: 0]p: update_non_local_matrix_data: 0.092 [ms]
[OGL LOG][Proc: 0]p_matrix: call_update: 2.703 [ms]
[OGL LOG][Proc: 0]p_rhs: call_update: 2.374 [ms]
[OGL LOG][Preconditioner.H:121] Generate preconditioner BJ MaxBlockSize 1
[OGL LOG][Proc: 0]p: init_precond: 0.318 [ms]
[OGL LOG][StoppingCriterion.H:372] Creating stopping criterion with minIter 196 frequency 5
[OGL LOG][Proc: 0]p: generate_solver: 0.001 [ms]
[OGL LOG][Proc: 0]p: solve: 391.647 [ms]
[OGL LOG][Proc: 0]p: copy_x_back: 0.833 [ms]
[OGL LOG][lduLduBase.H:339] 
Statistics:
	Time per iteration: 1500 [mu s]
	Time per residual norm calculation: 462.000000 [mu s]
	Time per iteration and DOF: 0.237826 [ns]
	Retrieve results bandwidth 2.503000 [GByte/s]
[OGL LOG][Proc: 0]p: solve_multi_gpu: 398.371 [ms]
BJhipGKOCG:  Solving for p, Initial residual = 0.05312443068214872, Final residual = 0.0005227248501659959, No Iterations 261
[INFO] SolveP: 414.102 [ms]
time step continuity errors : sum local = 0.004899473961757688, global = 0.0007926823286724572, cumulative = 0.0009454582691514839
[INFO] postSolveP: 21.729 [ms]
smoothSolver:  Solving for nuTilda, Initial residual = 0.01518622095197146, Final residual = 0.0009410513615673826, No Iterations 3
[INFO] TimeStep: 1597.562 [ms]
ExecutionTime = 107.28 s  ClockTime = 109 s

End

Finalising parallel run
