/*---------------------------------------------------------------------------*\
| =========                 |                                                 |
| \\      /  F ield         | OpenFOAM: The Open Source CFD Toolbox           |
|  \\    /   O peration     | Version:  2212                                  |
|   \\  /    A nd           | Website:  www.openfoam.com                      |
|    \\/     M anipulation  |                                                 |
\*---------------------------------------------------------------------------*/
Build  : 5614a571f2-20230228 OPENFOAM=2212 patch=230110 version=v2212
Arch   : "LSB;label=32;scalar=64"
Exec   : icoFoam -parallel -case /home/greole/data/code/exasim-project/micro_benchmarks/LidDrivenCavity3D/workspace/f02113f3ccc60da823fe5d8ad46db8ef/case
Date   : Jul 03 2023
Time   : 09:08:17
Host   : guyot
PID    : 2728656
I/O    : uncollated
Case   : /home/greole/data/code/exasim-project/micro_benchmarks/LidDrivenCavity3D/workspace/f02113f3ccc60da823fe5d8ad46db8ef/case
nProcs : 32
Hosts  :
(
    (guyot 32)
)
Pstream initialized with:
    floatTransfer      : 0
    nProcsSimpleSum    : 0
    commsType          : nonBlocking
    polling iterations : 0
trapFpe: Floating point exception trapping enabled (FOAM_SIGFPE).
fileModificationChecking : Monitoring run-time modified files using timeStampMaster (fileModificationSkew 5, maxFileModificationPolls 20)
allowSystemOperations : Allowing user-supplied system call operations

// * * * * * * * * * * * * * * * * * * * * * * * * * * * * * * * * * * * * * //
Create time

--> FOAM Warning : 
    From void* Foam::dlLibraryTable::openLibrary(const Foam::fileName&, bool)
    in file db/dynamicLibrary/dlLibraryTable/dlLibraryTable.C at line 188
    Could not load "libpetscFoam.so"
libpetscFoam.so: cannot open shared object file: No such file or directory
Create mesh for time = 0


PISO: Operating solver in PISO mode

Reading transportProperties

Reading field p

Reading field U

Reading/calculating face flux field phi


Starting time loop

Time = 0.0005

Courant Number mean: 8.62851e-18 max: 8.67362e-15
[INFO] MatrixAssemblyU: 17.08 [ms]
DILUPBiCGStab:  Solving for Ux, Initial residual = 1, Final residual = 0.00283431, No Iterations 5
DILUPBiCGStab:  Solving for Uy:  solution singularity
DILUPBiCGStab:  Solving for Uz:  solution singularity
[INFO] MomentumPredictor: 49.282 [ms]
[INFO] MatrixAssemblyPI: 15.346 [ms]
[INFO] AdjustPhi: 0.839 [ms]
[INFO] ConstrainPressure: 0.007 [ms]
[INFO] MatrixAssemblyPII: 4.657 [ms]
GAMG:  Solving for p, Initial residual = 1, Final residual = 8.84664e-05, No Iterations 22
[INFO] SolveP: 161.08 [ms]
time step continuity errors : sum local = 1.9169e-08, global = 2.69744e-21, cumulative = 2.69744e-21
[INFO] ContinuityError: 0.99 [ms]
[INFO] CorrectBoundary: 0.085 [ms]
[INFO] PISOStep: 189.956 [ms]
[INFO] MatrixAssemblyPI: 14.812 [ms]
[INFO] AdjustPhi: 0.361 [ms]
[INFO] ConstrainPressure: 0.002 [ms]
[INFO] MatrixAssemblyPII: 4.739 [ms]
GAMG:  Solving for p, Initial residual = 0.73116, Final residual = 8.26601e-05, No Iterations 26
[INFO] SolveP: 168.85 [ms]
time step continuity errors : sum local = 2.36391e-08, global = -1.49389e-21, cumulative = 1.20355e-21
[INFO] ContinuityError: 1.128 [ms]
[INFO] CorrectBoundary: 0.067 [ms]
[INFO] PISOStep: 196.634 [ms]
[INFO] TimeStep: 454.5 [ms]
ExecutionTime = 0.62 s  ClockTime = 0 s

Time = 0.001

Courant Number mean: 0.0215183 max: 0.377124
[INFO] MatrixAssemblyU: 15.741 [ms]
DILUPBiCGStab:  Solving for Ux, Initial residual = 0.15031, Final residual = 0.0014087, No Iterations 5
DILUPBiCGStab:  Solving for Uy, Initial residual = 0.368269, Final residual = 0.0028708, No Iterations 5
DILUPBiCGStab:  Solving for Uz, Initial residual = 0.984465, Final residual = 0.00793905, No Iterations 5
[INFO] MomentumPredictor: 81.413 [ms]
[INFO] MatrixAssemblyPI: 15.953 [ms]
[INFO] AdjustPhi: 0.452 [ms]
[INFO] ConstrainPressure: 0.002 [ms]
[INFO] MatrixAssemblyPII: 4.661 [ms]
GAMG:  Solving for p, Initial residual = 0.693069, Final residual = 8.43377e-05, No Iterations 21
[INFO] SolveP: 138.918 [ms]
time step continuity errors : sum local = 2.70427e-08, global = -2.43522e-21, cumulative = -1.23167e-21
[INFO] ContinuityError: 0.988 [ms]
[INFO] CorrectBoundary: 0.079 [ms]
[INFO] PISOStep: 167.691 [ms]
[INFO] MatrixAssemblyPI: 13.405 [ms]
[INFO] AdjustPhi: 1.555 [ms]
[INFO] ConstrainPressure: 0.002 [ms]
[INFO] MatrixAssemblyPII: 4.595 [ms]
GAMG:  Solving for p, Initial residual = 0.622451, Final residual = 9.12443e-05, No Iterations 24
[INFO] SolveP: 157.906 [ms]
time step continuity errors : sum local = 2.9936e-08, global = -1.85123e-21, cumulative = -3.0829e-21
[INFO] ContinuityError: 0.813 [ms]
[INFO] CorrectBoundary: 0.114 [ms]
[INFO] PISOStep: 185.438 [ms]
[INFO] TimeStep: 452.177 [ms]
ExecutionTime = 1.07 s  ClockTime = 1 s

Time = 0.0015

Courant Number mean: 0.0324761 max: 0.441228
[INFO] MatrixAssemblyU: 16.041 [ms]
DILUPBiCGStab:  Solving for Ux, Initial residual = 0.0531254, Final residual = 0.000432349, No Iterations 5
DILUPBiCGStab:  Solving for Uy, Initial residual = 0.124795, Final residual = 0.000734787, No Iterations 5
DILUPBiCGStab:  Solving for Uz, Initial residual = 0.597935, Final residual = 0.00558584, No Iterations 5
[INFO] MomentumPredictor: 79.758 [ms]
[INFO] MatrixAssemblyPI: 15.862 [ms]
[INFO] AdjustPhi: 0.548 [ms]
[INFO] ConstrainPressure: 0.002 [ms]
[INFO] MatrixAssemblyPII: 4.732 [ms]
GAMG:  Solving for p, Initial residual = 0.63373, Final residual = 9.33132e-05, No Iterations 20
[INFO] SolveP: 131.619 [ms]
time step continuity errors : sum local = 2.15629e-08, global = 4.99617e-22, cumulative = -2.58329e-21
[INFO] ContinuityError: 1.061 [ms]
[INFO] CorrectBoundary: 0.124 [ms]
[INFO] PISOStep: 160.523 [ms]
[INFO] MatrixAssemblyPI: 14.719 [ms]
[INFO] AdjustPhi: 0.387 [ms]
[INFO] ConstrainPressure: 0.001 [ms]
[INFO] MatrixAssemblyPII: 4.781 [ms]
GAMG:  Solving for p, Initial residual = 0.581231, Final residual = 9.29626e-05, No Iterations 20
[INFO] SolveP: 132.212 [ms]
time step continuity errors : sum local = 2.09176e-08, global = -1.87108e-21, cumulative = -4.45437e-21
[INFO] ContinuityError: 0.998 [ms]
[INFO] CorrectBoundary: 0.091 [ms]
[INFO] PISOStep: 159.83 [ms]
[INFO] TimeStep: 418.018 [ms]
ExecutionTime = 1.48 s  ClockTime = 1 s

Time = 0.002

Courant Number mean: 0.0388755 max: 0.452935
[INFO] MatrixAssemblyU: 16.253 [ms]
DILUPBiCGStab:  Solving for Ux, Initial residual = 0.0319205, Final residual = 0.000229, No Iterations 5
DILUPBiCGStab:  Solving for Uy, Initial residual = 0.0814083, Final residual = 0.000474758, No Iterations 5
DILUPBiCGStab:  Solving for Uz, Initial residual = 0.314308, Final residual = 0.00242892, No Iterations 5
[INFO] MomentumPredictor: 79.992 [ms]
[INFO] MatrixAssemblyPI: 16.062 [ms]
[INFO] AdjustPhi: 0.242 [ms]
[INFO] ConstrainPressure: 0.002 [ms]
[INFO] MatrixAssemblyPII: 4.694 [ms]
GAMG:  Solving for p, Initial residual = 0.41492, Final residual = 9.78216e-05, No Iterations 18
[INFO] SolveP: 119.535 [ms]
time step continuity errors : sum local = 1.93715e-08, global = 5.29396e-23, cumulative = -4.40143e-21
[INFO] ContinuityError: 1.223 [ms]
[INFO] CorrectBoundary: 0.171 [ms]
[INFO] PISOStep: 148.255 [ms]
[INFO] MatrixAssemblyPI: 14.586 [ms]
[INFO] AdjustPhi: 0.52 [ms]
[INFO] ConstrainPressure: 0.001 [ms]
[INFO] MatrixAssemblyPII: 4.663 [ms]
GAMG:  Solving for p, Initial residual = 0.352935, Final residual = 8.7455e-05, No Iterations 18
[INFO] SolveP: 119.265 [ms]
time step continuity errors : sum local = 1.74903e-08, global = 5.39984e-21, cumulative = 9.98407e-22
[INFO] ContinuityError: 1.204 [ms]
[INFO] CorrectBoundary: 0.08 [ms]
[INFO] PISOStep: 146.955 [ms]
[INFO] TimeStep: 393.319 [ms]
ExecutionTime = 1.87 s  ClockTime = 2 s

Time = 0.0025

Courant Number mean: 0.0439279 max: 0.459606
[INFO] MatrixAssemblyU: 16.418 [ms]
DILUPBiCGStab:  Solving for Ux, Initial residual = 0.023522, Final residual = 0.000146217, No Iterations 5
DILUPBiCGStab:  Solving for Uy, Initial residual = 0.0515472, Final residual = 0.000276616, No Iterations 5
DILUPBiCGStab:  Solving for Uz, Initial residual = 0.128436, Final residual = 0.000862305, No Iterations 5
[INFO] MomentumPredictor: 79.477 [ms]
[INFO] MatrixAssemblyPI: 16.053 [ms]
[INFO] AdjustPhi: 0.281 [ms]
[INFO] ConstrainPressure: 0.002 [ms]
[INFO] MatrixAssemblyPII: 4.682 [ms]
GAMG:  Solving for p, Initial residual = 0.316619, Final residual = 9.65961e-05, No Iterations 19
[INFO] SolveP: 125.223 [ms]
time step continuity errors : sum local = 1.57051e-08, global = -7.67789e-21, cumulative = -6.67948e-21
[INFO] ContinuityError: 1.13 [ms]
[INFO] CorrectBoundary: 0.063 [ms]
[INFO] PISOStep: 153.929 [ms]
[INFO] MatrixAssemblyPI: 14.808 [ms]
[INFO] AdjustPhi: 0.426 [ms]
[INFO] ConstrainPressure: 0.001 [ms]
[INFO] MatrixAssemblyPII: 4.544 [ms]
GAMG:  Solving for p, Initial residual = 0.27108, Final residual = 9.21474e-05, No Iterations 18
[INFO] SolveP: 119.137 [ms]
time step continuity errors : sum local = 1.49302e-08, global = 4.4494e-21, cumulative = -2.23008e-21
[INFO] ContinuityError: 1.025 [ms]
[INFO] CorrectBoundary: 0.083 [ms]
[INFO] PISOStep: 146.87 [ms]
[INFO] TimeStep: 398.543 [ms]
ExecutionTime = 2.27 s  ClockTime = 2 s

Time = 0.003

Courant Number mean: 0.0479688 max: 0.463849
[INFO] MatrixAssemblyU: 16.691 [ms]
DILUPBiCGStab:  Solving for Ux, Initial residual = 0.0179098, Final residual = 0.000103914, No Iterations 5
DILUPBiCGStab:  Solving for Uy, Initial residual = 0.0401365, Final residual = 0.000165323, No Iterations 5
DILUPBiCGStab:  Solving for Uz, Initial residual = 0.108923, Final residual = 0.000732041, No Iterations 5
[INFO] MomentumPredictor: 79.353 [ms]
[INFO] MatrixAssemblyPI: 15.873 [ms]
[INFO] AdjustPhi: 0.46 [ms]
[INFO] ConstrainPressure: 0.002 [ms]
[INFO] MatrixAssemblyPII: 4.789 [ms]
GAMG:  Solving for p, Initial residual = 0.198788, Final residual = 9.52726e-05, No Iterations 18
[INFO] SolveP: 119.571 [ms]
time step continuity errors : sum local = 1.49558e-08, global = -8.30489e-21, cumulative = -1.0535e-20
[INFO] ContinuityError: 1.181 [ms]
[INFO] CorrectBoundary: 0.11 [ms]
[INFO] PISOStep: 148.485 [ms]
[INFO] MatrixAssemblyPI: 14.663 [ms]
[INFO] AdjustPhi: 0.471 [ms]
[INFO] ConstrainPressure: 0.001 [ms]
[INFO] MatrixAssemblyPII: 4.644 [ms]
GAMG:  Solving for p, Initial residual = 0.16549, Final residual = 8.61563e-05, No Iterations 17
[INFO] SolveP: 112.418 [ms]
time step continuity errors : sum local = 1.35077e-08, global = 2.47327e-22, cumulative = -1.02876e-20
[INFO] ContinuityError: 1.055 [ms]
[INFO] CorrectBoundary: 0.135 [ms]
[INFO] PISOStep: 139.96 [ms]
[INFO] TimeStep: 386.376 [ms]
ExecutionTime = 2.65 s  ClockTime = 2 s

Time = 0.0035

Courant Number mean: 0.051379 max: 0.466725
[INFO] MatrixAssemblyU: 17.15 [ms]
DILUPBiCGStab:  Solving for Ux, Initial residual = 0.0146495, Final residual = 7.21975e-05, No Iterations 5
DILUPBiCGStab:  Solving for Uy, Initial residual = 0.0317705, Final residual = 0.000141641, No Iterations 5
DILUPBiCGStab:  Solving for Uz, Initial residual = 0.0760963, Final residual = 0.000446754, No Iterations 5
[INFO] MomentumPredictor: 79.81 [ms]
[INFO] MatrixAssemblyPI: 16.114 [ms]
[INFO] AdjustPhi: 0.247 [ms]
[INFO] ConstrainPressure: 0.002 [ms]
[INFO] MatrixAssemblyPII: 4.864 [ms]
GAMG:  Solving for p, Initial residual = 0.140765, Final residual = 9.17103e-05, No Iterations 19
[INFO] SolveP: 125.373 [ms]
time step continuity errors : sum local = 1.36669e-08, global = 1.46576e-21, cumulative = -8.82188e-21
[INFO] ContinuityError: 0.895 [ms]
[INFO] CorrectBoundary: 0.074 [ms]
[INFO] PISOStep: 154.32 [ms]
[INFO] MatrixAssemblyPI: 14.713 [ms]
[INFO] AdjustPhi: 0.307 [ms]
[INFO] ConstrainPressure: 0.002 [ms]
[INFO] MatrixAssemblyPII: 4.856 [ms]
GAMG:  Solving for p, Initial residual = 0.117898, Final residual = 8.72729e-05, No Iterations 19
[INFO] SolveP: 128.294 [ms]
time step continuity errors : sum local = 1.30036e-08, global = 5.79688e-21, cumulative = -3.025e-21
[INFO] ContinuityError: 0.913 [ms]
[INFO] CorrectBoundary: 0.089 [ms]
[INFO] PISOStep: 155.874 [ms]
[INFO] TimeStep: 409.098 [ms]
ExecutionTime = 3.06 s  ClockTime = 3 s

Time = 0.004

Courant Number mean: 0.0543192 max: 0.468936
[INFO] MatrixAssemblyU: 15.942 [ms]
DILUPBiCGStab:  Solving for Ux, Initial residual = 0.0122995, Final residual = 5.46262e-05, No Iterations 5
DILUPBiCGStab:  Solving for Uy, Initial residual = 0.0265115, Final residual = 8.82013e-05, No Iterations 5
DILUPBiCGStab:  Solving for Uz, Initial residual = 0.0665551, Final residual = 0.000309461, No Iterations 5
[INFO] MomentumPredictor: 80.93 [ms]
[INFO] MatrixAssemblyPI: 15.971 [ms]
[INFO] AdjustPhi: 0.493 [ms]
[INFO] ConstrainPressure: 0.002 [ms]
[INFO] MatrixAssemblyPII: 4.753 [ms]
GAMG:  Solving for p, Initial residual = 0.0925042, Final residual = 8.24775e-05, No Iterations 17
[INFO] SolveP: 112.794 [ms]
time step continuity errors : sum local = 1.20149e-08, global = -6.11948e-21, cumulative = -9.14448e-21
[INFO] ContinuityError: 1.019 [ms]
[INFO] CorrectBoundary: 0.095 [ms]
[INFO] PISOStep: 141.737 [ms]
[INFO] MatrixAssemblyPI: 14.745 [ms]
[INFO] AdjustPhi: 0.303 [ms]
[INFO] ConstrainPressure: 0.002 [ms]
[INFO] MatrixAssemblyPII: 4.66 [ms]
GAMG:  Solving for p, Initial residual = 0.0768003, Final residual = 8.15091e-05, No Iterations 17
[INFO] SolveP: 112.829 [ms]
time step continuity errors : sum local = 1.19418e-08, global = -9.35541e-21, cumulative = -1.84999e-20
[INFO] ContinuityError: 0.952 [ms]
[INFO] CorrectBoundary: 0.094 [ms]
[INFO] PISOStep: 140.38 [ms]
[INFO] TimeStep: 380.969 [ms]
ExecutionTime = 3.45 s  ClockTime = 3 s

Time = 0.0045

Courant Number mean: 0.0568976 max: 0.47064
[INFO] MatrixAssemblyU: 15.074 [ms]
DILUPBiCGStab:  Solving for Ux, Initial residual = 0.010542, Final residual = 4.2624e-05, No Iterations 5
DILUPBiCGStab:  Solving for Uy, Initial residual = 0.022675, Final residual = 7.57301e-05, No Iterations 5
DILUPBiCGStab:  Solving for Uz, Initial residual = 0.0549385, Final residual = 0.000234741, No Iterations 5
[INFO] MomentumPredictor: 81.514 [ms]
[INFO] MatrixAssemblyPI: 15.743 [ms]
[INFO] AdjustPhi: 0.423 [ms]
[INFO] ConstrainPressure: 0.002 [ms]
[INFO] MatrixAssemblyPII: 4.728 [ms]
GAMG:  Solving for p, Initial residual = 0.0681183, Final residual = 9.34869e-05, No Iterations 18
[INFO] SolveP: 119.077 [ms]
time step continuity errors : sum local = 1.3459e-08, global = 3.57342e-21, cumulative = -1.49265e-20
[INFO] ContinuityError: 0.892 [ms]
[INFO] CorrectBoundary: 0.097 [ms]
[INFO] PISOStep: 147.709 [ms]
[INFO] MatrixAssemblyPI: 14.762 [ms]
[INFO] AdjustPhi: 0.282 [ms]
[INFO] ConstrainPressure: 0.002 [ms]
[INFO] MatrixAssemblyPII: 4.725 [ms]
GAMG:  Solving for p, Initial residual = 0.05702, Final residual = 8.86703e-05, No Iterations 18
[INFO] SolveP: 119.76 [ms]
time step continuity errors : sum local = 1.27519e-08, global = 1.20603e-21, cumulative = -1.37204e-20
[INFO] ContinuityError: 0.941 [ms]
[INFO] CorrectBoundary: 0.095 [ms]
[INFO] PISOStep: 147.32 [ms]
[INFO] TimeStep: 393.544 [ms]
ExecutionTime = 3.84 s  ClockTime = 4 s

Time = 0.005

Courant Number mean: 0.0591941 max: 0.472035
[INFO] MatrixAssemblyU: 16.221 [ms]
DILUPBiCGStab:  Solving for Ux, Initial residual = 0.00923116, Final residual = 3.56562e-05, No Iterations 5
DILUPBiCGStab:  Solving for Uy, Initial residual = 0.0197242, Final residual = 5.86976e-05, No Iterations 5
DILUPBiCGStab:  Solving for Uz, Initial residual = 0.0498951, Final residual = 0.000196144, No Iterations 5
[INFO] MomentumPredictor: 80.727 [ms]
[INFO] MatrixAssemblyPI: 15.809 [ms]
[INFO] AdjustPhi: 0.432 [ms]
[INFO] ConstrainPressure: 0.002 [ms]
[INFO] MatrixAssemblyPII: 4.678 [ms]
GAMG:  Solving for p, Initial residual = 0.0467577, Final residual = 9.81211e-05, No Iterations 18
[INFO] SolveP: 121.214 [ms]
time step continuity errors : sum local = 1.39647e-08, global = 3.14411e-21, cumulative = -1.05763e-20
[INFO] ContinuityError: 0.928 [ms]
[INFO] CorrectBoundary: 0.087 [ms]
[INFO] PISOStep: 149.893 [ms]
[INFO] MatrixAssemblyPI: 14.716 [ms]
[INFO] AdjustPhi: 0.349 [ms]
[INFO] ConstrainPressure: 0.001 [ms]
[INFO] MatrixAssemblyPII: 4.708 [ms]
GAMG:  Solving for p, Initial residual = 0.0397012, Final residual = 8.51032e-05, No Iterations 17
[INFO] SolveP: 113.093 [ms]
time step continuity errors : sum local = 1.21064e-08, global = 1.27882e-21, cumulative = -9.29751e-21
[INFO] ContinuityError: 1.097 [ms]
[INFO] CorrectBoundary: 0.107 [ms]
[INFO] PISOStep: 140.605 [ms]
[INFO] TimeStep: 389.416 [ms]
ExecutionTime = 4.22 s  ClockTime = 4 s

Time = 0.0055

Courant Number mean: 0.061255 max: 0.473186
[INFO] MatrixAssemblyU: 16.531 [ms]
DILUPBiCGStab:  Solving for Ux, Initial residual = 0.00814662, Final residual = 2.9832e-05, No Iterations 5
DILUPBiCGStab:  Solving for Uy, Initial residual = 0.0174479, Final residual = 5.23521e-05, No Iterations 5
DILUPBiCGStab:  Solving for Uz, Initial residual = 0.0452996, Final residual = 0.000175042, No Iterations 5
[INFO] MomentumPredictor: 79.48 [ms]
[INFO] MatrixAssemblyPI: 15.617 [ms]
[INFO] AdjustPhi: 0.638 [ms]
[INFO] ConstrainPressure: 0.002 [ms]
[INFO] MatrixAssemblyPII: 4.838 [ms]
GAMG:  Solving for p, Initial residual = 0.0371276, Final residual = 8.00576e-05, No Iterations 18
[INFO] SolveP: 119.917 [ms]
time step continuity errors : sum local = 1.13235e-08, global = 2.67676e-21, cumulative = -6.62075e-21
[INFO] ContinuityError: 1.12 [ms]
[INFO] CorrectBoundary: 0.063 [ms]
[INFO] PISOStep: 150.804 [ms]
[INFO] MatrixAssemblyPI: 13.303 [ms]
[INFO] AdjustPhi: 0.248 [ms]
[INFO] ConstrainPressure: 0.002 [ms]
[INFO] MatrixAssemblyPII: 4.693 [ms]
GAMG:  Solving for p, Initial residual = 0.0317826, Final residual = 9.77723e-05, No Iterations 17
[INFO] SolveP: 113.871 [ms]
time step continuity errors : sum local = 1.39114e-08, global = -4.58672e-21, cumulative = -1.12075e-20
[INFO] ContinuityError: 0.789 [ms]
[INFO] CorrectBoundary: 0.078 [ms]
[INFO] PISOStep: 139.82 [ms]
[INFO] TimeStep: 388.56 [ms]
ExecutionTime = 4.61 s  ClockTime = 4 s

Time = 0.006

Courant Number mean: 0.0631276 max: 0.474166
[INFO] MatrixAssemblyU: 17.132 [ms]
DILUPBiCGStab:  Solving for Ux, Initial residual = 0.00729596, Final residual = 2.60982e-05, No Iterations 5
DILUPBiCGStab:  Solving for Uy, Initial residual = 0.0155732, Final residual = 4.55678e-05, No Iterations 5
DILUPBiCGStab:  Solving for Uz, Initial residual = 0.0401719, Final residual = 0.000150704, No Iterations 5
[INFO] MomentumPredictor: 78.353 [ms]
[INFO] MatrixAssemblyPI: 15.878 [ms]
[INFO] AdjustPhi: 0.444 [ms]
[INFO] ConstrainPressure: 0.002 [ms]
[INFO] MatrixAssemblyPII: 4.624 [ms]
GAMG:  Solving for p, Initial residual = 0.0275001, Final residual = 9.47112e-05, No Iterations 18
[INFO] SolveP: 119.504 [ms]
time step continuity errors : sum local = 1.33605e-08, global = 7.51907e-22, cumulative = -1.04556e-20
[INFO] ContinuityError: 1.103 [ms]
[INFO] CorrectBoundary: 0.261 [ms]
[INFO] PISOStep: 148.267 [ms]
[INFO] MatrixAssemblyPI: 14.508 [ms]
[INFO] AdjustPhi: 0.737 [ms]
[INFO] ConstrainPressure: 0.002 [ms]
[INFO] MatrixAssemblyPII: 4.773 [ms]
GAMG:  Solving for p, Initial residual = 0.0241625, Final residual = 9.76619e-05, No Iterations 17
[INFO] SolveP: 119.896 [ms]
time step continuity errors : sum local = 1.38419e-08, global = -3.6884e-21, cumulative = -1.4144e-20
[INFO] ContinuityError: 0.851 [ms]
[INFO] CorrectBoundary: 0.097 [ms]
[INFO] PISOStep: 147.617 [ms]
[INFO] TimeStep: 393.289 [ms]
ExecutionTime = 5 s  ClockTime = 5 s

Time = 0.0065

Courant Number mean: 0.0648324 max: 0.475002
[INFO] MatrixAssemblyU: 16.374 [ms]
DILUPBiCGStab:  Solving for Ux, Initial residual = 0.00656279, Final residual = 2.28424e-05, No Iterations 5
DILUPBiCGStab:  Solving for Uy, Initial residual = 0.0140503, Final residual = 4.09489e-05, No Iterations 5
DILUPBiCGStab:  Solving for Uz, Initial residual = 0.0374705, Final residual = 0.000140548, No Iterations 5
[INFO] MomentumPredictor: 79.678 [ms]
[INFO] MatrixAssemblyPI: 15.988 [ms]
[INFO] AdjustPhi: 0.438 [ms]
[INFO] ConstrainPressure: 0.002 [ms]
[INFO] MatrixAssemblyPII: 4.739 [ms]
GAMG:  Solving for p, Initial residual = 0.0233163, Final residual = 9.22319e-05, No Iterations 18
[INFO] SolveP: 119.58 [ms]
time step continuity errors : sum local = 1.30104e-08, global = 1.13158e-21, cumulative = -1.30124e-20
[INFO] ContinuityError: 0.84 [ms]
[INFO] CorrectBoundary: 0.133 [ms]
[INFO] PISOStep: 148.466 [ms]
[INFO] MatrixAssemblyPI: 14.782 [ms]
[INFO] AdjustPhi: 0.419 [ms]
[INFO] ConstrainPressure: 0.001 [ms]
[INFO] MatrixAssemblyPII: 4.759 [ms]
GAMG:  Solving for p, Initial residual = 0.0206878, Final residual = 8.71975e-05, No Iterations 17
[INFO] SolveP: 112.814 [ms]
time step continuity errors : sum local = 1.2344e-08, global = -8.31192e-21, cumulative = -2.13243e-20
[INFO] ContinuityError: 0.84 [ms]
[INFO] CorrectBoundary: 0.109 [ms]
[INFO] PISOStep: 140.345 [ms]
[INFO] TimeStep: 386.834 [ms]
ExecutionTime = 5.38 s  ClockTime = 5 s

Time = 0.007

Courant Number mean: 0.0664008 max: 0.475734
[INFO] MatrixAssemblyU: 16.727 [ms]
DILUPBiCGStab:  Solving for Ux, Initial residual = 0.00596611, Final residual = 2.05307e-05, No Iterations 5
DILUPBiCGStab:  Solving for Uy, Initial residual = 0.0127533, Final residual = 3.68919e-05, No Iterations 5
DILUPBiCGStab:  Solving for Uz, Initial residual = 0.0339303, Final residual = 0.000126626, No Iterations 5
[INFO] MomentumPredictor: 78.444 [ms]
[INFO] MatrixAssemblyPI: 14.882 [ms]
[INFO] AdjustPhi: 1.267 [ms]
[INFO] ConstrainPressure: 0.002 [ms]
[INFO] MatrixAssemblyPII: 4.662 [ms]
GAMG:  Solving for p, Initial residual = 0.0189188, Final residual = 9.34753e-05, No Iterations 17
[INFO] SolveP: 112.719 [ms]
time step continuity errors : sum local = 1.32179e-08, global = 3.51634e-21, cumulative = -1.7808e-20
[INFO] ContinuityError: 1.004 [ms]
[INFO] CorrectBoundary: 0.068 [ms]
[INFO] PISOStep: 141.396 [ms]
[INFO] MatrixAssemblyPI: 14.613 [ms]
[INFO] AdjustPhi: 0.376 [ms]
[INFO] ConstrainPressure: 0.002 [ms]
[INFO] MatrixAssemblyPII: 4.805 [ms]
GAMG:  Solving for p, Initial residual = 0.0171855, Final residual = 8.5955e-05, No Iterations 17
[INFO] SolveP: 112.66 [ms]
time step continuity errors : sum local = 1.2159e-08, global = -2.7785e-21, cumulative = -2.05865e-20
[INFO] ContinuityError: 0.843 [ms]
[INFO] CorrectBoundary: 0.092 [ms]
[INFO] PISOStep: 140.235 [ms]
[INFO] TimeStep: 378.755 [ms]
ExecutionTime = 5.76 s  ClockTime = 6 s

Time = 0.0075

Courant Number mean: 0.0678484 max: 0.476374
[INFO] MatrixAssemblyU: 16.239 [ms]
DILUPBiCGStab:  Solving for Ux, Initial residual = 0.00543863, Final residual = 1.8501e-05, No Iterations 5
DILUPBiCGStab:  Solving for Uy, Initial residual = 0.0116614, Final residual = 3.35335e-05, No Iterations 5
DILUPBiCGStab:  Solving for Uz, Initial residual = 0.031054, Final residual = 0.000114912, No Iterations 5
[INFO] MomentumPredictor: 79.676 [ms]
[INFO] MatrixAssemblyPI: 15.236 [ms]
[INFO] AdjustPhi: 0.994 [ms]
[INFO] ConstrainPressure: 0.002 [ms]
[INFO] MatrixAssemblyPII: 4.817 [ms]
GAMG:  Solving for p, Initial residual = 0.0166441, Final residual = 8.93111e-05, No Iterations 17
[INFO] SolveP: 112.814 [ms]
time step continuity errors : sum local = 1.26119e-08, global = -4.06394e-21, cumulative = -2.46504e-20
[INFO] ContinuityError: 0.882 [ms]
[INFO] CorrectBoundary: 0.066 [ms]
[INFO] PISOStep: 141.593 [ms]
[INFO] MatrixAssemblyPI: 14.576 [ms]
[INFO] AdjustPhi: 0.384 [ms]
[INFO] ConstrainPressure: 0.002 [ms]
[INFO] MatrixAssemblyPII: 4.785 [ms]
GAMG:  Solving for p, Initial residual = 0.0152247, Final residual = 9.03481e-05, No Iterations 18
[INFO] SolveP: 119.324 [ms]
time step continuity errors : sum local = 1.27307e-08, global = 4.63221e-22, cumulative = -2.41872e-20
[INFO] ContinuityError: 1.123 [ms]
[INFO] CorrectBoundary: 0.095 [ms]
[INFO] PISOStep: 146.798 [ms]
[INFO] TimeStep: 386.255 [ms]
ExecutionTime = 6.14 s  ClockTime = 6 s

Time = 0.008

Courant Number mean: 0.0691861 max: 0.476944
[INFO] MatrixAssemblyU: 16.156 [ms]
DILUPBiCGStab:  Solving for Ux, Initial residual = 0.00499608, Final residual = 1.69116e-05, No Iterations 5
DILUPBiCGStab:  Solving for Uy, Initial residual = 0.0107096, Final residual = 3.06871e-05, No Iterations 5
DILUPBiCGStab:  Solving for Uz, Initial residual = 0.0291616, Final residual = 0.000108429, No Iterations 5
[INFO] MomentumPredictor: 79.86 [ms]
[INFO] MatrixAssemblyPI: 15.781 [ms]
[INFO] AdjustPhi: 0.524 [ms]
[INFO] ConstrainPressure: 0.002 [ms]
[INFO] MatrixAssemblyPII: 4.785 [ms]
GAMG:  Solving for p, Initial residual = 0.0148734, Final residual = 7.96658e-05, No Iterations 19
[INFO] SolveP: 125.218 [ms]
time step continuity errors : sum local = 1.12089e-08, global = -1.51151e-20, cumulative = -3.93022e-20
[INFO] ContinuityError: 1.078 [ms]
[INFO] CorrectBoundary: 0.118 [ms]
[INFO] PISOStep: 153.853 [ms]
[INFO] MatrixAssemblyPI: 14.879 [ms]
[INFO] AdjustPhi: 0.392 [ms]
[INFO] ConstrainPressure: 0.002 [ms]
[INFO] MatrixAssemblyPII: 4.807 [ms]
GAMG:  Solving for p, Initial residual = 0.0138128, Final residual = 9.55375e-05, No Iterations 18
[INFO] SolveP: 118.907 [ms]
time step continuity errors : sum local = 1.34949e-08, global = -6.96817e-21, cumulative = -4.62704e-20
[INFO] ContinuityError: 1.056 [ms]
[INFO] CorrectBoundary: 0.108 [ms]
[INFO] PISOStep: 146.511 [ms]
[INFO] TimeStep: 398.284 [ms]
ExecutionTime = 6.54 s  ClockTime = 6 s

Time = 0.0085

Courant Number mean: 0.0704321 max: 0.477454
[INFO] MatrixAssemblyU: 16.369 [ms]
DILUPBiCGStab:  Solving for Ux, Initial residual = 0.00459926, Final residual = 1.55016e-05, No Iterations 5
DILUPBiCGStab:  Solving for Uy, Initial residual = 0.00988721, Final residual = 2.81956e-05, No Iterations 5
DILUPBiCGStab:  Solving for Uz, Initial residual = 0.0274489, Final residual = 0.000102916, No Iterations 5
[INFO] MomentumPredictor: 80.039 [ms]
[INFO] MatrixAssemblyPI: 15.783 [ms]
[INFO] AdjustPhi: 0.419 [ms]
[INFO] ConstrainPressure: 0.002 [ms]
[INFO] MatrixAssemblyPII: 4.769 [ms]
GAMG:  Solving for p, Initial residual = 0.0135429, Final residual = 8.45794e-05, No Iterations 18
[INFO] SolveP: 119.774 [ms]
time step continuity errors : sum local = 1.1898e-08, global = -9.06094e-21, cumulative = -5.53314e-20
[INFO] ContinuityError: 0.841 [ms]
[INFO] CorrectBoundary: 0.081 [ms]
[INFO] PISOStep: 148.392 [ms]
[INFO] MatrixAssemblyPI: 14.154 [ms]
[INFO] AdjustPhi: 0.949 [ms]
[INFO] ConstrainPressure: 0.002 [ms]
[INFO] MatrixAssemblyPII: 4.787 [ms]
GAMG:  Solving for p, Initial residual = 0.0126211, Final residual = 9.70265e-05, No Iterations 14
[INFO] SolveP: 93.975 [ms]
time step continuity errors : sum local = 1.36474e-08, global = -5.99954e-21, cumulative = -6.13309e-20
[INFO] ContinuityError: 0.891 [ms]
[INFO] CorrectBoundary: 0.209 [ms]
[INFO] PISOStep: 121.499 [ms]
[INFO] TimeStep: 368.189 [ms]
ExecutionTime = 6.9 s  ClockTime = 7 s

Time = 0.009

Courant Number mean: 0.0715957 max: 0.477912
[INFO] MatrixAssemblyU: 15.681 [ms]
DILUPBiCGStab:  Solving for Ux, Initial residual = 0.00425935, Final residual = 1.43159e-05, No Iterations 5
DILUPBiCGStab:  Solving for Uy, Initial residual = 0.0091587, Final residual = 2.60588e-05, No Iterations 5
DILUPBiCGStab:  Solving for Uz, Initial residual = 0.0260728, Final residual = 9.84764e-05, No Iterations 5
[INFO] MomentumPredictor: 80.258 [ms]
[INFO] MatrixAssemblyPI: 15.62 [ms]
[INFO] AdjustPhi: 0.661 [ms]
[INFO] ConstrainPressure: 0.002 [ms]
[INFO] MatrixAssemblyPII: 4.805 [ms]
GAMG:  Solving for p, Initial residual = 0.0128423, Final residual = 8.26288e-05, No Iterations 19
[INFO] SolveP: 126.083 [ms]
time step continuity errors : sum local = 1.16626e-08, global = -4.88946e-21, cumulative = -6.62204e-20
[INFO] ContinuityError: 0.889 [ms]
[INFO] CorrectBoundary: 0.066 [ms]
[INFO] PISOStep: 154.943 [ms]
[INFO] MatrixAssemblyPI: 14.507 [ms]
[INFO] AdjustPhi: 0.375 [ms]
[INFO] ConstrainPressure: 0.002 [ms]
[INFO] MatrixAssemblyPII: 4.785 [ms]
GAMG:  Solving for p, Initial residual = 0.0120468, Final residual = 8.97071e-05, No Iterations 18
[INFO] SolveP: 119.653 [ms]
time step continuity errors : sum local = 1.26374e-08, global = -5.59174e-22, cumulative = -6.67795e-20
[INFO] ContinuityError: 0.821 [ms]
[INFO] CorrectBoundary: 0.072 [ms]
[INFO] PISOStep: 146.934 [ms]
[INFO] TimeStep: 399.766 [ms]
ExecutionTime = 7.3 s  ClockTime = 7 s

Time = 0.0095

Courant Number mean: 0.0726829 max: 0.478327
[INFO] MatrixAssemblyU: 15.448 [ms]
DILUPBiCGStab:  Solving for Ux, Initial residual = 0.00395002, Final residual = 1.32675e-05, No Iterations 5
DILUPBiCGStab:  Solving for Uy, Initial residual = 0.00851821, Final residual = 2.41556e-05, No Iterations 5
DILUPBiCGStab:  Solving for Uz, Initial residual = 0.0244343, Final residual = 9.30408e-05, No Iterations 5
[INFO] MomentumPredictor: 80.677 [ms]
[INFO] MatrixAssemblyPI: 15.685 [ms]
[INFO] AdjustPhi: 0.602 [ms]
[INFO] ConstrainPressure: 0.002 [ms]
[INFO] MatrixAssemblyPII: 4.804 [ms]
GAMG:  Solving for p, Initial residual = 0.0117627, Final residual = 8.11762e-05, No Iterations 15
[INFO] SolveP: 101.596 [ms]
time step continuity errors : sum local = 1.14708e-08, global = -4.82081e-21, cumulative = -7.16003e-20
[INFO] ContinuityError: 0.78 [ms]
[INFO] CorrectBoundary: 0.09 [ms]
[INFO] PISOStep: 130.288 [ms]
[INFO] MatrixAssemblyPI: 14.37 [ms]
[INFO] AdjustPhi: 0.671 [ms]
[INFO] ConstrainPressure: 0.002 [ms]
[INFO] MatrixAssemblyPII: 4.651 [ms]
GAMG:  Solving for p, Initial residual = 0.0110731, Final residual = 8.23209e-05, No Iterations 18
[INFO] SolveP: 119.693 [ms]
time step continuity errors : sum local = 1.15939e-08, global = -6.72332e-21, cumulative = -7.83237e-20
[INFO] ContinuityError: 0.865 [ms]
[INFO] CorrectBoundary: 0.099 [ms]
[INFO] PISOStep: 147.218 [ms]
[INFO] TimeStep: 375.527 [ms]
ExecutionTime = 7.67 s  ClockTime = 8 s

Time = 0.01

Courant Number mean: 0.0737005 max: 0.478704
[INFO] MatrixAssemblyU: 15.562 [ms]
DILUPBiCGStab:  Solving for Ux, Initial residual = 0.00368084, Final residual = 1.23312e-05, No Iterations 5
DILUPBiCGStab:  Solving for Uy, Initial residual = 0.00794218, Final residual = 2.24811e-05, No Iterations 5
DILUPBiCGStab:  Solving for Uz, Initial residual = 0.0223933, Final residual = 8.50041e-05, No Iterations 5
[INFO] MomentumPredictor: 80.301 [ms]
[INFO] MatrixAssemblyPI: 15.691 [ms]
[INFO] AdjustPhi: 0.705 [ms]
[INFO] ConstrainPressure: 0.002 [ms]
[INFO] MatrixAssemblyPII: 4.668 [ms]
GAMG:  Solving for p, Initial residual = 0.0109821, Final residual = 8.98002e-05, No Iterations 18
[INFO] SolveP: 119.851 [ms]
time step continuity errors : sum local = 1.26864e-08, global = -2.13578e-21, cumulative = -8.04594e-20
[INFO] ContinuityError: 0.906 [ms]
[INFO] CorrectBoundary: 0.103 [ms]
[INFO] PISOStep: 148.742 [ms]
[INFO] MatrixAssemblyPI: 14.776 [ms]
[INFO] AdjustPhi: 0.353 [ms]
[INFO] ConstrainPressure: 0.002 [ms]
[INFO] MatrixAssemblyPII: 4.812 [ms]
GAMG:  Solving for p, Initial residual = 0.0103294, Final residual = 7.47855e-05, No Iterations 16
[INFO] SolveP: 106.76 [ms]
time step continuity errors : sum local = 1.0511e-08, global = -6.54259e-21, cumulative = -8.7002e-20
[INFO] ContinuityError: 0.99 [ms]
[INFO] CorrectBoundary: 0.094 [ms]
[INFO] PISOStep: 134.314 [ms]
[INFO] TimeStep: 380.847 [ms]
ExecutionTime = 8.05 s  ClockTime = 8 s

End

Finalising parallel run
