/*---------------------------------------------------------------------------*\
| =========                 |                                                 |
| \\      /  F ield         | OpenFOAM: The Open Source CFD Toolbox           |
|  \\    /   O peration     | Version:  2312                                  |
|   \\  /    A nd           | Website:  www.openfoam.com                      |
|    \\/     M anipulation  |                                                 |
\*---------------------------------------------------------------------------*/
Build  : a46b310f-20240104 OPENFOAM=2312 version=v2312
Arch   : "LSB;label=32;scalar=64"
Exec   : icoFoam -parallel -case /hppfs/scratch/0B/di35yan/lidDriven3D/workspace/068e6d1195a944382aacf02aeee41c18/case
Date   : Feb 19 2024
Time   : 07:40:35
Host   : i20r01c05s02
PID    : 218558
I/O    : uncollated
Case   : /hppfs/scratch/0B/di35yan/lidDriven3D/workspace/068e6d1195a944382aacf02aeee41c18/case
nProcs : 448
Hosts  :
(
    (i20r01c05s02 112)
    (i20r01c05s04 112)
    (i20r01c05s08 112)
    (i20r01c06s02 112)
)
Pstream initialized with:
    floatTransfer      : false
    nProcsSimpleSum    : 0
    nonBlockingExchange: 0 (tuning: 0)
    exchange algorithm : 0
    commsType          : nonBlocking
    polling iterations : 0
trapFpe: Floating point exception trapping enabled (FOAM_SIGFPE).
fileModificationChecking : Monitoring run-time modified files using timeStampMaster (fileModificationSkew 5, maxFileModificationPolls 20)
allowSystemOperations : Allowing user-supplied system call operations

// * * * * * * * * * * * * * * * * * * * * * * * * * * * * * * * * * * * * * //
Create time

--> FOAM Warning : 
    From void* Foam::dlLibraryTable::openLibrary(const Foam::fileName&, bool)
    in file db/dynamicLibrary/dlLibraryTable/dlLibraryTable.C at line 188
    Could not load "libpetscFoam.so"
libpetscFoam.so: cannot open shared object file: No such file or directory
Create mesh for time = 0


PISO: Operating solver in PISO mode

Reading transportProperties

Reading field p

Reading field U

Reading/calculating face flux field phi


Starting time loop

Time = 0.000125

Courant Number mean: 8.02505e-18 max: 4.85723e-14
[INFO] MatrixAssemblyU: 66.906 [ms]
DILUPBiCGStab:  Solving for Ux, Initial residual = 1, Final residual = 0.0242502, No Iterations 5
DILUPBiCGStab:  Solving for Uy:  solution singularity
DILUPBiCGStab:  Solving for Uz:  solution singularity
[INFO] MomentumPredictor: 273.058 [ms]
[INFO] MatrixAssemblyPI: 76.601 [ms]
[INFO] AdjustPhi: 4.395 [ms]
[INFO] ConstrainPressure: 0.006 [ms]
[INFO] MatrixAssemblyPII: 16.054 [ms]
nonePCG:  Solving for p, Initial residual = 1, Final residual = 9.93326e-05, No Iterations 3245
[INFO] SolveP: 16844.8 [ms]
time step continuity errors : sum local = 2.80705e-09, global = 5.58814e-22, cumulative = 5.58814e-22
[INFO] ContinuityError: 12.176 [ms]
[INFO] CorrectBoundary: 0.457 [ms]
[INFO] PISOStep: 16985.1 [ms]
[INFO] MatrixAssemblyPI: 64.626 [ms]
[INFO] AdjustPhi: 4.472 [ms]
[INFO] ConstrainPressure: 0.004 [ms]
[INFO] MatrixAssemblyPII: 17.94 [ms]
nonePCG:  Solving for p, Initial residual = 0.828615, Final residual = 9.96717e-05, No Iterations 3231
[INFO] SolveP: 16134.4 [ms]
time step continuity errors : sum local = 3.35122e-09, global = 3.33616e-22, cumulative = 8.92429e-22
[INFO] ContinuityError: 6.333 [ms]
[INFO] CorrectBoundary: 0.212 [ms]
[INFO] PISOStep: 16252.8 [ms]
[INFO] TimeStep: 33586.9 [ms]
ExecutionTime = 43.13 s  ClockTime = 46 s

Time = 0.00025

Courant Number mean: 0.0106571 max: 0.437667
[INFO] MatrixAssemblyU: 60.329 [ms]
DILUPBiCGStab:  Solving for Ux, Initial residual = 0.108451, Final residual = 0.0153639, No Iterations 5
DILUPBiCGStab:  Solving for Uy, Initial residual = 0.486896, Final residual = 0.0616515, No Iterations 5
DILUPBiCGStab:  Solving for Uz, Initial residual = 0.969073, Final residual = 0.132883, No Iterations 5
[INFO] MomentumPredictor: 471.858 [ms]
[INFO] MatrixAssemblyPI: 66.936 [ms]
[INFO] AdjustPhi: 4.453 [ms]
[INFO] ConstrainPressure: 0.003 [ms]
[INFO] MatrixAssemblyPII: 17.611 [ms]
nonePCG:  Solving for p, Initial residual = 0.915573, Final residual = 9.79935e-05, No Iterations 3183
[INFO] SolveP: 15932.4 [ms]
time step continuity errors : sum local = 7.65368e-09, global = 8.78592e-22, cumulative = 1.77102e-21
[INFO] ContinuityError: 6.872 [ms]
[INFO] CorrectBoundary: 0.249 [ms]
[INFO] PISOStep: 16053 [ms]
[INFO] MatrixAssemblyPI: 64.775 [ms]
[INFO] AdjustPhi: 3.865 [ms]
[INFO] ConstrainPressure: 0.002 [ms]
[INFO] MatrixAssemblyPII: 17.686 [ms]
nonePCG:  Solving for p, Initial residual = 0.863089, Final residual = 9.92934e-05, No Iterations 3179
[INFO] SolveP: 15923.4 [ms]
time step continuity errors : sum local = 7.90546e-09, global = 3.73459e-22, cumulative = 2.14448e-21
[INFO] ContinuityError: 5.917 [ms]
[INFO] CorrectBoundary: 0.159 [ms]
[INFO] PISOStep: 16041.1 [ms]
[INFO] TimeStep: 32633.2 [ms]
ExecutionTime = 75.88 s  ClockTime = 79 s

Time = 0.000375

Courant Number mean: 0.0166859 max: 0.512039
[INFO] MatrixAssemblyU: 60.071 [ms]
DILUPBiCGStab:  Solving for Ux, Initial residual = 0.0537059, Final residual = 0.00638556, No Iterations 5
DILUPBiCGStab:  Solving for Uy, Initial residual = 0.262538, Final residual = 0.0311592, No Iterations 5
DILUPBiCGStab:  Solving for Uz, Initial residual = 0.843606, Final residual = 0.0957265, No Iterations 5
[INFO] MomentumPredictor: 450.847 [ms]
[INFO] MatrixAssemblyPI: 66.628 [ms]
[INFO] AdjustPhi: 3.489 [ms]
[INFO] ConstrainPressure: 0.002 [ms]
[INFO] MatrixAssemblyPII: 17.517 [ms]
nonePCG:  Solving for p, Initial residual = 0.944512, Final residual = 9.87582e-05, No Iterations 1533
[INFO] SolveP: 7500.25 [ms]
time step continuity errors : sum local = 9.58735e-09, global = 1.32414e-22, cumulative = 2.27689e-21
[INFO] ContinuityError: 5.659 [ms]
[INFO] CorrectBoundary: 0.22 [ms]
[INFO] PISOStep: 7617.63 [ms]
[INFO] MatrixAssemblyPI: 65.116 [ms]
[INFO] AdjustPhi: 3.436 [ms]
[INFO] ConstrainPressure: 0.003 [ms]
[INFO] MatrixAssemblyPII: 17.598 [ms]
nonePCG:  Solving for p, Initial residual = 0.907783, Final residual = 9.92213e-05, No Iterations 1531
[INFO] SolveP: 7806.86 [ms]
time step continuity errors : sum local = 9.40101e-09, global = 4.59849e-22, cumulative = 2.73674e-21
[INFO] ContinuityError: 7.892 [ms]
[INFO] CorrectBoundary: 0.162 [ms]
[INFO] PISOStep: 7924.35 [ms]
[INFO] TimeStep: 16059.7 [ms]
ExecutionTime = 91.99 s  ClockTime = 95 s

Time = 0.0005

Courant Number mean: 0.0202697 max: 0.477487
[INFO] MatrixAssemblyU: 58.879 [ms]
DILUPBiCGStab:  Solving for Ux, Initial residual = 0.0416831, Final residual = 0.00589147, No Iterations 5
DILUPBiCGStab:  Solving for Uy, Initial residual = 0.213837, Final residual = 0.0289173, No Iterations 5
DILUPBiCGStab:  Solving for Uz, Initial residual = 0.760088, Final residual = 0.0717927, No Iterations 5
[INFO] MomentumPredictor: 452.975 [ms]
[INFO] MatrixAssemblyPI: 66.574 [ms]
[INFO] AdjustPhi: 3.562 [ms]
[INFO] ConstrainPressure: 0.002 [ms]
[INFO] MatrixAssemblyPII: 17.472 [ms]
nonePCG:  Solving for p, Initial residual = 0.941583, Final residual = 9.92305e-05, No Iterations 1511
[INFO] SolveP: 7512.14 [ms]
time step continuity errors : sum local = 1.19163e-08, global = 4.91345e-22, cumulative = 3.22809e-21
[INFO] ContinuityError: 6.736 [ms]
[INFO] CorrectBoundary: 0.239 [ms]
[INFO] PISOStep: 7631.29 [ms]
[INFO] MatrixAssemblyPI: 63.75 [ms]
[INFO] AdjustPhi: 4.739 [ms]
[INFO] ConstrainPressure: 0.003 [ms]
[INFO] MatrixAssemblyPII: 17.395 [ms]
nonePCG:  Solving for p, Initial residual = 0.881002, Final residual = 9.99148e-05, No Iterations 1505
[INFO] SolveP: 7411.08 [ms]
time step continuity errors : sum local = 1.1866e-08, global = 7.56444e-22, cumulative = 3.98453e-21
[INFO] ContinuityError: 6.063 [ms]
[INFO] CorrectBoundary: 0.182 [ms]
[INFO] PISOStep: 7527.73 [ms]
[INFO] TimeStep: 15678.7 [ms]
ExecutionTime = 107.73 s  ClockTime = 110 s

Time = 0.000625

Courant Number mean: 0.0232735 max: 0.55862
[INFO] MatrixAssemblyU: 58.85 [ms]
DILUPBiCGStab:  Solving for Ux, Initial residual = 0.0376501, Final residual = 0.0053706, No Iterations 5
DILUPBiCGStab:  Solving for Uy, Initial residual = 0.184901, Final residual = 0.0239132, No Iterations 5
DILUPBiCGStab:  Solving for Uz, Initial residual = 0.724954, Final residual = 0.0586778, No Iterations 5
[INFO] MomentumPredictor: 456.988 [ms]
[INFO] MatrixAssemblyPI: 66.475 [ms]
[INFO] AdjustPhi: 3.606 [ms]
[INFO] ConstrainPressure: 0.003 [ms]
[INFO] MatrixAssemblyPII: 17.587 [ms]
nonePCG:  Solving for p, Initial residual = 0.956648, Final residual = 9.94615e-05, No Iterations 3061
[INFO] SolveP: 15450.8 [ms]
time step continuity errors : sum local = 1.30642e-08, global = 1.00086e-21, cumulative = 4.98539e-21
[INFO] ContinuityError: 8.468 [ms]
[INFO] CorrectBoundary: 2.094 [ms]
[INFO] PISOStep: 15569.7 [ms]
[INFO] MatrixAssemblyPI: 61.15 [ms]
[INFO] AdjustPhi: 9.529 [ms]
[INFO] ConstrainPressure: 0.003 [ms]
[INFO] MatrixAssemblyPII: 16.531 [ms]
nonePCG:  Solving for p, Initial residual = 0.913775, Final residual = 9.9873e-05, No Iterations 2904
[INFO] SolveP: 14297.1 [ms]
time step continuity errors : sum local = 1.30459e-08, global = 6.36774e-22, cumulative = 5.62217e-21
[INFO] ContinuityError: 4.906 [ms]
[INFO] CorrectBoundary: 0.253 [ms]
[INFO] PISOStep: 14416.7 [ms]
[INFO] TimeStep: 30509.2 [ms]
ExecutionTime = 138.34 s  ClockTime = 141 s

Time = 0.00075

Courant Number mean: 0.0255737 max: 0.48372
[INFO] MatrixAssemblyU: 59.805 [ms]
DILUPBiCGStab:  Solving for Ux, Initial residual = 0.0353661, Final residual = 0.00504478, No Iterations 5
DILUPBiCGStab:  Solving for Uy, Initial residual = 0.171041, Final residual = 0.0203896, No Iterations 5
DILUPBiCGStab:  Solving for Uz, Initial residual = 0.682173, Final residual = 0.0495992, No Iterations 5
[INFO] MomentumPredictor: 463.422 [ms]
[INFO] MatrixAssemblyPI: 66.721 [ms]
[INFO] AdjustPhi: 3.528 [ms]
[INFO] ConstrainPressure: 0.002 [ms]
[INFO] MatrixAssemblyPII: 17.473 [ms]
nonePCG:  Solving for p, Initial residual = 0.953634, Final residual = 9.95133e-05, No Iterations 1513
[INFO] SolveP: 7425.12 [ms]
time step continuity errors : sum local = 1.65054e-08, global = 4.04285e-23, cumulative = 5.6626e-21
[INFO] ContinuityError: 5.797 [ms]
[INFO] CorrectBoundary: 0.245 [ms]
[INFO] PISOStep: 7542.97 [ms]
[INFO] MatrixAssemblyPI: 64.439 [ms]
[INFO] AdjustPhi: 3.871 [ms]
[INFO] ConstrainPressure: 0.002 [ms]
[INFO] MatrixAssemblyPII: 17.512 [ms]
nonePCG:  Solving for p, Initial residual = 0.89106, Final residual = 9.79459e-05, No Iterations 1494
[INFO] SolveP: 7266.59 [ms]
time step continuity errors : sum local = 1.55243e-08, global = 1.21443e-21, cumulative = 6.87703e-21
[INFO] ContinuityError: 5.568 [ms]
[INFO] CorrectBoundary: 0.187 [ms]
[INFO] PISOStep: 7382.21 [ms]
[INFO] TimeStep: 15455.3 [ms]
ExecutionTime = 153.86 s  ClockTime = 156 s

Time = 0.000875

Courant Number mean: 0.027716 max: 0.61645
[INFO] MatrixAssemblyU: 58.908 [ms]
DILUPBiCGStab:  Solving for Ux, Initial residual = 0.0349874, Final residual = 0.00478878, No Iterations 5
DILUPBiCGStab:  Solving for Uy, Initial residual = 0.175354, Final residual = 0.0191901, No Iterations 5
DILUPBiCGStab:  Solving for Uz, Initial residual = 0.681785, Final residual = 0.0467678, No Iterations 5
[INFO] MomentumPredictor: 453.985 [ms]
[INFO] MatrixAssemblyPI: 66.474 [ms]
[INFO] AdjustPhi: 6.443 [ms]
[INFO] ConstrainPressure: 0.002 [ms]
[INFO] MatrixAssemblyPII: 17.561 [ms]
nonePCG:  Solving for p, Initial residual = 0.964118, Final residual = 9.82968e-05, No Iterations 3069
[INFO] SolveP: 15373 [ms]
time step continuity errors : sum local = 1.67241e-08, global = 1.6174e-21, cumulative = 8.49443e-21
[INFO] ContinuityError: 6.027 [ms]
[INFO] CorrectBoundary: 0.302 [ms]
[INFO] PISOStep: 15495.6 [ms]
[INFO] MatrixAssemblyPI: 63.233 [ms]
[INFO] AdjustPhi: 5.236 [ms]
[INFO] ConstrainPressure: 0.002 [ms]
[INFO] MatrixAssemblyPII: 17.651 [ms]
nonePCG:  Solving for p, Initial residual = 0.915767, Final residual = 9.8187e-05, No Iterations 3068
[INFO] SolveP: 14890.5 [ms]
time step continuity errors : sum local = 1.66494e-08, global = 9.41955e-22, cumulative = 9.43639e-21
[INFO] ContinuityError: 6.172 [ms]
[INFO] CorrectBoundary: 0.212 [ms]
[INFO] PISOStep: 15007.2 [ms]
[INFO] TimeStep: 31022.1 [ms]
ExecutionTime = 185 s  ClockTime = 187 s

Time = 0.001

Courant Number mean: 0.0294412 max: 0.493108
[INFO] MatrixAssemblyU: 58.855 [ms]
DILUPBiCGStab:  Solving for Ux, Initial residual = 0.0357338, Final residual = 0.00456958, No Iterations 5
DILUPBiCGStab:  Solving for Uy, Initial residual = 0.168747, Final residual = 0.0166782, No Iterations 5
DILUPBiCGStab:  Solving for Uz, Initial residual = 0.670583, Final residual = 0.0408373, No Iterations 5
[INFO] MomentumPredictor: 460.112 [ms]
[INFO] MatrixAssemblyPI: 66.49 [ms]
[INFO] AdjustPhi: 3.448 [ms]
[INFO] ConstrainPressure: 0.003 [ms]
[INFO] MatrixAssemblyPII: 17.626 [ms]
nonePCG:  Solving for p, Initial residual = 0.96205, Final residual = 9.94946e-05, No Iterations 3068
[INFO] SolveP: 15257.1 [ms]
time step continuity errors : sum local = 1.93603e-08, global = 8.3889e-22, cumulative = 1.02753e-20
[INFO] ContinuityError: 7.537 [ms]
[INFO] CorrectBoundary: 2.685 [ms]
[INFO] PISOStep: 15375.1 [ms]
[INFO] MatrixAssemblyPI: 61.31 [ms]
[INFO] AdjustPhi: 7.681 [ms]
[INFO] ConstrainPressure: 0.002 [ms]
[INFO] MatrixAssemblyPII: 16.317 [ms]
nonePCG:  Solving for p, Initial residual = 0.897176, Final residual = 9.88814e-05, No Iterations 3066
[INFO] SolveP: 15098.4 [ms]
time step continuity errors : sum local = 1.95111e-08, global = 1.89369e-22, cumulative = 1.04646e-20
[INFO] ContinuityError: 5.315 [ms]
[INFO] CorrectBoundary: 0.153 [ms]
[INFO] PISOStep: 15216 [ms]
[INFO] TimeStep: 31117.2 [ms]
ExecutionTime = 216.23 s  ClockTime = 218 s

Time = 0.001125

Courant Number mean: 0.0311961 max: 0.701608
[INFO] MatrixAssemblyU: 61.001 [ms]
DILUPBiCGStab:  Solving for Ux, Initial residual = 0.0367947, Final residual = 0.00430868, No Iterations 5
DILUPBiCGStab:  Solving for Uy, Initial residual = 0.184155, Final residual = 0.0170398, No Iterations 5
DILUPBiCGStab:  Solving for Uz, Initial residual = 0.678896, Final residual = 0.0384325, No Iterations 5
[INFO] MomentumPredictor: 455.72 [ms]
[INFO] MatrixAssemblyPI: 66.166 [ms]
[INFO] AdjustPhi: 3.769 [ms]
[INFO] ConstrainPressure: 0.002 [ms]
[INFO] MatrixAssemblyPII: 17.613 [ms]
nonePCG:  Solving for p, Initial residual = 0.969429, Final residual = 9.9027e-05, No Iterations 3067
[INFO] SolveP: 14997.3 [ms]
time step continuity errors : sum local = 2.18528e-08, global = -7.52027e-22, cumulative = 9.71262e-21
[INFO] ContinuityError: 6.238 [ms]
[INFO] CorrectBoundary: 0.227 [ms]
[INFO] PISOStep: 15114.3 [ms]
[INFO] MatrixAssemblyPI: 65.019 [ms]
[INFO] AdjustPhi: 3.557 [ms]
[INFO] ConstrainPressure: 0.004 [ms]
[INFO] MatrixAssemblyPII: 17.54 [ms]
nonePCG:  Solving for p, Initial residual = 0.916694, Final residual = 9.96613e-05, No Iterations 3065
[INFO] SolveP: 15343.2 [ms]
time step continuity errors : sum local = 2.19657e-08, global = 1.00182e-21, cumulative = 1.07144e-20
[INFO] ContinuityError: 6.2 [ms]
[INFO] CorrectBoundary: 0.226 [ms]
[INFO] PISOStep: 15460.7 [ms]
[INFO] TimeStep: 31098.7 [ms]
ExecutionTime = 247.44 s  ClockTime = 249 s

Time = 0.00125

Courant Number mean: 0.0325959 max: 0.509469
[INFO] MatrixAssemblyU: 59.864 [ms]
DILUPBiCGStab:  Solving for Ux, Initial residual = 0.0397427, Final residual = 0.00435432, No Iterations 5
DILUPBiCGStab:  Solving for Uy, Initial residual = 0.181815, Final residual = 0.0150203, No Iterations 5
DILUPBiCGStab:  Solving for Uz, Initial residual = 0.679805, Final residual = 0.0374078, No Iterations 5
[INFO] MomentumPredictor: 450.001 [ms]
[INFO] MatrixAssemblyPI: 66.42 [ms]
[INFO] AdjustPhi: 3.44 [ms]
[INFO] ConstrainPressure: 0.003 [ms]
[INFO] MatrixAssemblyPII: 17.593 [ms]
nonePCG:  Solving for p, Initial residual = 0.968656, Final residual = 9.98616e-05, No Iterations 3067
[INFO] SolveP: 15076.8 [ms]
time step continuity errors : sum local = 2.54269e-08, global = 5.64644e-22, cumulative = 1.12791e-20
[INFO] ContinuityError: 6.306 [ms]
[INFO] CorrectBoundary: 0.227 [ms]
[INFO] PISOStep: 15194.6 [ms]
[INFO] MatrixAssemblyPI: 64.848 [ms]
[INFO] AdjustPhi: 3.536 [ms]
[INFO] ConstrainPressure: 0.002 [ms]
[INFO] MatrixAssemblyPII: 17.528 [ms]
nonePCG:  Solving for p, Initial residual = 0.902061, Final residual = 9.86782e-05, No Iterations 3065
[INFO] SolveP: 14964.3 [ms]
time step continuity errors : sum local = 2.54512e-08, global = 1.68223e-21, cumulative = 1.29613e-20
[INFO] ContinuityError: 5.895 [ms]
[INFO] CorrectBoundary: 0.22 [ms]
[INFO] PISOStep: 15080.9 [ms]
[INFO] TimeStep: 30792.6 [ms]
ExecutionTime = 278.35 s  ClockTime = 280 s

Time = 0.001375

Courant Number mean: 0.0341461 max: 0.832481
[INFO] MatrixAssemblyU: 59.109 [ms]
DILUPBiCGStab:  Solving for Ux, Initial residual = 0.0421342, Final residual = 0.00413726, No Iterations 5
DILUPBiCGStab:  Solving for Uy, Initial residual = 0.203957, Final residual = 0.0160806, No Iterations 5
DILUPBiCGStab:  Solving for Uz, Initial residual = 0.692366, Final residual = 0.0370225, No Iterations 5
[INFO] MomentumPredictor: 459.066 [ms]
[INFO] MatrixAssemblyPI: 66.313 [ms]
[INFO] AdjustPhi: 4.141 [ms]
[INFO] ConstrainPressure: 0.003 [ms]
[INFO] MatrixAssemblyPII: 17.59 [ms]
nonePCG:  Solving for p, Initial residual = 0.973984, Final residual = 9.96243e-05, No Iterations 2948
[INFO] SolveP: 14711 [ms]
time step continuity errors : sum local = 2.91958e-08, global = 1.51154e-21, cumulative = 1.44729e-20
[INFO] ContinuityError: 6.066 [ms]
[INFO] CorrectBoundary: 0.299 [ms]
[INFO] PISOStep: 14831.3 [ms]
[INFO] MatrixAssemblyPI: 63.373 [ms]
[INFO] AdjustPhi: 8.415 [ms]
[INFO] ConstrainPressure: 0.003 [ms]
[INFO] MatrixAssemblyPII: 17.122 [ms]
nonePCG:  Solving for p, Initial residual = 0.917311, Final residual = 9.94366e-05, No Iterations 3063
[INFO] SolveP: 14932.7 [ms]
time step continuity errors : sum local = 2.91604e-08, global = 9.61846e-22, cumulative = 1.54347e-20
[INFO] ContinuityError: 6.258 [ms]
[INFO] CorrectBoundary: 0.172 [ms]
[INFO] PISOStep: 15053.6 [ms]
[INFO] TimeStep: 30412.6 [ms]
ExecutionTime = 308.86 s  ClockTime = 311 s

Time = 0.0015

Courant Number mean: 0.0353399 max: 0.614452
[INFO] MatrixAssemblyU: 59.507 [ms]
DILUPBiCGStab:  Solving for Ux, Initial residual = 0.0469751, Final residual = 0.00432887, No Iterations 5
DILUPBiCGStab:  Solving for Uy, Initial residual = 0.206915, Final residual = 0.0146667, No Iterations 5
DILUPBiCGStab:  Solving for Uz, Initial residual = 0.696529, Final residual = 0.0366634, No Iterations 5
[INFO] MomentumPredictor: 449.106 [ms]
[INFO] MatrixAssemblyPI: 66.648 [ms]
[INFO] AdjustPhi: 3.29 [ms]
[INFO] ConstrainPressure: 0.002 [ms]
[INFO] MatrixAssemblyPII: 17.557 [ms]
nonePCG:  Solving for p, Initial residual = 0.973991, Final residual = 9.80169e-05, No Iterations 3069
[INFO] SolveP: 15477.8 [ms]
time step continuity errors : sum local = 3.34421e-08, global = 4.99152e-23, cumulative = 1.54846e-20
[INFO] ContinuityError: 6.33 [ms]
[INFO] CorrectBoundary: 0.276 [ms]
[INFO] PISOStep: 15596.7 [ms]
[INFO] MatrixAssemblyPI: 63.242 [ms]
[INFO] AdjustPhi: 4.959 [ms]
[INFO] ConstrainPressure: 0.002 [ms]
[INFO] MatrixAssemblyPII: 17.752 [ms]
nonePCG:  Solving for p, Initial residual = 0.906726, Final residual = 9.86463e-05, No Iterations 3066
[INFO] SolveP: 14937 [ms]
time step continuity errors : sum local = 3.40538e-08, global = 8.64058e-22, cumulative = 1.63487e-20
[INFO] ContinuityError: 6.42 [ms]
[INFO] CorrectBoundary: 0.293 [ms]
[INFO] PISOStep: 15053.4 [ms]
[INFO] TimeStep: 31165.7 [ms]
ExecutionTime = 340.15 s  ClockTime = 342 s

Time = 0.001625

Courant Number mean: 0.0367803 max: 1.16828
[INFO] MatrixAssemblyU: 57.731 [ms]
DILUPBiCGStab:  Solving for Ux, Initial residual = 0.0510624, Final residual = 0.00422257, No Iterations 5
DILUPBiCGStab:  Solving for Uy, Initial residual = 0.233615, Final residual = 0.0159902, No Iterations 5
DILUPBiCGStab:  Solving for Uz, Initial residual = 0.707907, Final residual = 0.036835, No Iterations 5
[INFO] MomentumPredictor: 451.705 [ms]
[INFO] MatrixAssemblyPI: 66.439 [ms]
[INFO] AdjustPhi: 3.654 [ms]
[INFO] ConstrainPressure: 0.003 [ms]
[INFO] MatrixAssemblyPII: 17.558 [ms]
nonePCG:  Solving for p, Initial residual = 0.977632, Final residual = 9.97148e-05, No Iterations 3068
[INFO] SolveP: 14972.4 [ms]
time step continuity errors : sum local = 3.95236e-08, global = -3.68273e-22, cumulative = 1.59804e-20
[INFO] ContinuityError: 6.289 [ms]
[INFO] CorrectBoundary: 0.241 [ms]
[INFO] PISOStep: 15089.8 [ms]
[INFO] MatrixAssemblyPI: 63.902 [ms]
[INFO] AdjustPhi: 4.561 [ms]
[INFO] ConstrainPressure: 0.002 [ms]
[INFO] MatrixAssemblyPII: 17.05 [ms]
nonePCG:  Solving for p, Initial residual = 0.918055, Final residual = 9.85839e-05, No Iterations 3066
[INFO] SolveP: 15332.2 [ms]
time step continuity errors : sum local = 3.91677e-08, global = 1.49848e-21, cumulative = 1.74789e-20
[INFO] ContinuityError: 6.58 [ms]
[INFO] CorrectBoundary: 0.303 [ms]
[INFO] PISOStep: 15449.7 [ms]
[INFO] TimeStep: 31056 [ms]
ExecutionTime = 371.31 s  ClockTime = 373 s

Time = 0.00175

Courant Number mean: 0.0378424 max: 1.03933
[INFO] MatrixAssemblyU: 58.56 [ms]
DILUPBiCGStab:  Solving for Ux, Initial residual = 0.0581114, Final residual = 0.00450843, No Iterations 5
DILUPBiCGStab:  Solving for Uy, Initial residual = 0.24236, Final residual = 0.0151474, No Iterations 5
DILUPBiCGStab:  Solving for Uz, Initial residual = 0.71292, Final residual = 0.0369291, No Iterations 5
[INFO] MomentumPredictor: 453.069 [ms]
[INFO] MatrixAssemblyPI: 65.151 [ms]
[INFO] AdjustPhi: 4.85 [ms]
[INFO] ConstrainPressure: 0.002 [ms]
[INFO] MatrixAssemblyPII: 17.304 [ms]
nonePCG:  Solving for p, Initial residual = 0.978215, Final residual = 9.93684e-05, No Iterations 3069
[INFO] SolveP: 15100.6 [ms]
time step continuity errors : sum local = 4.60793e-08, global = -9.94575e-22, cumulative = 1.64843e-20
[INFO] ContinuityError: 6.197 [ms]
[INFO] CorrectBoundary: 0.26 [ms]
[INFO] PISOStep: 15218.1 [ms]
[INFO] MatrixAssemblyPI: 64.39 [ms]
[INFO] AdjustPhi: 3.881 [ms]
[INFO] ConstrainPressure: 0.002 [ms]
[INFO] MatrixAssemblyPII: 17.091 [ms]
nonePCG:  Solving for p, Initial residual = 0.910524, Final residual = 9.95237e-05, No Iterations 3066
[INFO] SolveP: 15269.4 [ms]
time step continuity errors : sum local = 4.66482e-08, global = 5.41364e-22, cumulative = 1.70257e-20
[INFO] ContinuityError: 7.88 [ms]
[INFO] CorrectBoundary: 2.263 [ms]
[INFO] PISOStep: 15387.3 [ms]
[INFO] TimeStep: 31124 [ms]
ExecutionTime = 402.54 s  ClockTime = 404 s

Time = 0.001875

Courant Number mean: 0.0392394 max: 1.7028
[INFO] MatrixAssemblyU: 53.844 [ms]
DILUPBiCGStab:  Solving for Ux, Initial residual = 0.0643911, Final residual = 0.00454766, No Iterations 5
DILUPBiCGStab:  Solving for Uy, Initial residual = 0.272752, Final residual = 0.0165547, No Iterations 5
DILUPBiCGStab:  Solving for Uz, Initial residual = 0.721675, Final residual = 0.0369465, No Iterations 5
[INFO] MomentumPredictor: 466.621 [ms]
[INFO] MatrixAssemblyPI: 66.251 [ms]
[INFO] AdjustPhi: 6.975 [ms]
[INFO] ConstrainPressure: 0.003 [ms]
[INFO] MatrixAssemblyPII: 17.616 [ms]
nonePCG:  Solving for p, Initial residual = 0.980453, Final residual = 9.98799e-05, No Iterations 3071
[INFO] SolveP: 15116.5 [ms]
time step continuity errors : sum local = 5.41816e-08, global = -1.94546e-21, cumulative = 1.50802e-20
[INFO] ContinuityError: 5.206 [ms]
[INFO] CorrectBoundary: 0.286 [ms]
[INFO] PISOStep: 15238.6 [ms]
[INFO] MatrixAssemblyPI: 63.748 [ms]
[INFO] AdjustPhi: 3.409 [ms]
[INFO] ConstrainPressure: 0.003 [ms]
[INFO] MatrixAssemblyPII: 17.54 [ms]
nonePCG:  Solving for p, Initial residual = 0.918333, Final residual = 9.93433e-05, No Iterations 3068
[INFO] SolveP: 14969.8 [ms]
time step continuity errors : sum local = 5.4099e-08, global = 1.01075e-21, cumulative = 1.6091e-20
[INFO] ContinuityError: 6.492 [ms]
[INFO] CorrectBoundary: 0.21 [ms]
[INFO] PISOStep: 15085.3 [ms]
[INFO] TimeStep: 30851.3 [ms]
ExecutionTime = 433.51 s  ClockTime = 435 s

Time = 0.002

Courant Number mean: 0.0402379 max: 1.73318
[INFO] MatrixAssemblyU: 59.047 [ms]
DILUPBiCGStab:  Solving for Ux, Initial residual = 0.0744921, Final residual = 0.00494366, No Iterations 5
DILUPBiCGStab:  Solving for Uy, Initial residual = 0.28774, Final residual = 0.0161974, No Iterations 5
DILUPBiCGStab:  Solving for Uz, Initial residual = 0.725866, Final residual = 0.0368718, No Iterations 5
[INFO] MomentumPredictor: 457.407 [ms]
[INFO] MatrixAssemblyPI: 66.61 [ms]
[INFO] AdjustPhi: 3.578 [ms]
[INFO] ConstrainPressure: 0.002 [ms]
[INFO] MatrixAssemblyPII: 17.399 [ms]
nonePCG:  Solving for p, Initial residual = 0.981518, Final residual = 9.95967e-05, No Iterations 3073
[INFO] SolveP: 15464.9 [ms]
time step continuity errors : sum local = 6.3564e-08, global = 1.22938e-21, cumulative = 1.73203e-20
[INFO] ContinuityError: 5.756 [ms]
[INFO] CorrectBoundary: 0.228 [ms]
[INFO] PISOStep: 15583.2 [ms]
[INFO] MatrixAssemblyPI: 63.987 [ms]
[INFO] AdjustPhi: 5.111 [ms]
[INFO] ConstrainPressure: 0.002 [ms]
[INFO] MatrixAssemblyPII: 17.46 [ms]
nonePCG:  Solving for p, Initial residual = 0.913447, Final residual = 9.98158e-05, No Iterations 3069
[INFO] SolveP: 14937.5 [ms]
time step continuity errors : sum local = 6.43393e-08, global = 1.93942e-22, cumulative = 1.75143e-20
[INFO] ContinuityError: 6.456 [ms]
[INFO] CorrectBoundary: 0.158 [ms]
[INFO] PISOStep: 15055.1 [ms]
[INFO] TimeStep: 31161.7 [ms]
ExecutionTime = 464.79 s  ClockTime = 466 s

Time = 0.002125

Courant Number mean: 0.0416519 max: 2.56368
[INFO] MatrixAssemblyU: 59.676 [ms]
DILUPBiCGStab:  Solving for Ux, Initial residual = 0.0835936, Final residual = 0.00515281, No Iterations 5
DILUPBiCGStab:  Solving for Uy, Initial residual = 0.321186, Final residual = 0.0176427, No Iterations 5
DILUPBiCGStab:  Solving for Uz, Initial residual = 0.731733, Final residual = 0.0367906, No Iterations 5
[INFO] MomentumPredictor: 464.151 [ms]
[INFO] MatrixAssemblyPI: 66.469 [ms]
[INFO] AdjustPhi: 4.674 [ms]
[INFO] ConstrainPressure: 0.003 [ms]
[INFO] MatrixAssemblyPII: 17.615 [ms]
nonePCG:  Solving for p, Initial residual = 0.982612, Final residual = 9.88086e-05, No Iterations 3076
[INFO] SolveP: 16631.3 [ms]
time step continuity errors : sum local = 7.43883e-08, global = 1.28504e-22, cumulative = 1.76428e-20
[INFO] ContinuityError: 7.472 [ms]
[INFO] CorrectBoundary: 1.866 [ms]
[INFO] PISOStep: 16750.9 [ms]
[INFO] MatrixAssemblyPI: 61.376 [ms]
[INFO] AdjustPhi: 8.177 [ms]
[INFO] ConstrainPressure: 0.002 [ms]
[INFO] MatrixAssemblyPII: 16.351 [ms]
nonePCG:  Solving for p, Initial residual = 0.918636, Final residual = 9.95989e-05, No Iterations 3072
[INFO] SolveP: 15105.4 [ms]
time step continuity errors : sum local = 7.53722e-08, global = 1.12955e-21, cumulative = 1.87723e-20
[INFO] ContinuityError: 5.696 [ms]
[INFO] CorrectBoundary: 0.213 [ms]
[INFO] PISOStep: 15224 [ms]
[INFO] TimeStep: 32505.7 [ms]
ExecutionTime = 497.41 s  ClockTime = 499 s

Time = 0.00225

Courant Number mean: 0.0426611 max: 2.857
[INFO] MatrixAssemblyU: 60.169 [ms]
DILUPBiCGStab:  Solving for Ux, Initial residual = 0.0980404, Final residual = 0.00572509, No Iterations 5
DILUPBiCGStab:  Solving for Uy, Initial residual = 0.342335, Final residual = 0.0177124, No Iterations 5
DILUPBiCGStab:  Solving for Uz, Initial residual = 0.735418, Final residual = 0.0367074, No Iterations 5
[INFO] MomentumPredictor: 455.49 [ms]
[INFO] MatrixAssemblyPI: 66.37 [ms]
[INFO] AdjustPhi: 3.349 [ms]
[INFO] ConstrainPressure: 0.005 [ms]
[INFO] MatrixAssemblyPII: 17.514 [ms]
nonePCG:  Solving for p, Initial residual = 0.983629, Final residual = 9.91777e-05, No Iterations 3077
[INFO] SolveP: 16373.4 [ms]
time step continuity errors : sum local = 8.84315e-08, global = -6.57585e-21, cumulative = 1.21965e-20
[INFO] ContinuityError: 6.117 [ms]
[INFO] CorrectBoundary: 0.201 [ms]
[INFO] PISOStep: 16490.6 [ms]
[INFO] MatrixAssemblyPI: 64.751 [ms]
[INFO] AdjustPhi: 3.897 [ms]
[INFO] ConstrainPressure: 0.003 [ms]
[INFO] MatrixAssemblyPII: 17.355 [ms]
nonePCG:  Solving for p, Initial residual = 0.915607, Final residual = 9.86724e-05, No Iterations 3074
[INFO] SolveP: 15471.3 [ms]
time step continuity errors : sum local = 8.88175e-08, global = 1.98291e-21, cumulative = 1.41794e-20
[INFO] ContinuityError: 6.58 [ms]
[INFO] CorrectBoundary: 0.196 [ms]
[INFO] PISOStep: 15588.8 [ms]
[INFO] TimeStep: 32601.7 [ms]
ExecutionTime = 530.14 s  ClockTime = 531 s

Time = 0.002375

Courant Number mean: 0.0441651 max: 3.95323
[INFO] MatrixAssemblyU: 60.159 [ms]
DILUPBiCGStab:  Solving for Ux, Initial residual = 0.110775, Final residual = 0.00611798, No Iterations 5
DILUPBiCGStab:  Solving for Uy, Initial residual = 0.377489, Final residual = 0.019169, No Iterations 5
DILUPBiCGStab:  Solving for Uz, Initial residual = 0.739452, Final residual = 0.0366781, No Iterations 5
[INFO] MomentumPredictor: 453.384 [ms]
[INFO] MatrixAssemblyPI: 66.602 [ms]
[INFO] AdjustPhi: 3.148 [ms]
[INFO] ConstrainPressure: 0.003 [ms]
[INFO] MatrixAssemblyPII: 17.52 [ms]
nonePCG:  Solving for p, Initial residual = 0.984155, Final residual = 9.79099e-05, No Iterations 3081
[INFO] SolveP: 15057 [ms]
time step continuity errors : sum local = 1.03712e-07, global = 2.38582e-21, cumulative = 1.65652e-20
[INFO] ContinuityError: 6.263 [ms]
[INFO] CorrectBoundary: 0.243 [ms]
[INFO] PISOStep: 15174.5 [ms]
[INFO] MatrixAssemblyPI: 64.834 [ms]
[INFO] AdjustPhi: 3.303 [ms]
[INFO] ConstrainPressure: 0.003 [ms]
[INFO] MatrixAssemblyPII: 17.437 [ms]
nonePCG:  Solving for p, Initial residual = 0.919081, Final residual = 9.875e-05, No Iterations 3077
[INFO] SolveP: 15263.3 [ms]
time step continuity errors : sum local = 1.05254e-07, global = 1.57141e-21, cumulative = 1.81366e-20
[INFO] ContinuityError: 6.476 [ms]
[INFO] CorrectBoundary: 0.149 [ms]
[INFO] PISOStep: 15379.9 [ms]
[INFO] TimeStep: 31075 [ms]
ExecutionTime = 561.33 s  ClockTime = 562 s

Time = 0.0025

Courant Number mean: 0.0452806 max: 4.66161
[INFO] MatrixAssemblyU: 55.474 [ms]
DILUPBiCGStab:  Solving for Ux, Initial residual = 0.131081, Final residual = 0.00693985, No Iterations 5
DILUPBiCGStab:  Solving for Uy, Initial residual = 0.403609, Final residual = 0.0195872, No Iterations 5
DILUPBiCGStab:  Solving for Uz, Initial residual = 0.742089, Final residual = 0.0366, No Iterations 5
[INFO] MomentumPredictor: 479.311 [ms]
[INFO] MatrixAssemblyPI: 64.99 [ms]
[INFO] AdjustPhi: 4.965 [ms]
[INFO] ConstrainPressure: 0.003 [ms]
[INFO] MatrixAssemblyPII: 16.86 [ms]
nonePCG:  Solving for p, Initial residual = 0.984914, Final residual = 9.91234e-05, No Iterations 3078
[INFO] SolveP: 15104.2 [ms]
time step continuity errors : sum local = 1.25193e-07, global = 2.37858e-21, cumulative = 2.05152e-20
[INFO] ContinuityError: 5.153 [ms]
[INFO] CorrectBoundary: 0.193 [ms]
[INFO] PISOStep: 15222.1 [ms]
[INFO] MatrixAssemblyPI: 64.011 [ms]
[INFO] AdjustPhi: 5.649 [ms]
[INFO] ConstrainPressure: 0.002 [ms]
[INFO] MatrixAssemblyPII: 17.316 [ms]
nonePCG:  Solving for p, Initial residual = 0.917088, Final residual = 9.84621e-05, No Iterations 3077
[INFO] SolveP: 15123.1 [ms]
time step continuity errors : sum local = 1.25517e-07, global = 1.61136e-21, cumulative = 2.21266e-20
[INFO] ContinuityError: 6.278 [ms]
[INFO] CorrectBoundary: 0.183 [ms]
[INFO] PISOStep: 15242.4 [ms]
[INFO] TimeStep: 31008.4 [ms]
ExecutionTime = 592.45 s  ClockTime = 593 s

End

Finalising parallel run
