/*---------------------------------------------------------------------------*\
| =========                 |                                                 |
| \\      /  F ield         | OpenFOAM: The Open Source CFD Toolbox           |
|  \\    /   O peration     | Version:  2306                                  |
|   \\  /    A nd           | Website:  www.openfoam.com                      |
|    \\/     M anipulation  |                                                 |
\*---------------------------------------------------------------------------*/
Build  : a6e826bd55-20230630 OPENFOAM=2306 version=v2306
Arch   : "LSB;label=32;scalar=64"
Exec   : icoFoam -parallel -case /home/greole/data/code/exasim_project/micro_benchmarks/LidDrivenCavity3D/workspace/4e9f3961b69793445a07292ad6db0e4b/case
Date   : Jul 05 2023
Time   : 16:04:05
Host   : nla-gpu2.ianm.kit.edu
PID    : 154633
I/O    : uncollated
Case   : /home/greole/data/code/exasim_project/micro_benchmarks/LidDrivenCavity3D/workspace/4e9f3961b69793445a07292ad6db0e4b/case
nProcs : 8
Hosts  :
(
    (nla-gpu2.ianm.kit.edu 8)
)
Pstream initialized with:
    floatTransfer      : false
    nProcsSimpleSum    : 0
    nonBlockingExchange: 0 (tuning: 0)
    exchange algorithm : -1
    commsType          : nonBlocking
    polling iterations : 0
trapFpe: Floating point exception trapping enabled (FOAM_SIGFPE).
fileModificationChecking : Monitoring run-time modified files using timeStampMaster (fileModificationSkew 5, maxFileModificationPolls 20)
allowSystemOperations : Allowing user-supplied system call operations

// * * * * * * * * * * * * * * * * * * * * * * * * * * * * * * * * * * * * * //
Create time

--> FOAM Warning : 
    From void* Foam::dlLibraryTable::openLibrary(const Foam::fileName&, bool)
    in file db/dynamicLibrary/dlLibraryTable/dlLibraryTable.C at line 188
    Could not load "libpetscFoam.so"
libpetscFoam.so: cannot open shared object file: No such file or directory
Create mesh for time = 0


PISO: Operating solver in PISO mode

Reading transportProperties

Reading field p

Reading field U

Reading/calculating face flux field phi


Starting time loop

Time = 0.0005

Courant Number mean: 8.62851e-18 max: 8.67362e-15
[INFO] MatrixAssemblyU: 13.687 [ms]
DILUPBiCGStab:  Solving for Ux, Initial residual = 1, Final residual = 0.0025649, No Iterations 5
DILUPBiCGStab:  Solving for Uy:  solution singularity
DILUPBiCGStab:  Solving for Uz:  solution singularity
[INFO] MomentumPredictor: 59.027 [ms]
[INFO] MatrixAssemblyPI: 11.03 [ms]
[INFO] AdjustPhi: 0.901 [ms]
[INFO] ConstrainPressure: 0.012 [ms]
[INFO] MatrixAssemblyPII: 3.307 [ms]
[OGL LOG][lduLduBase.H:122] Initialising OGL
	OGL commit:  13e9788+
	Branch: device_guard 
	Build type: Release
	Ginkgo version: 1.5.0 ( develop)
	Ginkgo commit: 4292ffdee
	MPI is GPU aware: 1
	Forces host buffer based communication: 0
	CPU ranks per GPU: 1
	Matrix format: Coo
	End OGL_INFO
[OGL LOG][Proc: 0]: global_index_init: 7.046 [ms]
[OGL LOG][Proc: 0]p_local_cols: call_init: 0.04 [ms]
[OGL LOG][Proc: 0]p_local_rows: call_init: 0.013 [ms]
[OGL LOG][Proc: 0]p_local_ldu_map: call_init: 0.006 [ms]
[OGL LOG][Proc: 0]p_local_coeffs: call_init: 0.015 [ms]
[OGL LOG][Proc: 0]p_non_local_cols: call_init: 0.004 [ms]
[OGL LOG][Proc: 0]p_non_local_rows: call_init: 0.003 [ms]
[OGL LOG][Proc: 0]p_non_local_ldu_map: call_init: 0.004 [ms]
[OGL LOG][Proc: 0]p_non_local_coeffs: call_init: 0.004 [ms]
[OGL LOG][Proc: 0]p: init_local_sparsity_pattern: 18.929 [ms]
[OGL LOG][Proc: 0]p: init_non_local_sparsity_pattern: 1.827 [ms]
[OGL LOG][Proc: 0]p: update_local_matrix_data: 2.462 [ms]
[OGL LOG][Proc: 0]p: update_non_local_matrix_data: 0.049 [ms]
[OGL LOG][Proc: 0]device_partition: call_init: 0.797 [ms]
[OGL LOG][Proc: 0]p_matrix: call_init: 48.52 [ms]
[OGL LOG][Proc: 0]p_rhs: call_init: 2.956 [ms]
[OGL LOG][Proc: 0]p_solution: call_init: 0.182 [ms]
[OGL LOG][Proc: 0]p: init_precond: 0.077 [ms]
[OGL LOG][StoppingCriterion.H:372] Creating stopping criterion with minIter 0 frequency 1
[OGL LOG][Proc: 0]p: generate_solver: 0.034 [ms]
[OGL LOG][Proc: 0]p: solve: 1633.52 [ms]
[OGL LOG][Proc: 0]p: copy_x_back: 0.466 [ms]
[OGL LOG][lduLduBase.H:339] 
Statistics:
	Time per iteration: 2059 [mu s]
	Time per residual norm calculation: 816.000000 [mu s]
	Time per iteration and DOF: 2.059000 [ns]
	Retrieve results bandwidth 2.145000 [GByte/s]
[OGL LOG][Proc: 0]p: solve_multi_gpu: 1686.9 [ms]
nonehipGKOCG:  Solving for p, Initial residual = 1, Final residual = 9.98815e-05, No Iterations 793
[INFO] SolveP: 1949.64 [ms]
time step continuity errors : sum local = 2.14461e-08, global = 5.36562e-21, cumulative = 5.36562e-21
[INFO] ContinuityError: 2.117 [ms]
[INFO] CorrectBoundary: 0.064 [ms]
[INFO] PISOStep: 1974.31 [ms]
[INFO] MatrixAssemblyPI: 13.108 [ms]
[INFO] AdjustPhi: 2.326 [ms]
[INFO] ConstrainPressure: 0.003 [ms]
[INFO] MatrixAssemblyPII: 3.99 [ms]
[OGL LOG][Proc: 0]: global_index_init: 0.082 [ms]
[OGL LOG][Proc: 0]p_local_coeffs: call_update: 0.004 [ms]
[OGL LOG][Proc: 0]p_non_local_coeffs: call_update: 0 [ms]
[OGL LOG][Proc: 0]p: update_local_matrix_data: 1.984 [ms]
[OGL LOG][Proc: 0]p: update_non_local_matrix_data: 0.052 [ms]
[OGL LOG][Proc: 0]p_matrix: call_update: 2.018 [ms]
[OGL LOG][Proc: 0]p_rhs: call_update: 0.443 [ms]
[OGL LOG][Proc: 0]p: init_precond: 0.054 [ms]
[OGL LOG][StoppingCriterion.H:372] Creating stopping criterion with minIter 475 frequency 12
[OGL LOG][Proc: 0]p: generate_solver: 0.004 [ms]
[OGL LOG][Proc: 0]p: solve: 285.243 [ms]
[OGL LOG][Proc: 0]p: copy_x_back: 0.445 [ms]
[OGL LOG][lduLduBase.H:339] 
Statistics:
	Time per iteration: 359 [mu s]
	Time per residual norm calculation: 131.000000 [mu s]
	Time per iteration and DOF: 0.359000 [ns]
	Retrieve results bandwidth 2.247000 [GByte/s]
[OGL LOG][Proc: 0]p: solve_multi_gpu: 288.456 [ms]
nonehipGKOCG:  Solving for p, Initial residual = 0.731052, Final residual = 6.41066e-05, No Iterations 793
[INFO] SolveP: 291.249 [ms]
time step continuity errors : sum local = 1.81771e-08, global = 4.98958e-23, cumulative = 5.41552e-21
[INFO] ContinuityError: 2.289 [ms]
[INFO] CorrectBoundary: 0.491 [ms]
[INFO] PISOStep: 318.988 [ms]
[INFO] TimeStep: 2368.81 [ms]
ExecutionTime = 2.66 s  ClockTime = 3 s

Time = 0.001

Courant Number mean: 0.0215341 max: 0.377097
[INFO] MatrixAssemblyU: 9.54 [ms]
DILUPBiCGStab:  Solving for Ux, Initial residual = 0.150351, Final residual = 0.00113128, No Iterations 5
DILUPBiCGStab:  Solving for Uy, Initial residual = 0.368162, Final residual = 0.00224403, No Iterations 5
DILUPBiCGStab:  Solving for Uz, Initial residual = 0.988644, Final residual = 0.00605777, No Iterations 5
[INFO] MomentumPredictor: 113.664 [ms]
[INFO] MatrixAssemblyPI: 10.954 [ms]
[INFO] AdjustPhi: 2.153 [ms]
[INFO] ConstrainPressure: 0.003 [ms]
[INFO] MatrixAssemblyPII: 3.37 [ms]
[OGL LOG][Proc: 0]: global_index_init: 0.053 [ms]
[OGL LOG][Proc: 0]p_local_coeffs: call_update: 0 [ms]
[OGL LOG][Proc: 0]p_non_local_coeffs: call_update: 0 [ms]
[OGL LOG][Proc: 0]p: update_local_matrix_data: 2.061 [ms]
[OGL LOG][Proc: 0]p: update_non_local_matrix_data: 0.052 [ms]
[OGL LOG][Proc: 0]p_matrix: call_update: 1.746 [ms]
[OGL LOG][Proc: 0]p_rhs: call_update: 0.426 [ms]
[OGL LOG][Proc: 0]p: init_precond: 0.045 [ms]
[OGL LOG][StoppingCriterion.H:372] Creating stopping criterion with minIter 475 frequency 12
[OGL LOG][Proc: 0]p: generate_solver: 0.004 [ms]
[OGL LOG][Proc: 0]p: solve: 270.254 [ms]
[OGL LOG][Proc: 0]p: copy_x_back: 0.434 [ms]
[OGL LOG][lduLduBase.H:339] 
Statistics:
	Time per iteration: 346 [mu s]
	Time per residual norm calculation: 137.000000 [mu s]
	Time per iteration and DOF: 0.346000 [ns]
	Retrieve results bandwidth 2.304000 [GByte/s]
[OGL LOG][Proc: 0]p: solve_multi_gpu: 273.102 [ms]
nonehipGKOCG:  Solving for p, Initial residual = 0.690599, Final residual = 7.50317e-05, No Iterations 781
[INFO] SolveP: 275.893 [ms]
time step continuity errors : sum local = 2.38056e-08, global = -1.37591e-21, cumulative = 4.03961e-21
[INFO] ContinuityError: 1.769 [ms]
[INFO] CorrectBoundary: 0.059 [ms]
[INFO] PISOStep: 299.81 [ms]
[INFO] MatrixAssemblyPI: 11.339 [ms]
[INFO] AdjustPhi: 0.954 [ms]
[INFO] ConstrainPressure: 0.003 [ms]
[INFO] MatrixAssemblyPII: 3.922 [ms]
[OGL LOG][Proc: 0]: global_index_init: 0.042 [ms]
[OGL LOG][Proc: 0]p_local_coeffs: call_update: 0 [ms]
[OGL LOG][Proc: 0]p_non_local_coeffs: call_update: 0 [ms]
[OGL LOG][Proc: 0]p: update_local_matrix_data: 1.483 [ms]
[OGL LOG][Proc: 0]p: update_non_local_matrix_data: 0.036 [ms]
[OGL LOG][Proc: 0]p_matrix: call_update: 2.403 [ms]
[OGL LOG][Proc: 0]p_rhs: call_update: 0.135 [ms]
[OGL LOG][Proc: 0]p: init_precond: 0.041 [ms]
[OGL LOG][StoppingCriterion.H:372] Creating stopping criterion with minIter 468 frequency 12
[OGL LOG][Proc: 0]p: generate_solver: 0.004 [ms]
[OGL LOG][Proc: 0]p: solve: 281.714 [ms]
[OGL LOG][Proc: 0]p: copy_x_back: 0.344 [ms]
[OGL LOG][lduLduBase.H:339] 
Statistics:
	Time per iteration: 360 [mu s]
	Time per residual norm calculation: 132.000000 [mu s]
	Time per iteration and DOF: 0.360000 [ns]
	Retrieve results bandwidth 2.906000 [GByte/s]
[OGL LOG][Proc: 0]p: solve_multi_gpu: 284.827 [ms]
nonehipGKOCG:  Solving for p, Initial residual = 0.619771, Final residual = 6.6896e-05, No Iterations 781
[INFO] SolveP: 287.114 [ms]
time step continuity errors : sum local = 2.16474e-08, global = 9.22284e-21, cumulative = 1.32625e-20
[INFO] ContinuityError: 2.712 [ms]
[INFO] CorrectBoundary: 0.193 [ms]
[INFO] PISOStep: 311.441 [ms]
[INFO] TimeStep: 736.251 [ms]
ExecutionTime = 3.39 s  ClockTime = 4 s

Time = 0.0015

Courant Number mean: 0.0324926 max: 0.441243
[INFO] MatrixAssemblyU: 8.31 [ms]
DILUPBiCGStab:  Solving for Ux, Initial residual = 0.0531065, Final residual = 0.000326428, No Iterations 5
DILUPBiCGStab:  Solving for Uy, Initial residual = 0.12468, Final residual = 0.000558074, No Iterations 5
DILUPBiCGStab:  Solving for Uz, Initial residual = 0.57536, Final residual = 0.00311827, No Iterations 5
[INFO] MomentumPredictor: 114.235 [ms]
[INFO] MatrixAssemblyPI: 11.265 [ms]
[INFO] AdjustPhi: 1.489 [ms]
[INFO] ConstrainPressure: 0.003 [ms]
[INFO] MatrixAssemblyPII: 3.37 [ms]
[OGL LOG][Proc: 0]: global_index_init: 0.04 [ms]
[OGL LOG][Proc: 0]p_local_coeffs: call_update: 0 [ms]
[OGL LOG][Proc: 0]p_non_local_coeffs: call_update: 0 [ms]
[OGL LOG][Proc: 0]p: update_local_matrix_data: 1.526 [ms]
[OGL LOG][Proc: 0]p: update_non_local_matrix_data: 0.037 [ms]
[OGL LOG][Proc: 0]p_matrix: call_update: 1.653 [ms]
[OGL LOG][Proc: 0]p_rhs: call_update: 0.903 [ms]
[OGL LOG][Proc: 0]p: init_precond: 0.042 [ms]
[OGL LOG][StoppingCriterion.H:372] Creating stopping criterion with minIter 468 frequency 12
[OGL LOG][Proc: 0]p: generate_solver: 0.005 [ms]
[OGL LOG][Proc: 0]p: solve: 263.829 [ms]
[OGL LOG][Proc: 0]p: copy_x_back: 0.442 [ms]
[OGL LOG][lduLduBase.H:339] 
Statistics:
	Time per iteration: 343 [mu s]
	Time per residual norm calculation: 136.000000 [mu s]
	Time per iteration and DOF: 0.343000 [ns]
	Retrieve results bandwidth 2.262000 [GByte/s]
[OGL LOG][Proc: 0]p: solve_multi_gpu: 267.086 [ms]
nonehipGKOCG:  Solving for p, Initial residual = 0.632493, Final residual = 9.57617e-05, No Iterations 769
[INFO] SolveP: 269.296 [ms]
time step continuity errors : sum local = 2.1933e-08, global = 5.07902e-22, cumulative = 1.37704e-20
[INFO] ContinuityError: 2.971 [ms]
[INFO] CorrectBoundary: 0.061 [ms]
[INFO] PISOStep: 293.431 [ms]
[INFO] MatrixAssemblyPI: 12.346 [ms]
[INFO] AdjustPhi: 0.526 [ms]
[INFO] ConstrainPressure: 0.003 [ms]
[INFO] MatrixAssemblyPII: 3.576 [ms]
[OGL LOG][Proc: 0]: global_index_init: 0.044 [ms]
[OGL LOG][Proc: 0]p_local_coeffs: call_update: 0 [ms]
[OGL LOG][Proc: 0]p_non_local_coeffs: call_update: 0 [ms]
[OGL LOG][Proc: 0]p: update_local_matrix_data: 2.079 [ms]
[OGL LOG][Proc: 0]p: update_non_local_matrix_data: 0.049 [ms]
[OGL LOG][Proc: 0]p_matrix: call_update: 1.779 [ms]
[OGL LOG][Proc: 0]p_rhs: call_update: 0.192 [ms]
[OGL LOG][Proc: 0]p: init_precond: 0.043 [ms]
[OGL LOG][StoppingCriterion.H:372] Creating stopping criterion with minIter 461 frequency 12
[OGL LOG][Proc: 0]p: generate_solver: 0.004 [ms]
[OGL LOG][Proc: 0]p: solve: 254.109 [ms]
[OGL LOG][Proc: 0]p: copy_x_back: 0.345 [ms]
[OGL LOG][lduLduBase.H:339] 
Statistics:
	Time per iteration: 330 [mu s]
	Time per residual norm calculation: 130.000000 [mu s]
	Time per iteration and DOF: 0.330000 [ns]
	Retrieve results bandwidth 2.898000 [GByte/s]
[OGL LOG][Proc: 0]p: solve_multi_gpu: 256.657 [ms]
nonehipGKOCG:  Solving for p, Initial residual = 0.579905, Final residual = 8.18046e-05, No Iterations 769
[INFO] SolveP: 259.446 [ms]
time step continuity errors : sum local = 1.82397e-08, global = 6.13923e-21, cumulative = 1.99096e-20
[INFO] ContinuityError: 1.799 [ms]
[INFO] CorrectBoundary: 0.072 [ms]
[INFO] PISOStep: 282.213 [ms]
[INFO] TimeStep: 700.077 [ms]
ExecutionTime = 4.09 s  ClockTime = 4 s

Time = 0.002

Courant Number mean: 0.0388942 max: 0.452946
[INFO] MatrixAssemblyU: 8.29 [ms]
DILUPBiCGStab:  Solving for Ux, Initial residual = 0.0318966, Final residual = 0.000167512, No Iterations 5
DILUPBiCGStab:  Solving for Uy, Initial residual = 0.0813674, Final residual = 0.000384956, No Iterations 5
DILUPBiCGStab:  Solving for Uz, Initial residual = 0.27382, Final residual = 0.0011812, No Iterations 5
[INFO] MomentumPredictor: 118.541 [ms]
[INFO] MatrixAssemblyPI: 11.442 [ms]
[INFO] AdjustPhi: 2.082 [ms]
[INFO] ConstrainPressure: 0.003 [ms]
[INFO] MatrixAssemblyPII: 3.339 [ms]
[OGL LOG][Proc: 0]: global_index_init: 0.063 [ms]
[OGL LOG][Proc: 0]p_local_coeffs: call_update: 0 [ms]
[OGL LOG][Proc: 0]p_non_local_coeffs: call_update: 0 [ms]
[OGL LOG][Proc: 0]p: update_local_matrix_data: 1.481 [ms]
[OGL LOG][Proc: 0]p: update_non_local_matrix_data: 0.059 [ms]
[OGL LOG][Proc: 0]p_matrix: call_update: 1.774 [ms]
[OGL LOG][Proc: 0]p_rhs: call_update: 0.852 [ms]
[OGL LOG][Proc: 0]p: init_precond: 0.043 [ms]
[OGL LOG][StoppingCriterion.H:372] Creating stopping criterion with minIter 461 frequency 12
[OGL LOG][Proc: 0]p: generate_solver: 0.004 [ms]
[OGL LOG][Proc: 0]p: solve: 274.05 [ms]
[OGL LOG][Proc: 0]p: copy_x_back: 0.35 [ms]
[OGL LOG][lduLduBase.H:339] 
Statistics:
	Time per iteration: 356 [mu s]
	Time per residual norm calculation: 132.000000 [mu s]
	Time per iteration and DOF: 0.356000 [ns]
	Retrieve results bandwidth 2.857000 [GByte/s]
[OGL LOG][Proc: 0]p: solve_multi_gpu: 277.26 [ms]
nonehipGKOCG:  Solving for p, Initial residual = 0.412404, Final residual = 5.55181e-05, No Iterations 769
[INFO] SolveP: 279.557 [ms]
time step continuity errors : sum local = 1.0856e-08, global = -5.62923e-21, cumulative = 1.42804e-20
[INFO] ContinuityError: 2.83 [ms]
[INFO] CorrectBoundary: 0.422 [ms]
[INFO] PISOStep: 304.621 [ms]
[INFO] MatrixAssemblyPI: 16.594 [ms]
[INFO] AdjustPhi: 0.556 [ms]
[INFO] ConstrainPressure: 0.002 [ms]
[INFO] MatrixAssemblyPII: 3.81 [ms]
[OGL LOG][Proc: 0]: global_index_init: 0.033 [ms]
[OGL LOG][Proc: 0]p_local_coeffs: call_update: 0 [ms]
[OGL LOG][Proc: 0]p_non_local_coeffs: call_update: 0 [ms]
[OGL LOG][Proc: 0]p: update_local_matrix_data: 1.522 [ms]
[OGL LOG][Proc: 0]p: update_non_local_matrix_data: 0.038 [ms]
[OGL LOG][Proc: 0]p_matrix: call_update: 2.202 [ms]
[OGL LOG][Proc: 0]p_rhs: call_update: 0.242 [ms]
[OGL LOG][Proc: 0]p: init_precond: 0.042 [ms]
[OGL LOG][StoppingCriterion.H:372] Creating stopping criterion with minIter 461 frequency 12
[OGL LOG][Proc: 0]p: generate_solver: 0.004 [ms]
[OGL LOG][Proc: 0]p: solve: 270.632 [ms]
[OGL LOG][Proc: 0]p: copy_x_back: 0.445 [ms]
[OGL LOG][lduLduBase.H:339] 
Statistics:
	Time per iteration: 351 [mu s]
	Time per residual norm calculation: 135.000000 [mu s]
	Time per iteration and DOF: 0.351000 [ns]
	Retrieve results bandwidth 2.247000 [GByte/s]
[OGL LOG][Proc: 0]p: solve_multi_gpu: 273.754 [ms]
nonehipGKOCG:  Solving for p, Initial residual = 0.350521, Final residual = 4.64608e-05, No Iterations 769
[INFO] SolveP: 275.987 [ms]
time step continuity errors : sum local = 9.17547e-09, global = -1.82768e-21, cumulative = 1.24527e-20
[INFO] ContinuityError: 2.442 [ms]
[INFO] CorrectBoundary: 0.517 [ms]
[INFO] PISOStep: 304.177 [ms]
[INFO] TimeStep: 737.449 [ms]
ExecutionTime = 4.83 s  ClockTime = 5 s

Time = 0.0025

Courant Number mean: 0.043947 max: 0.459624
[INFO] MatrixAssemblyU: 8.589 [ms]
DILUPBiCGStab:  Solving for Ux, Initial residual = 0.0235041, Final residual = 0.000104802, No Iterations 5
DILUPBiCGStab:  Solving for Uy, Initial residual = 0.0515221, Final residual = 0.000235043, No Iterations 5
DILUPBiCGStab:  Solving for Uz, Initial residual = 0.0980594, Final residual = 0.00047919, No Iterations 5
[INFO] MomentumPredictor: 113.478 [ms]
[INFO] MatrixAssemblyPI: 10.82 [ms]
[INFO] AdjustPhi: 1.068 [ms]
[INFO] ConstrainPressure: 0.003 [ms]
[INFO] MatrixAssemblyPII: 3.316 [ms]
[OGL LOG][Proc: 0]: global_index_init: 0.044 [ms]
[OGL LOG][Proc: 0]p_local_coeffs: call_update: 0 [ms]
[OGL LOG][Proc: 0]p_non_local_coeffs: call_update: 0 [ms]
[OGL LOG][Proc: 0]p: update_local_matrix_data: 1.549 [ms]
[OGL LOG][Proc: 0]p: update_non_local_matrix_data: 0.037 [ms]
[OGL LOG][Proc: 0]p_matrix: call_update: 1.789 [ms]
[OGL LOG][Proc: 0]p_rhs: call_update: 0.832 [ms]
[OGL LOG][Proc: 0]p: init_precond: 0.042 [ms]
[OGL LOG][StoppingCriterion.H:372] Creating stopping criterion with minIter 461 frequency 12
[OGL LOG][Proc: 0]p: generate_solver: 0.004 [ms]
[OGL LOG][Proc: 0]p: solve: 241.709 [ms]
[OGL LOG][Proc: 0]p: copy_x_back: 0.35 [ms]
[OGL LOG][lduLduBase.H:339] 
Statistics:
	Time per iteration: 329 [mu s]
	Time per residual norm calculation: 136.000000 [mu s]
	Time per iteration and DOF: 0.329000 [ns]
	Retrieve results bandwidth 2.857000 [GByte/s]
[OGL LOG][Proc: 0]p: solve_multi_gpu: 244.907 [ms]
nonehipGKOCG:  Solving for p, Initial residual = 0.314741, Final residual = 8.11798e-05, No Iterations 733
[INFO] SolveP: 247.271 [ms]
time step continuity errors : sum local = 1.31084e-08, global = 1.96934e-22, cumulative = 1.26496e-20
[INFO] ContinuityError: 1.686 [ms]
[INFO] CorrectBoundary: 0.068 [ms]
[INFO] PISOStep: 268.869 [ms]
[INFO] MatrixAssemblyPI: 10.295 [ms]
[INFO] AdjustPhi: 1.264 [ms]
[INFO] ConstrainPressure: 0.003 [ms]
[INFO] MatrixAssemblyPII: 3.425 [ms]
[OGL LOG][Proc: 0]: global_index_init: 0.036 [ms]
[OGL LOG][Proc: 0]p_local_coeffs: call_update: 0 [ms]
[OGL LOG][Proc: 0]p_non_local_coeffs: call_update: 0 [ms]
[OGL LOG][Proc: 0]p: update_local_matrix_data: 1.438 [ms]
[OGL LOG][Proc: 0]p: update_non_local_matrix_data: 0.039 [ms]
[OGL LOG][Proc: 0]p_matrix: call_update: 2.006 [ms]
[OGL LOG][Proc: 0]p_rhs: call_update: 0.75 [ms]
[OGL LOG][Proc: 0]p: init_precond: 0.044 [ms]
[OGL LOG][StoppingCriterion.H:372] Creating stopping criterion with minIter 439 frequency 12
[OGL LOG][Proc: 0]p: generate_solver: 0.004 [ms]
[OGL LOG][Proc: 0]p: solve: 249.108 [ms]
[OGL LOG][Proc: 0]p: copy_x_back: 0.359 [ms]
[OGL LOG][lduLduBase.H:339] 
Statistics:
	Time per iteration: 339 [mu s]
	Time per residual norm calculation: 135.000000 [mu s]
	Time per iteration and DOF: 0.339000 [ns]
	Retrieve results bandwidth 2.785000 [GByte/s]
[OGL LOG][Proc: 0]p: solve_multi_gpu: 252.485 [ms]
nonehipGKOCG:  Solving for p, Initial residual = 0.26924, Final residual = 7.39852e-05, No Iterations 733
[INFO] SolveP: 254.632 [ms]
time step continuity errors : sum local = 1.18583e-08, global = -6.46011e-21, cumulative = 6.18949e-21
[INFO] ContinuityError: 1.906 [ms]
[INFO] CorrectBoundary: 0.062 [ms]
[INFO] PISOStep: 277.425 [ms]
[INFO] TimeStep: 670.293 [ms]
ExecutionTime = 5.49 s  ClockTime = 6 s

Time = 0.003

Courant Number mean: 0.047987 max: 0.463865
[INFO] MatrixAssemblyU: 9.026 [ms]
DILUPBiCGStab:  Solving for Ux, Initial residual = 0.0178881, Final residual = 7.93731e-05, No Iterations 5
DILUPBiCGStab:  Solving for Uy, Initial residual = 0.0401303, Final residual = 0.000115984, No Iterations 5
DILUPBiCGStab:  Solving for Uz, Initial residual = 0.0851, Final residual = 0.00039923, No Iterations 5
[INFO] MomentumPredictor: 108.006 [ms]
[INFO] MatrixAssemblyPI: 11.283 [ms]
[INFO] AdjustPhi: 0.808 [ms]
[INFO] ConstrainPressure: 0.003 [ms]
[INFO] MatrixAssemblyPII: 3.381 [ms]
[OGL LOG][Proc: 0]: global_index_init: 0.076 [ms]
[OGL LOG][Proc: 0]p_local_coeffs: call_update: 0 [ms]
[OGL LOG][Proc: 0]p_non_local_coeffs: call_update: 0 [ms]
[OGL LOG][Proc: 0]p: update_local_matrix_data: 2.074 [ms]
[OGL LOG][Proc: 0]p: update_non_local_matrix_data: 0.05 [ms]
[OGL LOG][Proc: 0]p_matrix: call_update: 1.855 [ms]
[OGL LOG][Proc: 0]p_rhs: call_update: 0.198 [ms]
[OGL LOG][Proc: 0]p: init_precond: 0.045 [ms]
[OGL LOG][StoppingCriterion.H:372] Creating stopping criterion with minIter 439 frequency 12
[OGL LOG][Proc: 0]p: generate_solver: 0.004 [ms]
[OGL LOG][Proc: 0]p: solve: 258.993 [ms]
[OGL LOG][Proc: 0]p: copy_x_back: 0.354 [ms]
[OGL LOG][lduLduBase.H:339] 
Statistics:
	Time per iteration: 359 [mu s]
	Time per residual norm calculation: 137.000000 [mu s]
	Time per iteration and DOF: 0.359000 [ns]
	Retrieve results bandwidth 2.824000 [GByte/s]
[OGL LOG][Proc: 0]p: solve_multi_gpu: 261.633 [ms]
nonehipGKOCG:  Solving for p, Initial residual = 0.19687, Final residual = 9.96432e-05, No Iterations 721
[INFO] SolveP: 264.449 [ms]
time step continuity errors : sum local = 1.5538e-08, global = 3.93469e-21, cumulative = 1.01242e-20
[INFO] ContinuityError: 3.734 [ms]
[INFO] CorrectBoundary: 1.402 [ms]
[INFO] PISOStep: 289.59 [ms]
[INFO] MatrixAssemblyPI: 11.154 [ms]
[INFO] AdjustPhi: 2.172 [ms]
[INFO] ConstrainPressure: 0.003 [ms]
[INFO] MatrixAssemblyPII: 3.499 [ms]
[OGL LOG][Proc: 0]: global_index_init: 0.037 [ms]
[OGL LOG][Proc: 0]p_local_coeffs: call_update: 0 [ms]
[OGL LOG][Proc: 0]p_non_local_coeffs: call_update: 0 [ms]
[OGL LOG][Proc: 0]p: update_local_matrix_data: 1.467 [ms]
[OGL LOG][Proc: 0]p: update_non_local_matrix_data: 0.037 [ms]
[OGL LOG][Proc: 0]p_matrix: call_update: 1.807 [ms]
[OGL LOG][Proc: 0]p_rhs: call_update: 0.974 [ms]
[OGL LOG][Proc: 0]p: init_precond: 0.044 [ms]
[OGL LOG][StoppingCriterion.H:372] Creating stopping criterion with minIter 432 frequency 12
[OGL LOG][Proc: 0]p: generate_solver: 0.004 [ms]
[OGL LOG][Proc: 0]p: solve: 241.026 [ms]
[OGL LOG][Proc: 0]p: copy_x_back: 0.348 [ms]
[OGL LOG][lduLduBase.H:339] 
Statistics:
	Time per iteration: 334 [mu s]
	Time per residual norm calculation: 131.000000 [mu s]
	Time per iteration and DOF: 0.334000 [ns]
	Retrieve results bandwidth 2.873000 [GByte/s]
[OGL LOG][Proc: 0]p: solve_multi_gpu: 244.396 [ms]
nonehipGKOCG:  Solving for p, Initial residual = 0.163639, Final residual = 8.69379e-05, No Iterations 721
[INFO] SolveP: 246.564 [ms]
time step continuity errors : sum local = 1.35698e-08, global = 9.77792e-22, cumulative = 1.1102e-20
[INFO] ContinuityError: 1.8 [ms]
[INFO] CorrectBoundary: 0.061 [ms]
[INFO] PISOStep: 269.804 [ms]
[INFO] TimeStep: 678.233 [ms]
ExecutionTime = 6.17 s  ClockTime = 6 s

Time = 0.0035

Courant Number mean: 0.0513959 max: 0.466746
[INFO] MatrixAssemblyU: 8.217 [ms]
DILUPBiCGStab:  Solving for Ux, Initial residual = 0.0146333, Final residual = 5.75428e-05, No Iterations 5
DILUPBiCGStab:  Solving for Uy, Initial residual = 0.0317655, Final residual = 9.93793e-05, No Iterations 5
DILUPBiCGStab:  Solving for Uz, Initial residual = 0.0565437, Final residual = 0.000245691, No Iterations 5
[INFO] MomentumPredictor: 112.564 [ms]
[INFO] MatrixAssemblyPI: 11.586 [ms]
[INFO] AdjustPhi: 2.014 [ms]
[INFO] ConstrainPressure: 0.003 [ms]
[INFO] MatrixAssemblyPII: 3.342 [ms]
[OGL LOG][Proc: 0]: global_index_init: 0.047 [ms]
[OGL LOG][Proc: 0]p_local_coeffs: call_update: 0 [ms]
[OGL LOG][Proc: 0]p_non_local_coeffs: call_update: 0 [ms]
[OGL LOG][Proc: 0]p: update_local_matrix_data: 1.503 [ms]
[OGL LOG][Proc: 0]p: update_non_local_matrix_data: 0.036 [ms]
[OGL LOG][Proc: 0]p_matrix: call_update: 1.698 [ms]
[OGL LOG][Proc: 0]p_rhs: call_update: 5.357 [ms]
[OGL LOG][Proc: 0]p: init_precond: 0.043 [ms]
[OGL LOG][StoppingCriterion.H:372] Creating stopping criterion with minIter 432 frequency 12
[OGL LOG][Proc: 0]p: generate_solver: 0.004 [ms]
[OGL LOG][Proc: 0]p: solve: 155.334 [ms]
[OGL LOG][Proc: 0]p: copy_x_back: 0.435 [ms]
[OGL LOG][lduLduBase.H:339] 
Statistics:
	Time per iteration: 339 [mu s]
	Time per residual norm calculation: 136.000000 [mu s]
	Time per iteration and DOF: 0.339000 [ns]
	Retrieve results bandwidth 2.298000 [GByte/s]
[OGL LOG][Proc: 0]p: solve_multi_gpu: 163.073 [ms]
nonehipGKOCG:  Solving for p, Initial residual = 0.139414, Final residual = 9.51071e-05, No Iterations 457
[INFO] SolveP: 165.288 [ms]
time step continuity errors : sum local = 1.53859e-08, global = 5.50054e-21, cumulative = 1.66025e-20
[INFO] ContinuityError: 1.901 [ms]
[INFO] CorrectBoundary: 0.064 [ms]
[INFO] PISOStep: 190.204 [ms]
[INFO] MatrixAssemblyPI: 11.364 [ms]
[INFO] AdjustPhi: 0.591 [ms]
[INFO] ConstrainPressure: 0.003 [ms]
[INFO] MatrixAssemblyPII: 3.913 [ms]
[OGL LOG][Proc: 0]: global_index_init: 0.064 [ms]
[OGL LOG][Proc: 0]p_local_coeffs: call_update: 0 [ms]
[OGL LOG][Proc: 0]p_non_local_coeffs: call_update: 0 [ms]
[OGL LOG][Proc: 0]p: update_local_matrix_data: 1.564 [ms]
[OGL LOG][Proc: 0]p: update_non_local_matrix_data: 0.037 [ms]
[OGL LOG][Proc: 0]p_matrix: call_update: 2.348 [ms]
[OGL LOG][Proc: 0]p_rhs: call_update: 0.13 [ms]
[OGL LOG][Proc: 0]p: init_precond: 0.054 [ms]
[OGL LOG][StoppingCriterion.H:372] Creating stopping criterion with minIter 274 frequency 9
[OGL LOG][Proc: 0]p: generate_solver: 0.005 [ms]
[OGL LOG][Proc: 0]p: solve: 113.356 [ms]
[OGL LOG][Proc: 0]p: copy_x_back: 0.35 [ms]
[OGL LOG][lduLduBase.H:339] 
Statistics:
	Time per iteration: 339 [mu s]
	Time per residual norm calculation: 132.000000 [mu s]
	Time per iteration and DOF: 0.339000 [ns]
	Retrieve results bandwidth 2.857000 [GByte/s]
[OGL LOG][Proc: 0]p: solve_multi_gpu: 116.423 [ms]
nonehipGKOCG:  Solving for p, Initial residual = 0.116529, Final residual = 9.24071e-05, No Iterations 334
[INFO] SolveP: 118.727 [ms]
time step continuity errors : sum local = 1.40626e-08, global = -2.5017e-21, cumulative = 1.41008e-20
[INFO] ContinuityError: 1.774 [ms]
[INFO] CorrectBoundary: 0.068 [ms]
[INFO] PISOStep: 140.91 [ms]
[INFO] TimeStep: 453.713 [ms]
ExecutionTime = 6.61 s  ClockTime = 7 s

Time = 0.004

Courant Number mean: 0.0543347 max: 0.468955
[INFO] MatrixAssemblyU: 8.323 [ms]
DILUPBiCGStab:  Solving for Ux, Initial residual = 0.0122755, Final residual = 4.51125e-05, No Iterations 5
DILUPBiCGStab:  Solving for Uy, Initial residual = 0.0265301, Final residual = 6.38606e-05, No Iterations 5
DILUPBiCGStab:  Solving for Uz, Initial residual = 0.05116, Final residual = 0.000171462, No Iterations 5
[INFO] MomentumPredictor: 113.16 [ms]
[INFO] MatrixAssemblyPI: 10.862 [ms]
[INFO] AdjustPhi: 1.172 [ms]
[INFO] ConstrainPressure: 0.003 [ms]
[INFO] MatrixAssemblyPII: 3.32 [ms]
[OGL LOG][Proc: 0]: global_index_init: 0.069 [ms]
[OGL LOG][Proc: 0]p_local_coeffs: call_update: 0 [ms]
[OGL LOG][Proc: 0]p_non_local_coeffs: call_update: 0 [ms]
[OGL LOG][Proc: 0]p: update_local_matrix_data: 1.523 [ms]
[OGL LOG][Proc: 0]p: update_non_local_matrix_data: 0.035 [ms]
[OGL LOG][Proc: 0]p_matrix: call_update: 1.706 [ms]
[OGL LOG][Proc: 0]p_rhs: call_update: 0.9 [ms]
[OGL LOG][Proc: 0]p: init_precond: 0.041 [ms]
[OGL LOG][StoppingCriterion.H:372] Creating stopping criterion with minIter 200 frequency 8
[OGL LOG][Proc: 0]p: generate_solver: 0.004 [ms]
[OGL LOG][Proc: 0]p: solve: 111.701 [ms]
[OGL LOG][Proc: 0]p: copy_x_back: 0.349 [ms]
[OGL LOG][lduLduBase.H:339] 
Statistics:
	Time per iteration: 339 [mu s]
	Time per residual norm calculation: 137.000000 [mu s]
	Time per iteration and DOF: 0.339000 [ns]
	Retrieve results bandwidth 2.865000 [GByte/s]
[OGL LOG][Proc: 0]p: solve_multi_gpu: 114.887 [ms]
nonehipGKOCG:  Solving for p, Initial residual = 0.0908162, Final residual = 8.57521e-05, No Iterations 329
[INFO] SolveP: 117.106 [ms]
time step continuity errors : sum local = 1.24779e-08, global = -4.73685e-21, cumulative = 9.36397e-21
[INFO] ContinuityError: 1.718 [ms]
[INFO] CorrectBoundary: 0.064 [ms]
[INFO] PISOStep: 139.199 [ms]
[INFO] MatrixAssemblyPI: 10.339 [ms]
[INFO] AdjustPhi: 1.296 [ms]
[INFO] ConstrainPressure: 0.003 [ms]
[INFO] MatrixAssemblyPII: 3.437 [ms]
[OGL LOG][Proc: 0]: global_index_init: 0.048 [ms]
[OGL LOG][Proc: 0]p_local_coeffs: call_update: 0 [ms]
[OGL LOG][Proc: 0]p_non_local_coeffs: call_update: 0 [ms]
[OGL LOG][Proc: 0]p: update_local_matrix_data: 1.449 [ms]
[OGL LOG][Proc: 0]p: update_non_local_matrix_data: 0.038 [ms]
[OGL LOG][Proc: 0]p_matrix: call_update: 2.037 [ms]
[OGL LOG][Proc: 0]p_rhs: call_update: 0.761 [ms]
[OGL LOG][Proc: 0]p: init_precond: 0.043 [ms]
[OGL LOG][StoppingCriterion.H:372] Creating stopping criterion with minIter 197 frequency 8
[OGL LOG][Proc: 0]p: generate_solver: 0.005 [ms]
[OGL LOG][Proc: 0]p: solve: 110.102 [ms]
[OGL LOG][Proc: 0]p: copy_x_back: 0.351 [ms]
[OGL LOG][lduLduBase.H:339] 
Statistics:
	Time per iteration: 342 [mu s]
	Time per residual norm calculation: 135.000000 [mu s]
	Time per iteration and DOF: 0.342000 [ns]
	Retrieve results bandwidth 2.849000 [GByte/s]
[OGL LOG][Proc: 0]p: solve_multi_gpu: 113.474 [ms]
nonehipGKOCG:  Solving for p, Initial residual = 0.0750981, Final residual = 9.72747e-05, No Iterations 321
[INFO] SolveP: 115.631 [ms]
time step continuity errors : sum local = 1.41494e-08, global = 1.41805e-21, cumulative = 1.0782e-20
[INFO] ContinuityError: 2.006 [ms]
[INFO] CorrectBoundary: 0.072 [ms]
[INFO] PISOStep: 137.532 [ms]
[INFO] TimeStep: 399.986 [ms]
ExecutionTime = 7.01 s  ClockTime = 7 s

Time = 0.0045

Courant Number mean: 0.0569118 max: 0.470657
[INFO] MatrixAssemblyU: 8.264 [ms]
DILUPBiCGStab:  Solving for Ux, Initial residual = 0.0105282, Final residual = 3.57231e-05, No Iterations 5
DILUPBiCGStab:  Solving for Uy, Initial residual = 0.0226785, Final residual = 5.87482e-05, No Iterations 5
DILUPBiCGStab:  Solving for Uz, Initial residual = 0.0428268, Final residual = 0.000125569, No Iterations 5
[INFO] MomentumPredictor: 107.719 [ms]
[INFO] MatrixAssemblyPI: 10.795 [ms]
[INFO] AdjustPhi: 0.714 [ms]
[INFO] ConstrainPressure: 0.003 [ms]
[INFO] MatrixAssemblyPII: 3.221 [ms]
[OGL LOG][Proc: 0]: global_index_init: 0.04 [ms]
[OGL LOG][Proc: 0]p_local_coeffs: call_update: 0 [ms]
[OGL LOG][Proc: 0]p_non_local_coeffs: call_update: 0 [ms]
[OGL LOG][Proc: 0]p: update_local_matrix_data: 1.431 [ms]
[OGL LOG][Proc: 0]p: update_non_local_matrix_data: 0.036 [ms]
[OGL LOG][Proc: 0]p_matrix: call_update: 1.796 [ms]
[OGL LOG][Proc: 0]p_rhs: call_update: 0.803 [ms]
[OGL LOG][Proc: 0]p: init_precond: 0.041 [ms]
[OGL LOG][StoppingCriterion.H:372] Creating stopping criterion with minIter 192 frequency 8
[OGL LOG][Proc: 0]p: generate_solver: 0.004 [ms]
[OGL LOG][Proc: 0]p: solve: 112.929 [ms]
[OGL LOG][Proc: 0]p: copy_x_back: 0.347 [ms]
[OGL LOG][lduLduBase.H:339] 
Statistics:
	Time per iteration: 343 [mu s]
	Time per residual norm calculation: 138.000000 [mu s]
	Time per iteration and DOF: 0.343000 [ns]
	Retrieve results bandwidth 2.881000 [GByte/s]
[OGL LOG][Proc: 0]p: solve_multi_gpu: 116.096 [ms]
nonehipGKOCG:  Solving for p, Initial residual = 0.066731, Final residual = 9.62542e-05, No Iterations 329
[INFO] SolveP: 118.235 [ms]
time step continuity errors : sum local = 1.54548e-08, global = -1.81566e-21, cumulative = 8.96635e-21
[INFO] ContinuityError: 1.679 [ms]
[INFO] CorrectBoundary: 0.065 [ms]
[INFO] PISOStep: 139.813 [ms]
[INFO] MatrixAssemblyPI: 10.372 [ms]
[INFO] AdjustPhi: 1.316 [ms]
[INFO] ConstrainPressure: 0.003 [ms]
[INFO] MatrixAssemblyPII: 3.406 [ms]
[OGL LOG][Proc: 0]: global_index_init: 0.05 [ms]
[OGL LOG][Proc: 0]p_local_coeffs: call_update: 0 [ms]
[OGL LOG][Proc: 0]p_non_local_coeffs: call_update: 0 [ms]
[OGL LOG][Proc: 0]p: update_local_matrix_data: 1.474 [ms]
[OGL LOG][Proc: 0]p: update_non_local_matrix_data: 0.036 [ms]
[OGL LOG][Proc: 0]p_matrix: call_update: 2.026 [ms]
[OGL LOG][Proc: 0]p_rhs: call_update: 0.501 [ms]
[OGL LOG][Proc: 0]p: init_precond: 0.041 [ms]
[OGL LOG][StoppingCriterion.H:372] Creating stopping criterion with minIter 197 frequency 8
[OGL LOG][Proc: 0]p: generate_solver: 0.004 [ms]
[OGL LOG][Proc: 0]p: solve: 109.971 [ms]
[OGL LOG][Proc: 0]p: copy_x_back: 0.347 [ms]
[OGL LOG][lduLduBase.H:339] 
Statistics:
	Time per iteration: 342 [mu s]
	Time per residual norm calculation: 134.000000 [mu s]
	Time per iteration and DOF: 0.342000 [ns]
	Retrieve results bandwidth 2.881000 [GByte/s]
[OGL LOG][Proc: 0]p: solve_multi_gpu: 113.069 [ms]
nonehipGKOCG:  Solving for p, Initial residual = 0.0556364, Final residual = 8.94245e-05, No Iterations 321
[INFO] SolveP: 115.251 [ms]
time step continuity errors : sum local = 1.33739e-08, global = -6.64226e-22, cumulative = 8.30213e-21
[INFO] ContinuityError: 2.012 [ms]
[INFO] CorrectBoundary: 0.065 [ms]
[INFO] PISOStep: 140.601 [ms]
[INFO] TimeStep: 398.262 [ms]
ExecutionTime = 7.4 s  ClockTime = 8 s

Time = 0.005

Courant Number mean: 0.0592067 max: 0.472052
[INFO] MatrixAssemblyU: 9.481 [ms]
DILUPBiCGStab:  Solving for Ux, Initial residual = 0.00921084, Final residual = 3.00597e-05, No Iterations 5
DILUPBiCGStab:  Solving for Uy, Initial residual = 0.0197464, Final residual = 4.4065e-05, No Iterations 5
DILUPBiCGStab:  Solving for Uz, Initial residual = 0.038074, Final residual = 0.000101756, No Iterations 5
[INFO] MomentumPredictor: 108.367 [ms]
[INFO] MatrixAssemblyPI: 10.968 [ms]
[INFO] AdjustPhi: 0.768 [ms]
[INFO] ConstrainPressure: 0.003 [ms]
[INFO] MatrixAssemblyPII: 3.376 [ms]
[OGL LOG][Proc: 0]: global_index_init: 0.055 [ms]
[OGL LOG][Proc: 0]p_local_coeffs: call_update: 0 [ms]
[OGL LOG][Proc: 0]p_non_local_coeffs: call_update: 0 [ms]
[OGL LOG][Proc: 0]p: update_local_matrix_data: 2.098 [ms]
[OGL LOG][Proc: 0]p: update_non_local_matrix_data: 0.05 [ms]
[OGL LOG][Proc: 0]p_matrix: call_update: 1.792 [ms]
[OGL LOG][Proc: 0]p_rhs: call_update: 0.171 [ms]
[OGL LOG][Proc: 0]p: init_precond: 0.044 [ms]
[OGL LOG][StoppingCriterion.H:372] Creating stopping criterion with minIter 192 frequency 8
[OGL LOG][Proc: 0]p: generate_solver: 0.005 [ms]
[OGL LOG][Proc: 0]p: solve: 121.672 [ms]
[OGL LOG][Proc: 0]p: copy_x_back: 0.344 [ms]
[OGL LOG][lduLduBase.H:339] 
Statistics:
	Time per iteration: 379 [mu s]
	Time per residual norm calculation: 129.000000 [mu s]
	Time per iteration and DOF: 0.379000 [ns]
	Retrieve results bandwidth 2.906000 [GByte/s]
[OGL LOG][Proc: 0]p: solve_multi_gpu: 124.213 [ms]
nonehipGKOCG:  Solving for p, Initial residual = 0.0446287, Final residual = 9.68069e-05, No Iterations 321
[INFO] SolveP: 127.042 [ms]
time step continuity errors : sum local = 1.43979e-08, global = -1.54424e-21, cumulative = 6.75788e-21
[INFO] ContinuityError: 2.73 [ms]
[INFO] CorrectBoundary: 0.063 [ms]
[INFO] PISOStep: 149.611 [ms]
[INFO] MatrixAssemblyPI: 11.109 [ms]
[INFO] AdjustPhi: 1.377 [ms]
[INFO] ConstrainPressure: 0.003 [ms]
[INFO] MatrixAssemblyPII: 3.354 [ms]
[OGL LOG][Proc: 0]: global_index_init: 0.047 [ms]
[OGL LOG][Proc: 0]p_local_coeffs: call_update: 0 [ms]
[OGL LOG][Proc: 0]p_non_local_coeffs: call_update: 0 [ms]
[OGL LOG][Proc: 0]p: update_local_matrix_data: 1.538 [ms]
[OGL LOG][Proc: 0]p: update_non_local_matrix_data: 0.035 [ms]
[OGL LOG][Proc: 0]p_matrix: call_update: 1.78 [ms]
[OGL LOG][Proc: 0]p_rhs: call_update: 0.778 [ms]
[OGL LOG][Proc: 0]p: init_precond: 0.043 [ms]
[OGL LOG][StoppingCriterion.H:372] Creating stopping criterion with minIter 192 frequency 8
[OGL LOG][Proc: 0]p: generate_solver: 0.004 [ms]
[OGL LOG][Proc: 0]p: solve: 108.898 [ms]
[OGL LOG][Proc: 0]p: copy_x_back: 0.345 [ms]
[OGL LOG][lduLduBase.H:339] 
Statistics:
	Time per iteration: 339 [mu s]
	Time per residual norm calculation: 132.000000 [mu s]
	Time per iteration and DOF: 0.339000 [ns]
	Retrieve results bandwidth 2.898000 [GByte/s]
[OGL LOG][Proc: 0]p: solve_multi_gpu: 112.034 [ms]
nonehipGKOCG:  Solving for p, Initial residual = 0.0376519, Final residual = 8.61435e-05, No Iterations 321
[INFO] SolveP: 114.266 [ms]
time step continuity errors : sum local = 1.22695e-08, global = -1.78919e-21, cumulative = 4.96869e-21
[INFO] ContinuityError: 1.948 [ms]
[INFO] CorrectBoundary: 0.067 [ms]
[INFO] PISOStep: 137.245 [ms]
[INFO] TimeStep: 407.018 [ms]
ExecutionTime = 7.81 s  ClockTime = 8 s

Time = 0.0055

Courant Number mean: 0.0612662 max: 0.473198
[INFO] MatrixAssemblyU: 8.152 [ms]
DILUPBiCGStab:  Solving for Ux, Initial residual = 0.00814019, Final residual = 2.51938e-05, No Iterations 5
DILUPBiCGStab:  Solving for Uy, Initial residual = 0.0174514, Final residual = 3.94683e-05, No Iterations 5
DILUPBiCGStab:  Solving for Uz, Initial residual = 0.0342816, Final residual = 8.60835e-05, No Iterations 5
[INFO] MomentumPredictor: 114.771 [ms]
[INFO] MatrixAssemblyPI: 10.871 [ms]
[INFO] AdjustPhi: 1.959 [ms]
[INFO] ConstrainPressure: 0.003 [ms]
[INFO] MatrixAssemblyPII: 3.264 [ms]
[OGL LOG][Proc: 0]: global_index_init: 0.048 [ms]
[OGL LOG][Proc: 0]p_local_coeffs: call_update: 0 [ms]
[OGL LOG][Proc: 0]p_non_local_coeffs: call_update: 0 [ms]
[OGL LOG][Proc: 0]p: update_local_matrix_data: 1.519 [ms]
[OGL LOG][Proc: 0]p: update_non_local_matrix_data: 0.038 [ms]
[OGL LOG][Proc: 0]p_matrix: call_update: 2.036 [ms]
[OGL LOG][Proc: 0]p_rhs: call_update: 0.546 [ms]
[OGL LOG][Proc: 0]p: init_precond: 0.04 [ms]
[OGL LOG][StoppingCriterion.H:372] Creating stopping criterion with minIter 192 frequency 8
[OGL LOG][Proc: 0]p: generate_solver: 0.004 [ms]
[OGL LOG][Proc: 0]p: solve: 241.264 [ms]
[OGL LOG][Proc: 0]p: copy_x_back: 0.345 [ms]
[OGL LOG][lduLduBase.H:339] 
Statistics:
	Time per iteration: 346 [mu s]
	Time per residual norm calculation: 130.000000 [mu s]
	Time per iteration and DOF: 0.346000 [ns]
	Retrieve results bandwidth 2.898000 [GByte/s]
[OGL LOG][Proc: 0]p: solve_multi_gpu: 244.422 [ms]
nonehipGKOCG:  Solving for p, Initial residual = 0.0350492, Final residual = 7.62776e-05, No Iterations 697
[INFO] SolveP: 246.618 [ms]
time step continuity errors : sum local = 1.07362e-08, global = -7.29386e-22, cumulative = 4.23931e-21
[INFO] ContinuityError: 2.456 [ms]
[INFO] CorrectBoundary: 0.065 [ms]
[INFO] PISOStep: 269.939 [ms]
[INFO] MatrixAssemblyPI: 10.642 [ms]
[INFO] AdjustPhi: 1.813 [ms]
[INFO] ConstrainPressure: 0.003 [ms]
[INFO] MatrixAssemblyPII: 3.429 [ms]
[OGL LOG][Proc: 0]: global_index_init: 0.051 [ms]
[OGL LOG][Proc: 0]p_local_coeffs: call_update: 0 [ms]
[OGL LOG][Proc: 0]p_non_local_coeffs: call_update: 0 [ms]
[OGL LOG][Proc: 0]p: update_local_matrix_data: 1.477 [ms]
[OGL LOG][Proc: 0]p: update_non_local_matrix_data: 0.038 [ms]
[OGL LOG][Proc: 0]p_matrix: call_update: 1.815 [ms]
[OGL LOG][Proc: 0]p_rhs: call_update: 0.796 [ms]
[OGL LOG][Proc: 0]p: init_precond: 0.045 [ms]
[OGL LOG][StoppingCriterion.H:372] Creating stopping criterion with minIter 418 frequency 11
[OGL LOG][Proc: 0]p: generate_solver: 0.004 [ms]
[OGL LOG][Proc: 0]p: solve: 248.218 [ms]
[OGL LOG][Proc: 0]p: copy_x_back: 0.344 [ms]
[OGL LOG][lduLduBase.H:339] 
Statistics:
	Time per iteration: 357 [mu s]
	Time per residual norm calculation: 137.000000 [mu s]
	Time per iteration and DOF: 0.357000 [ns]
	Retrieve results bandwidth 2.906000 [GByte/s]
[OGL LOG][Proc: 0]p: solve_multi_gpu: 251.401 [ms]
nonehipGKOCG:  Solving for p, Initial residual = 0.0297657, Final residual = 7.95361e-05, No Iterations 694
[INFO] SolveP: 253.826 [ms]
time step continuity errors : sum local = 1.11991e-08, global = 3.40389e-21, cumulative = 7.6432e-21
[INFO] ContinuityError: 2.307 [ms]
[INFO] CorrectBoundary: 0.085 [ms]
[INFO] PISOStep: 277.683 [ms]
[INFO] TimeStep: 672.386 [ms]
ExecutionTime = 8.48 s  ClockTime = 9 s

Time = 0.006

Courant Number mean: 0.0631376 max: 0.474175
[INFO] MatrixAssemblyU: 8.204 [ms]
DILUPBiCGStab:  Solving for Ux, Initial residual = 0.00728646, Final residual = 2.20738e-05, No Iterations 5
DILUPBiCGStab:  Solving for Uy, Initial residual = 0.0155756, Final residual = 3.38457e-05, No Iterations 5
DILUPBiCGStab:  Solving for Uz, Initial residual = 0.0305081, Final residual = 6.94623e-05, No Iterations 5
[INFO] MomentumPredictor: 114.471 [ms]
[INFO] MatrixAssemblyPI: 11.201 [ms]
[INFO] AdjustPhi: 1.977 [ms]
[INFO] ConstrainPressure: 0.003 [ms]
[INFO] MatrixAssemblyPII: 3.38 [ms]
[OGL LOG][Proc: 0]: global_index_init: 0.084 [ms]
[OGL LOG][Proc: 0]p_local_coeffs: call_update: 0 [ms]
[OGL LOG][Proc: 0]p_non_local_coeffs: call_update: 0 [ms]
[OGL LOG][Proc: 0]p: update_local_matrix_data: 1.524 [ms]
[OGL LOG][Proc: 0]p: update_non_local_matrix_data: 0.037 [ms]
[OGL LOG][Proc: 0]p_matrix: call_update: 1.659 [ms]
[OGL LOG][Proc: 0]p_rhs: call_update: 0.794 [ms]
[OGL LOG][Proc: 0]p: init_precond: 0.044 [ms]
[OGL LOG][StoppingCriterion.H:372] Creating stopping criterion with minIter 416 frequency 11
[OGL LOG][Proc: 0]p: generate_solver: 0.003 [ms]
[OGL LOG][Proc: 0]p: solve: 144.68 [ms]
[OGL LOG][Proc: 0]p: copy_x_back: 0.431 [ms]
[OGL LOG][lduLduBase.H:339] 
Statistics:
	Time per iteration: 345 [mu s]
	Time per residual norm calculation: 145.000000 [mu s]
	Time per iteration and DOF: 0.345000 [ns]
	Retrieve results bandwidth 2.320000 [GByte/s]
[OGL LOG][Proc: 0]p: solve_multi_gpu: 147.814 [ms]
nonehipGKOCG:  Solving for p, Initial residual = 0.0249494, Final residual = 1.30317e-05, No Iterations 419
[INFO] SolveP: 150.065 [ms]
time step continuity errors : sum local = 1.93804e-09, global = 4.03559e-21, cumulative = 1.16788e-20
[INFO] ContinuityError: 1.726 [ms]
[INFO] CorrectBoundary: 0.064 [ms]
[INFO] PISOStep: 174.655 [ms]
[INFO] MatrixAssemblyPI: 10.722 [ms]
[INFO] AdjustPhi: 1.029 [ms]
[INFO] ConstrainPressure: 0.003 [ms]
[INFO] MatrixAssemblyPII: 3.781 [ms]
[OGL LOG][Proc: 0]: global_index_init: 0.041 [ms]
[OGL LOG][Proc: 0]p_local_coeffs: call_update: 0 [ms]
[OGL LOG][Proc: 0]p_non_local_coeffs: call_update: 0 [ms]
[OGL LOG][Proc: 0]p: update_local_matrix_data: 1.518 [ms]
[OGL LOG][Proc: 0]p: update_non_local_matrix_data: 0.039 [ms]
[OGL LOG][Proc: 0]p_matrix: call_update: 2.449 [ms]
[OGL LOG][Proc: 0]p_rhs: call_update: 0.167 [ms]
[OGL LOG][Proc: 0]p: init_precond: 0.043 [ms]
[OGL LOG][StoppingCriterion.H:372] Creating stopping criterion with minIter 251 frequency 9
[OGL LOG][Proc: 0]p: generate_solver: 0.004 [ms]
[OGL LOG][Proc: 0]p: solve: 107.059 [ms]
[OGL LOG][Proc: 0]p: copy_x_back: 0.35 [ms]
[OGL LOG][lduLduBase.H:339] 
Statistics:
	Time per iteration: 338 [mu s]
	Time per residual norm calculation: 140.000000 [mu s]
	Time per iteration and DOF: 0.338000 [ns]
	Retrieve results bandwidth 2.857000 [GByte/s]
[OGL LOG][Proc: 0]p: solve_multi_gpu: 110.254 [ms]
nonehipGKOCG:  Solving for p, Initial residual = 0.0217608, Final residual = 7.32736e-05, No Iterations 316
[INFO] SolveP: 112.487 [ms]
time step continuity errors : sum local = 1.03634e-08, global = 1.71904e-21, cumulative = 1.33978e-20
[INFO] ContinuityError: 1.807 [ms]
[INFO] CorrectBoundary: 0.102 [ms]
[INFO] PISOStep: 134.413 [ms]
[INFO] TimeStep: 433.567 [ms]
ExecutionTime = 8.91 s  ClockTime = 9 s

Time = 0.0065

Courant Number mean: 0.0648411 max: 0.475011
[INFO] MatrixAssemblyU: 8.401 [ms]
DILUPBiCGStab:  Solving for Ux, Initial residual = 0.00655655, Final residual = 1.9176e-05, No Iterations 5
DILUPBiCGStab:  Solving for Uy, Initial residual = 0.0140535, Final residual = 3.04753e-05, No Iterations 5
DILUPBiCGStab:  Solving for Uz, Initial residual = 0.0276609, Final residual = 6.07588e-05, No Iterations 5
[INFO] MomentumPredictor: 113.421 [ms]
[INFO] MatrixAssemblyPI: 10.936 [ms]
[INFO] AdjustPhi: 1.409 [ms]
[INFO] ConstrainPressure: 0.003 [ms]
[INFO] MatrixAssemblyPII: 3.424 [ms]
[OGL LOG][Proc: 0]: global_index_init: 0.056 [ms]
[OGL LOG][Proc: 0]p_local_coeffs: call_update: 0 [ms]
[OGL LOG][Proc: 0]p_non_local_coeffs: call_update: 0 [ms]
[OGL LOG][Proc: 0]p: update_local_matrix_data: 1.543 [ms]
[OGL LOG][Proc: 0]p: update_non_local_matrix_data: 0.037 [ms]
[OGL LOG][Proc: 0]p_matrix: call_update: 1.686 [ms]
[OGL LOG][Proc: 0]p_rhs: call_update: 0.843 [ms]
[OGL LOG][Proc: 0]p: init_precond: 0.043 [ms]
[OGL LOG][StoppingCriterion.H:372] Creating stopping criterion with minIter 189 frequency 7
[OGL LOG][Proc: 0]p: generate_solver: 0.005 [ms]
[OGL LOG][Proc: 0]p: solve: 105.596 [ms]
[OGL LOG][Proc: 0]p: copy_x_back: 0.353 [ms]
[OGL LOG][lduLduBase.H:339] 
Statistics:
	Time per iteration: 341 [mu s]
	Time per residual norm calculation: 133.000000 [mu s]
	Time per iteration and DOF: 0.341000 [ns]
	Retrieve results bandwidth 2.832000 [GByte/s]
[OGL LOG][Proc: 0]p: solve_multi_gpu: 108.701 [ms]
nonehipGKOCG:  Solving for p, Initial residual = 0.0204896, Final residual = 9.11655e-05, No Iterations 309
[INFO] SolveP: 110.939 [ms]
time step continuity errors : sum local = 1.34829e-08, global = 5.80216e-22, cumulative = 1.3978e-20
[INFO] ContinuityError: 1.799 [ms]
[INFO] CorrectBoundary: 0.068 [ms]
[INFO] PISOStep: 133.135 [ms]
[INFO] MatrixAssemblyPI: 10.594 [ms]
[INFO] AdjustPhi: 1.327 [ms]
[INFO] ConstrainPressure: 0.003 [ms]
[INFO] MatrixAssemblyPII: 3.441 [ms]
[OGL LOG][Proc: 0]: global_index_init: 0.036 [ms]
[OGL LOG][Proc: 0]p_local_coeffs: call_update: 0 [ms]
[OGL LOG][Proc: 0]p_non_local_coeffs: call_update: 0 [ms]
[OGL LOG][Proc: 0]p: update_local_matrix_data: 1.571 [ms]
[OGL LOG][Proc: 0]p: update_non_local_matrix_data: 0.036 [ms]
[OGL LOG][Proc: 0]p_matrix: call_update: 1.725 [ms]
[OGL LOG][Proc: 0]p_rhs: call_update: 0.707 [ms]
[OGL LOG][Proc: 0]p: init_precond: 0.049 [ms]
[OGL LOG][StoppingCriterion.H:372] Creating stopping criterion with minIter 185 frequency 7
[OGL LOG][Proc: 0]p: generate_solver: 0.004 [ms]
[OGL LOG][Proc: 0]p: solve: 106.489 [ms]
[OGL LOG][Proc: 0]p: copy_x_back: 0.346 [ms]
[OGL LOG][lduLduBase.H:339] 
Statistics:
	Time per iteration: 344 [mu s]
	Time per residual norm calculation: 130.000000 [mu s]
	Time per iteration and DOF: 0.344000 [ns]
	Retrieve results bandwidth 2.890000 [GByte/s]
[OGL LOG][Proc: 0]p: solve_multi_gpu: 109.505 [ms]
nonehipGKOCG:  Solving for p, Initial residual = 0.0180327, Final residual = 7.99018e-05, No Iterations 309
[INFO] SolveP: 111.763 [ms]
time step continuity errors : sum local = 1.13677e-08, global = 1.87553e-21, cumulative = 1.58536e-20
[INFO] ContinuityError: 1.805 [ms]
[INFO] CorrectBoundary: 0.294 [ms]
[INFO] PISOStep: 134.032 [ms]
[INFO] TimeStep: 391.136 [ms]
ExecutionTime = 9.3 s  ClockTime = 10 s

Time = 0.007

Courant Number mean: 0.0664084 max: 0.47574
[INFO] MatrixAssemblyU: 8.266 [ms]
DILUPBiCGStab:  Solving for Ux, Initial residual = 0.0059561, Final residual = 1.71556e-05, No Iterations 5
DILUPBiCGStab:  Solving for Uy, Initial residual = 0.0127636, Final residual = 2.74226e-05, No Iterations 5
DILUPBiCGStab:  Solving for Uz, Initial residual = 0.0252419, Final residual = 5.56093e-05, No Iterations 5
[INFO] MomentumPredictor: 107.506 [ms]
[INFO] MatrixAssemblyPI: 10.756 [ms]
[INFO] AdjustPhi: 0.903 [ms]
[INFO] ConstrainPressure: 0.003 [ms]
[INFO] MatrixAssemblyPII: 3.44 [ms]
[OGL LOG][Proc: 0]: global_index_init: 0.035 [ms]
[OGL LOG][Proc: 0]p_local_coeffs: call_update: 0 [ms]
[OGL LOG][Proc: 0]p_non_local_coeffs: call_update: 0 [ms]
[OGL LOG][Proc: 0]p: update_local_matrix_data: 1.548 [ms]
[OGL LOG][Proc: 0]p: update_non_local_matrix_data: 0.036 [ms]
[OGL LOG][Proc: 0]p_matrix: call_update: 1.685 [ms]
[OGL LOG][Proc: 0]p_rhs: call_update: 0.779 [ms]
[OGL LOG][Proc: 0]p: init_precond: 0.043 [ms]
[OGL LOG][StoppingCriterion.H:372] Creating stopping criterion with minIter 185 frequency 7
[OGL LOG][Proc: 0]p: generate_solver: 0.005 [ms]
[OGL LOG][Proc: 0]p: solve: 103.614 [ms]
[OGL LOG][Proc: 0]p: copy_x_back: 0.348 [ms]
[OGL LOG][lduLduBase.H:339] 
Statistics:
	Time per iteration: 343 [mu s]
	Time per residual norm calculation: 132.000000 [mu s]
	Time per iteration and DOF: 0.343000 [ns]
	Retrieve results bandwidth 2.873000 [GByte/s]
[OGL LOG][Proc: 0]p: solve_multi_gpu: 106.708 [ms]
nonehipGKOCG:  Solving for p, Initial residual = 0.0160757, Final residual = 9.73744e-05, No Iterations 302
[INFO] SolveP: 108.913 [ms]
time step continuity errors : sum local = 1.40199e-08, global = -3.26204e-21, cumulative = 1.25915e-20
[INFO] ContinuityError: 1.73 [ms]
[INFO] CorrectBoundary: 0.063 [ms]
[INFO] PISOStep: 130.401 [ms]
[INFO] MatrixAssemblyPI: 10.569 [ms]
[INFO] AdjustPhi: 1.578 [ms]
[INFO] ConstrainPressure: 0.003 [ms]
[INFO] MatrixAssemblyPII: 3.583 [ms]
[OGL LOG][Proc: 0]: global_index_init: 0.034 [ms]
[OGL LOG][Proc: 0]p_local_coeffs: call_update: 0 [ms]
[OGL LOG][Proc: 0]p_non_local_coeffs: call_update: 0 [ms]
[OGL LOG][Proc: 0]p: update_local_matrix_data: 1.507 [ms]
[OGL LOG][Proc: 0]p: update_non_local_matrix_data: 0.042 [ms]
[OGL LOG][Proc: 0]p_matrix: call_update: 1.731 [ms]
[OGL LOG][Proc: 0]p_rhs: call_update: 0.796 [ms]
[OGL LOG][Proc: 0]p: init_precond: 0.043 [ms]
[OGL LOG][StoppingCriterion.H:372] Creating stopping criterion with minIter 181 frequency 7
[OGL LOG][Proc: 0]p: generate_solver: 0.004 [ms]
[OGL LOG][Proc: 0]p: solve: 103.845 [ms]
[OGL LOG][Proc: 0]p: copy_x_back: 0.346 [ms]
[OGL LOG][lduLduBase.H:339] 
Statistics:
	Time per iteration: 343 [mu s]
	Time per residual norm calculation: 131.000000 [mu s]
	Time per iteration and DOF: 0.343000 [ns]
	Retrieve results bandwidth 2.890000 [GByte/s]
[OGL LOG][Proc: 0]p: solve_multi_gpu: 106.947 [ms]
nonehipGKOCG:  Solving for p, Initial residual = 0.0145486, Final residual = 8.53144e-05, No Iterations 302
[INFO] SolveP: 109.17 [ms]
time step continuity errors : sum local = 1.20693e-08, global = 5.19787e-21, cumulative = 1.77894e-20
[INFO] ContinuityError: 1.709 [ms]
[INFO] CorrectBoundary: 0.26 [ms]
[INFO] PISOStep: 131.389 [ms]
[INFO] TimeStep: 379.494 [ms]
ExecutionTime = 9.68 s  ClockTime = 10 s

Time = 0.0075

Courant Number mean: 0.0678549 max: 0.476379
[INFO] MatrixAssemblyU: 8.192 [ms]
DILUPBiCGStab:  Solving for Ux, Initial residual = 0.00543619, Final residual = 1.52683e-05, No Iterations 5
DILUPBiCGStab:  Solving for Uy, Initial residual = 0.0116643, Final residual = 2.49759e-05, No Iterations 5
DILUPBiCGStab:  Solving for Uz, Initial residual = 0.0233842, Final residual = 5.08147e-05, No Iterations 5
[INFO] MomentumPredictor: 109.624 [ms]
[INFO] MatrixAssemblyPI: 10.917 [ms]
[INFO] AdjustPhi: 0.754 [ms]
[INFO] ConstrainPressure: 0.003 [ms]
[INFO] MatrixAssemblyPII: 3.409 [ms]
[OGL LOG][Proc: 0]: global_index_init: 0.083 [ms]
[OGL LOG][Proc: 0]p_local_coeffs: call_update: 0 [ms]
[OGL LOG][Proc: 0]p_non_local_coeffs: call_update: 0 [ms]
[OGL LOG][Proc: 0]p: update_local_matrix_data: 1.527 [ms]
[OGL LOG][Proc: 0]p: update_non_local_matrix_data: 0.037 [ms]
[OGL LOG][Proc: 0]p_matrix: call_update: 1.754 [ms]
[OGL LOG][Proc: 0]p_rhs: call_update: 0.716 [ms]
[OGL LOG][Proc: 0]p: init_precond: 0.043 [ms]
[OGL LOG][StoppingCriterion.H:372] Creating stopping criterion with minIter 181 frequency 7
[OGL LOG][Proc: 0]p: generate_solver: 0.004 [ms]
[OGL LOG][Proc: 0]p: solve: 106.222 [ms]
[OGL LOG][Proc: 0]p: copy_x_back: 0.353 [ms]
[OGL LOG][lduLduBase.H:339] 
Statistics:
	Time per iteration: 343 [mu s]
	Time per residual norm calculation: 130.000000 [mu s]
	Time per iteration and DOF: 0.343000 [ns]
	Retrieve results bandwidth 2.832000 [GByte/s]
[OGL LOG][Proc: 0]p: solve_multi_gpu: 109.277 [ms]
nonehipGKOCG:  Solving for p, Initial residual = 0.0140075, Final residual = 9.11142e-05, No Iterations 309
[INFO] SolveP: 111.523 [ms]
time step continuity errors : sum local = 1.38343e-08, global = -4.01875e-21, cumulative = 1.37706e-20
[INFO] ContinuityError: 1.705 [ms]
[INFO] CorrectBoundary: 0.074 [ms]
[INFO] PISOStep: 133.106 [ms]
[INFO] MatrixAssemblyPI: 10.546 [ms]
[INFO] AdjustPhi: 1.299 [ms]
[INFO] ConstrainPressure: 0.003 [ms]
[INFO] MatrixAssemblyPII: 3.351 [ms]
[OGL LOG][Proc: 0]: global_index_init: 0.053 [ms]
[OGL LOG][Proc: 0]p_local_coeffs: call_update: 0 [ms]
[OGL LOG][Proc: 0]p_non_local_coeffs: call_update: 0 [ms]
[OGL LOG][Proc: 0]p: update_local_matrix_data: 1.548 [ms]
[OGL LOG][Proc: 0]p: update_non_local_matrix_data: 0.036 [ms]
[OGL LOG][Proc: 0]p_matrix: call_update: 1.666 [ms]
[OGL LOG][Proc: 0]p_rhs: call_update: 0.769 [ms]
[OGL LOG][Proc: 0]p: init_precond: 0.043 [ms]
[OGL LOG][StoppingCriterion.H:372] Creating stopping criterion with minIter 185 frequency 7
[OGL LOG][Proc: 0]p: generate_solver: 0.004 [ms]
[OGL LOG][Proc: 0]p: solve: 103.198 [ms]
[OGL LOG][Proc: 0]p: copy_x_back: 0.342 [ms]
[OGL LOG][lduLduBase.H:339] 
Statistics:
	Time per iteration: 341 [mu s]
	Time per residual norm calculation: 133.000000 [mu s]
	Time per iteration and DOF: 0.341000 [ns]
	Retrieve results bandwidth 2.923000 [GByte/s]
[OGL LOG][Proc: 0]p: solve_multi_gpu: 106.203 [ms]
nonehipGKOCG:  Solving for p, Initial residual = 0.0127759, Final residual = 8.84036e-05, No Iterations 302
[INFO] SolveP: 108.458 [ms]
time step continuity errors : sum local = 1.26886e-08, global = 5.78264e-21, cumulative = 1.95533e-20
[INFO] ContinuityError: 1.768 [ms]
[INFO] CorrectBoundary: 0.064 [ms]
[INFO] PISOStep: 130.175 [ms]
[INFO] TimeStep: 383.097 [ms]
ExecutionTime = 10.06 s  ClockTime = 10 s

Time = 0.008

Courant Number mean: 0.0691917 max: 0.476948
[INFO] MatrixAssemblyU: 8.402 [ms]
DILUPBiCGStab:  Solving for Ux, Initial residual = 0.00498887, Final residual = 1.38354e-05, No Iterations 5
DILUPBiCGStab:  Solving for Uy, Initial residual = 0.0107232, Final residual = 2.28772e-05, No Iterations 5
DILUPBiCGStab:  Solving for Uz, Initial residual = 0.0215917, Final residual = 4.94562e-05, No Iterations 5
[INFO] MomentumPredictor: 111.813 [ms]
[INFO] MatrixAssemblyPI: 12.391 [ms]
[INFO] AdjustPhi: 0.525 [ms]
[INFO] ConstrainPressure: 0.003 [ms]
[INFO] MatrixAssemblyPII: 3.329 [ms]
[OGL LOG][Proc: 0]: global_index_init: 0.036 [ms]
[OGL LOG][Proc: 0]p_local_coeffs: call_update: 0 [ms]
[OGL LOG][Proc: 0]p_non_local_coeffs: call_update: 0 [ms]
[OGL LOG][Proc: 0]p: update_local_matrix_data: 2.025 [ms]
[OGL LOG][Proc: 0]p: update_non_local_matrix_data: 0.052 [ms]
[OGL LOG][Proc: 0]p_matrix: call_update: 1.846 [ms]
[OGL LOG][Proc: 0]p_rhs: call_update: 0.176 [ms]
[OGL LOG][Proc: 0]p: init_precond: 0.045 [ms]
[OGL LOG][StoppingCriterion.H:372] Creating stopping criterion with minIter 181 frequency 7
[OGL LOG][Proc: 0]p: generate_solver: 0.004 [ms]
[OGL LOG][Proc: 0]p: solve: 105.843 [ms]
[OGL LOG][Proc: 0]p: copy_x_back: 0.342 [ms]
[OGL LOG][lduLduBase.H:339] 
Statistics:
	Time per iteration: 342 [mu s]
	Time per residual norm calculation: 138.000000 [mu s]
	Time per iteration and DOF: 0.342000 [ns]
	Retrieve results bandwidth 2.923000 [GByte/s]
[OGL LOG][Proc: 0]p: solve_multi_gpu: 108.443 [ms]
nonehipGKOCG:  Solving for p, Initial residual = 0.0119139, Final residual = 9.28814e-05, No Iterations 309
[INFO] SolveP: 116.329 [ms]
time step continuity errors : sum local = 1.39047e-08, global = -1.0226e-20, cumulative = 9.32727e-21
[INFO] ContinuityError: 2.279 [ms]
[INFO] CorrectBoundary: 0.334 [ms]
[INFO] PISOStep: 140.071 [ms]
[INFO] MatrixAssemblyPI: 11.261 [ms]
[INFO] AdjustPhi: 0.907 [ms]
[INFO] ConstrainPressure: 0.002 [ms]
[INFO] MatrixAssemblyPII: 3.5 [ms]
[OGL LOG][Proc: 0]: global_index_init: 0.097 [ms]
[OGL LOG][Proc: 0]p_local_coeffs: call_update: 0 [ms]
[OGL LOG][Proc: 0]p_non_local_coeffs: call_update: 0 [ms]
[OGL LOG][Proc: 0]p: update_local_matrix_data: 1.569 [ms]
[OGL LOG][Proc: 0]p: update_non_local_matrix_data: 0.037 [ms]
[OGL LOG][Proc: 0]p_matrix: call_update: 1.616 [ms]
[OGL LOG][Proc: 0]p_rhs: call_update: 0.786 [ms]
[OGL LOG][Proc: 0]p: init_precond: 0.042 [ms]
[OGL LOG][StoppingCriterion.H:372] Creating stopping criterion with minIter 185 frequency 7
[OGL LOG][Proc: 0]p: generate_solver: 0.004 [ms]
[OGL LOG][Proc: 0]p: solve: 103.456 [ms]
[OGL LOG][Proc: 0]p: copy_x_back: 0.345 [ms]
[OGL LOG][lduLduBase.H:339] 
Statistics:
	Time per iteration: 342 [mu s]
	Time per residual norm calculation: 139.000000 [mu s]
	Time per iteration and DOF: 0.342000 [ns]
	Retrieve results bandwidth 2.898000 [GByte/s]
[OGL LOG][Proc: 0]p: solve_multi_gpu: 106.431 [ms]
nonehipGKOCG:  Solving for p, Initial residual = 0.0110721, Final residual = 9.3721e-05, No Iterations 302
[INFO] SolveP: 108.745 [ms]
time step continuity errors : sum local = 1.33583e-08, global = -7.27072e-21, cumulative = 2.05654e-21
[INFO] ContinuityError: 1.681 [ms]
[INFO] CorrectBoundary: 0.309 [ms]
[INFO] PISOStep: 131.055 [ms]
[INFO] TimeStep: 393.407 [ms]
ExecutionTime = 10.45 s  ClockTime = 11 s

Time = 0.0085

Courant Number mean: 0.0704368 max: 0.477455
[INFO] MatrixAssemblyU: 8.221 [ms]
DILUPBiCGStab:  Solving for Ux, Initial residual = 0.00460115, Final residual = 1.25075e-05, No Iterations 5
DILUPBiCGStab:  Solving for Uy, Initial residual = 0.009891, Final residual = 2.11023e-05, No Iterations 5
DILUPBiCGStab:  Solving for Uz, Initial residual = 0.0202771, Final residual = 4.73584e-05, No Iterations 5
[INFO] MomentumPredictor: 114.433 [ms]
[INFO] MatrixAssemblyPI: 10.942 [ms]
[INFO] AdjustPhi: 1.968 [ms]
[INFO] ConstrainPressure: 0.003 [ms]
[INFO] MatrixAssemblyPII: 3.248 [ms]
[OGL LOG][Proc: 0]: global_index_init: 0.045 [ms]
[OGL LOG][Proc: 0]p_local_coeffs: call_update: 0 [ms]
[OGL LOG][Proc: 0]p_non_local_coeffs: call_update: 0 [ms]
[OGL LOG][Proc: 0]p: update_local_matrix_data: 1.478 [ms]
[OGL LOG][Proc: 0]p: update_non_local_matrix_data: 0.037 [ms]
[OGL LOG][Proc: 0]p_matrix: call_update: 1.813 [ms]
[OGL LOG][Proc: 0]p_rhs: call_update: 0.829 [ms]
[OGL LOG][Proc: 0]p: init_precond: 0.042 [ms]
[OGL LOG][StoppingCriterion.H:372] Creating stopping criterion with minIter 181 frequency 7
[OGL LOG][Proc: 0]p: generate_solver: 0.004 [ms]
[OGL LOG][Proc: 0]p: solve: 107.759 [ms]
[OGL LOG][Proc: 0]p: copy_x_back: 0.348 [ms]
[OGL LOG][lduLduBase.H:339] 
Statistics:
	Time per iteration: 341 [mu s]
	Time per residual norm calculation: 131.000000 [mu s]
	Time per iteration and DOF: 0.341000 [ns]
	Retrieve results bandwidth 2.873000 [GByte/s]
[OGL LOG][Proc: 0]p: solve_multi_gpu: 110.982 [ms]
nonehipGKOCG:  Solving for p, Initial residual = 0.0107719, Final residual = 8.99069e-05, No Iterations 316
[INFO] SolveP: 113.172 [ms]
time step continuity errors : sum local = 1.43616e-08, global = 5.41793e-21, cumulative = 7.47447e-21
[INFO] ContinuityError: 1.823 [ms]
[INFO] CorrectBoundary: 0.117 [ms]
[INFO] PISOStep: 135.968 [ms]
[INFO] MatrixAssemblyPI: 10.504 [ms]
[INFO] AdjustPhi: 1.387 [ms]
[INFO] ConstrainPressure: 0.003 [ms]
[INFO] MatrixAssemblyPII: 3.482 [ms]
[OGL LOG][Proc: 0]: global_index_init: 0.035 [ms]
[OGL LOG][Proc: 0]p_local_coeffs: call_update: 0 [ms]
[OGL LOG][Proc: 0]p_non_local_coeffs: call_update: 0 [ms]
[OGL LOG][Proc: 0]p: update_local_matrix_data: 1.524 [ms]
[OGL LOG][Proc: 0]p: update_non_local_matrix_data: 0.034 [ms]
[OGL LOG][Proc: 0]p_matrix: call_update: 1.696 [ms]
[OGL LOG][Proc: 0]p_rhs: call_update: 0.81 [ms]
[OGL LOG][Proc: 0]p: init_precond: 0.042 [ms]
[OGL LOG][StoppingCriterion.H:372] Creating stopping criterion with minIter 189 frequency 7
[OGL LOG][Proc: 0]p: generate_solver: 0.004 [ms]
[OGL LOG][Proc: 0]p: solve: 102.975 [ms]
[OGL LOG][Proc: 0]p: copy_x_back: 0.344 [ms]
[OGL LOG][lduLduBase.H:339] 
Statistics:
	Time per iteration: 340 [mu s]
	Time per residual norm calculation: 137.000000 [mu s]
	Time per iteration and DOF: 0.340000 [ns]
	Retrieve results bandwidth 2.906000 [GByte/s]
[OGL LOG][Proc: 0]p: solve_multi_gpu: 106.066 [ms]
nonehipGKOCG:  Solving for p, Initial residual = 0.0100631, Final residual = 9.38196e-05, No Iterations 302
[INFO] SolveP: 108.271 [ms]
time step continuity errors : sum local = 1.36797e-08, global = 4.60161e-21, cumulative = 1.20761e-20
[INFO] ContinuityError: 1.776 [ms]
[INFO] CorrectBoundary: 0.246 [ms]
[INFO] PISOStep: 130.361 [ms]
[INFO] TimeStep: 390.931 [ms]
ExecutionTime = 10.84 s  ClockTime = 11 s

Time = 0.009

Courant Number mean: 0.0715997 max: 0.477912
[INFO] MatrixAssemblyU: 8.541 [ms]
DILUPBiCGStab:  Solving for Ux, Initial residual = 0.00425369, Final residual = 1.14484e-05, No Iterations 5
DILUPBiCGStab:  Solving for Uy, Initial residual = 0.00918078, Final residual = 1.95964e-05, No Iterations 5
DILUPBiCGStab:  Solving for Uz, Initial residual = 0.0188687, Final residual = 4.91545e-05, No Iterations 5
[INFO] MomentumPredictor: 109.544 [ms]
[INFO] MatrixAssemblyPI: 10.78 [ms]
[INFO] AdjustPhi: 0.878 [ms]
[INFO] ConstrainPressure: 0.003 [ms]
[INFO] MatrixAssemblyPII: 3.414 [ms]
[OGL LOG][Proc: 0]: global_index_init: 0.041 [ms]
[OGL LOG][Proc: 0]p_local_coeffs: call_update: 0 [ms]
[OGL LOG][Proc: 0]p_non_local_coeffs: call_update: 0 [ms]
[OGL LOG][Proc: 0]p: update_local_matrix_data: 1.555 [ms]
[OGL LOG][Proc: 0]p: update_non_local_matrix_data: 0.036 [ms]
[OGL LOG][Proc: 0]p_matrix: call_update: 1.866 [ms]
[OGL LOG][Proc: 0]p_rhs: call_update: 5.329 [ms]
[OGL LOG][Proc: 0]p: init_precond: 0.042 [ms]
[OGL LOG][StoppingCriterion.H:372] Creating stopping criterion with minIter 181 frequency 7
[OGL LOG][Proc: 0]p: generate_solver: 0.004 [ms]
[OGL LOG][Proc: 0]p: solve: 112.218 [ms]
[OGL LOG][Proc: 0]p: copy_x_back: 0.344 [ms]
[OGL LOG][lduLduBase.H:339] 
Statistics:
	Time per iteration: 355 [mu s]
	Time per residual norm calculation: 135.000000 [mu s]
	Time per iteration and DOF: 0.355000 [ns]
	Retrieve results bandwidth 2.906000 [GByte/s]
[OGL LOG][Proc: 0]p: solve_multi_gpu: 119.986 [ms]
nonehipGKOCG:  Solving for p, Initial residual = 0.00968955, Final residual = 9.43594e-05, No Iterations 316
[INFO] SolveP: 122.21 [ms]
time step continuity errors : sum local = 1.502e-08, global = 4.02899e-21, cumulative = 1.61051e-20
[INFO] ContinuityError: 2.965 [ms]
[INFO] CorrectBoundary: 0.287 [ms]
[INFO] PISOStep: 145.207 [ms]
[INFO] MatrixAssemblyPI: 10.78 [ms]
[INFO] AdjustPhi: 1.997 [ms]
[INFO] ConstrainPressure: 0.003 [ms]
[INFO] MatrixAssemblyPII: 3.374 [ms]
[OGL LOG][Proc: 0]: global_index_init: 0.047 [ms]
[OGL LOG][Proc: 0]p_local_coeffs: call_update: 0 [ms]
[OGL LOG][Proc: 0]p_non_local_coeffs: call_update: 0 [ms]
[OGL LOG][Proc: 0]p: update_local_matrix_data: 1.543 [ms]
[OGL LOG][Proc: 0]p: update_non_local_matrix_data: 0.038 [ms]
[OGL LOG][Proc: 0]p_matrix: call_update: 1.807 [ms]
[OGL LOG][Proc: 0]p_rhs: call_update: 0.819 [ms]
[OGL LOG][Proc: 0]p: init_precond: 0.042 [ms]
[OGL LOG][StoppingCriterion.H:372] Creating stopping criterion with minIter 189 frequency 7
[OGL LOG][Proc: 0]p: generate_solver: 0.004 [ms]
[OGL LOG][Proc: 0]p: solve: 108.676 [ms]
[OGL LOG][Proc: 0]p: copy_x_back: 0.352 [ms]
[OGL LOG][lduLduBase.H:339] 
Statistics:
	Time per iteration: 359 [mu s]
	Time per residual norm calculation: 131.000000 [mu s]
	Time per iteration and DOF: 0.359000 [ns]
	Retrieve results bandwidth 2.840000 [GByte/s]
[OGL LOG][Proc: 0]p: solve_multi_gpu: 111.89 [ms]
nonehipGKOCG:  Solving for p, Initial residual = 0.0091164, Final residual = 9.63298e-05, No Iterations 302
[INFO] SolveP: 114.148 [ms]
time step continuity errors : sum local = 1.39652e-08, global = 1.30776e-20, cumulative = 2.91826e-20
[INFO] ContinuityError: 2.62 [ms]
[INFO] CorrectBoundary: 0.252 [ms]
[INFO] PISOStep: 137.888 [ms]
[INFO] TimeStep: 403.143 [ms]
ExecutionTime = 11.24 s  ClockTime = 11 s

Time = 0.0095

Courant Number mean: 0.0726862 max: 0.478325
[INFO] MatrixAssemblyU: 8.389 [ms]
DILUPBiCGStab:  Solving for Ux, Initial residual = 0.00395781, Final residual = 1.04725e-05, No Iterations 5
DILUPBiCGStab:  Solving for Uy, Initial residual = 0.0085223, Final residual = 1.83411e-05, No Iterations 5
DILUPBiCGStab:  Solving for Uz, Initial residual = 0.0179585, Final residual = 5.02975e-05, No Iterations 5
[INFO] MomentumPredictor: 111.651 [ms]
[INFO] MatrixAssemblyPI: 10.751 [ms]
[INFO] AdjustPhi: 0.829 [ms]
[INFO] ConstrainPressure: 0.003 [ms]
[INFO] MatrixAssemblyPII: 3.529 [ms]
[OGL LOG][Proc: 0]: global_index_init: 0.072 [ms]
[OGL LOG][Proc: 0]p_local_coeffs: call_update: 0 [ms]
[OGL LOG][Proc: 0]p_non_local_coeffs: call_update: 0 [ms]
[OGL LOG][Proc: 0]p: update_local_matrix_data: 1.469 [ms]
[OGL LOG][Proc: 0]p: update_non_local_matrix_data: 0.038 [ms]
[OGL LOG][Proc: 0]p_matrix: call_update: 1.721 [ms]
[OGL LOG][Proc: 0]p_rhs: call_update: 0.83 [ms]
[OGL LOG][Proc: 0]p: init_precond: 0.041 [ms]
[OGL LOG][StoppingCriterion.H:372] Creating stopping criterion with minIter 181 frequency 7
[OGL LOG][Proc: 0]p: generate_solver: 0.004 [ms]
[OGL LOG][Proc: 0]p: solve: 237.298 [ms]
[OGL LOG][Proc: 0]p: copy_x_back: 0.35 [ms]
[OGL LOG][lduLduBase.H:339] 
Statistics:
	Time per iteration: 345 [mu s]
	Time per residual norm calculation: 133.000000 [mu s]
	Time per iteration and DOF: 0.345000 [ns]
	Retrieve results bandwidth 2.857000 [GByte/s]
[OGL LOG][Proc: 0]p: solve_multi_gpu: 240.425 [ms]
nonehipGKOCG:  Solving for p, Initial residual = 0.00903126, Final residual = 9.24204e-05, No Iterations 687
[INFO] SolveP: 242.608 [ms]
time step continuity errors : sum local = 1.29234e-08, global = -5.66314e-21, cumulative = 2.35195e-20
[INFO] ContinuityError: 2.73 [ms]
[INFO] CorrectBoundary: 0.068 [ms]
[INFO] PISOStep: 265.013 [ms]
[INFO] MatrixAssemblyPI: 10.692 [ms]
[INFO] AdjustPhi: 1.59 [ms]
[INFO] ConstrainPressure: 0.003 [ms]
[INFO] MatrixAssemblyPII: 3.418 [ms]
[OGL LOG][Proc: 0]: global_index_init: 0.06 [ms]
[OGL LOG][Proc: 0]p_local_coeffs: call_update: 0 [ms]
[OGL LOG][Proc: 0]p_non_local_coeffs: call_update: 0 [ms]
[OGL LOG][Proc: 0]p: update_local_matrix_data: 1.454 [ms]
[OGL LOG][Proc: 0]p: update_non_local_matrix_data: 0.036 [ms]
[OGL LOG][Proc: 0]p_matrix: call_update: 1.799 [ms]
[OGL LOG][Proc: 0]p_rhs: call_update: 0.852 [ms]
[OGL LOG][Proc: 0]p: init_precond: 0.043 [ms]
[OGL LOG][StoppingCriterion.H:372] Creating stopping criterion with minIter 412 frequency 11
[OGL LOG][Proc: 0]p: generate_solver: 0.003 [ms]
[OGL LOG][Proc: 0]p: solve: 232.79 [ms]
[OGL LOG][Proc: 0]p: copy_x_back: 0.439 [ms]
[OGL LOG][lduLduBase.H:339] 
Statistics:
	Time per iteration: 340 [mu s]
	Time per residual norm calculation: 141.000000 [mu s]
	Time per iteration and DOF: 0.340000 [ns]
	Retrieve results bandwidth 2.277000 [GByte/s]
[OGL LOG][Proc: 0]p: solve_multi_gpu: 236.134 [ms]
nonehipGKOCG:  Solving for p, Initial residual = 0.00854536, Final residual = 9.78106e-05, No Iterations 683
[INFO] SolveP: 238.311 [ms]
time step continuity errors : sum local = 1.36807e-08, global = -1.08302e-20, cumulative = 1.26893e-20
[INFO] ContinuityError: 1.79 [ms]
[INFO] CorrectBoundary: 0.065 [ms]
[INFO] PISOStep: 261.773 [ms]
[INFO] TimeStep: 648.894 [ms]
ExecutionTime = 11.88 s  ClockTime = 12 s

Time = 0.01

Courant Number mean: 0.0737033 max: 0.478702
[INFO] MatrixAssemblyU: 9.109 [ms]
DILUPBiCGStab:  Solving for Ux, Initial residual = 0.00368207, Final residual = 9.64432e-06, No Iterations 5
DILUPBiCGStab:  Solving for Uy, Initial residual = 0.00794911, Final residual = 1.6975e-05, No Iterations 5
DILUPBiCGStab:  Solving for Uz, Initial residual = 0.0164456, Final residual = 3.70478e-05, No Iterations 5
[INFO] MomentumPredictor: 108.242 [ms]
[INFO] MatrixAssemblyPI: 11.007 [ms]
[INFO] AdjustPhi: 2.59 [ms]
[INFO] ConstrainPressure: 0.003 [ms]
[INFO] MatrixAssemblyPII: 3.479 [ms]
[OGL LOG][Proc: 0]: global_index_init: 0.064 [ms]
[OGL LOG][Proc: 0]p_local_coeffs: call_update: 0 [ms]
[OGL LOG][Proc: 0]p_non_local_coeffs: call_update: 0 [ms]
[OGL LOG][Proc: 0]p: update_local_matrix_data: 1.501 [ms]
[OGL LOG][Proc: 0]p: update_non_local_matrix_data: 0.039 [ms]
[OGL LOG][Proc: 0]p_matrix: call_update: 2.234 [ms]
[OGL LOG][Proc: 0]p_rhs: call_update: 0.15 [ms]
[OGL LOG][Proc: 0]p: init_precond: 0.041 [ms]
[OGL LOG][StoppingCriterion.H:372] Creating stopping criterion with minIter 409 frequency 11
[OGL LOG][Proc: 0]p: generate_solver: 0.004 [ms]
[OGL LOG][Proc: 0]p: solve: 230.195 [ms]
[OGL LOG][Proc: 0]p: copy_x_back: 0.345 [ms]
[OGL LOG][lduLduBase.H:339] 
Statistics:
	Time per iteration: 331 [mu s]
	Time per residual norm calculation: 141.000000 [mu s]
	Time per iteration and DOF: 0.331000 [ns]
	Retrieve results bandwidth 2.898000 [GByte/s]
[OGL LOG][Proc: 0]p: solve_multi_gpu: 233.157 [ms]
nonehipGKOCG:  Solving for p, Initial residual = 0.00838152, Final residual = 5.93826e-05, No Iterations 694
[INFO] SolveP: 235.379 [ms]
time step continuity errors : sum local = 8.30728e-09, global = 3.25933e-21, cumulative = 1.59487e-20
[INFO] ContinuityError: 1.741 [ms]
[INFO] CorrectBoundary: 0.071 [ms]
[INFO] PISOStep: 260.828 [ms]
[INFO] MatrixAssemblyPI: 10.419 [ms]
[INFO] AdjustPhi: 1.572 [ms]
[INFO] ConstrainPressure: 0.003 [ms]
[INFO] MatrixAssemblyPII: 3.451 [ms]
[OGL LOG][Proc: 0]: global_index_init: 0.032 [ms]
[OGL LOG][Proc: 0]p_local_coeffs: call_update: 0 [ms]
[OGL LOG][Proc: 0]p_non_local_coeffs: call_update: 0 [ms]
[OGL LOG][Proc: 0]p: update_local_matrix_data: 1.466 [ms]
[OGL LOG][Proc: 0]p: update_non_local_matrix_data: 0.037 [ms]
[OGL LOG][Proc: 0]p_matrix: call_update: 1.883 [ms]
[OGL LOG][Proc: 0]p_rhs: call_update: 0.757 [ms]
[OGL LOG][Proc: 0]p: init_precond: 0.042 [ms]
[OGL LOG][StoppingCriterion.H:372] Creating stopping criterion with minIter 416 frequency 11
[OGL LOG][Proc: 0]p: generate_solver: 0.004 [ms]
[OGL LOG][Proc: 0]p: solve: 234.207 [ms]
[OGL LOG][Proc: 0]p: copy_x_back: 0.348 [ms]
[OGL LOG][lduLduBase.H:339] 
Statistics:
	Time per iteration: 342 [mu s]
	Time per residual norm calculation: 136.000000 [mu s]
	Time per iteration and DOF: 0.342000 [ns]
	Retrieve results bandwidth 2.873000 [GByte/s]
[OGL LOG][Proc: 0]p: solve_multi_gpu: 237.434 [ms]
nonehipGKOCG:  Solving for p, Initial residual = 0.00794096, Final residual = 9.2166e-05, No Iterations 683
[INFO] SolveP: 239.772 [ms]
time step continuity errors : sum local = 1.28978e-08, global = -3.87643e-21, cumulative = 1.20722e-20
[INFO] ContinuityError: 2.258 [ms]
[INFO] CorrectBoundary: 0.258 [ms]
[INFO] PISOStep: 263.188 [ms]
[INFO] TimeStep: 643.159 [ms]
ExecutionTime = 12.52 s  ClockTime = 13 s

End

Finalising parallel run
