/*---------------------------------------------------------------------------*\
| =========                 |                                                 |
| \\      /  F ield         | OpenFOAM: The Open Source CFD Toolbox           |
|  \\    /   O peration     | Version:  2306                                  |
|   \\  /    A nd           | Website:  www.openfoam.com                      |
|    \\/     M anipulation  |                                                 |
\*---------------------------------------------------------------------------*/
Build  : a6e826bd55-20230630 OPENFOAM=2306 version=v2306
Arch   : "LSB;label=32;scalar=64"
Exec   : icoFoam -parallel -case /tmp/lidDrivenCavity3D/workspace/fbbbb954f8c29dfff0d1baaf2e7cfb7a/case
Date   : Dec 09 2023
Time   : 09:23:54
Host   : nla-gpu2.ianm.kit.edu
PID    : 269137
I/O    : uncollated
Case   : /tmp/lidDrivenCavity3D/workspace/fbbbb954f8c29dfff0d1baaf2e7cfb7a/case
nProcs : 32
Hosts  :
(
    (nla-gpu2.ianm.kit.edu 32)
)
Pstream initialized with:
    floatTransfer      : false
    nProcsSimpleSum    : 0
    nonBlockingExchange: 0 (tuning: 0)
    exchange algorithm : -1
    commsType          : nonBlocking
    polling iterations : 0
trapFpe: Floating point exception trapping enabled (FOAM_SIGFPE).
fileModificationChecking : Monitoring run-time modified files using timeStampMaster (fileModificationSkew 5, maxFileModificationPolls 20)
allowSystemOperations : Allowing user-supplied system call operations

// * * * * * * * * * * * * * * * * * * * * * * * * * * * * * * * * * * * * * //
Create time

--> FOAM Warning : 
    From void* Foam::dlLibraryTable::openLibrary(const Foam::fileName&, bool)
    in file db/dynamicLibrary/dlLibraryTable/dlLibraryTable.C at line 188
    Could not load "libpetscFoam.so"
libpetscFoam.so: cannot open shared object file: No such file or directory
Create mesh for time = 0


PISO: Operating solver in PISO mode

Reading transportProperties

Reading field p

Reading field U

Reading/calculating face flux field phi


Starting time loop

Time = 0.0005

Courant Number mean: 8.62851e-18 max: 8.67362e-15
[INFO] MatrixAssemblyU: 6.774 [ms]
DILUPBiCGStab:  Solving for Ux, Initial residual = 1, Final residual = 0.00283431, No Iterations 5
DILUPBiCGStab:  Solving for Uy:  solution singularity
DILUPBiCGStab:  Solving for Uz:  solution singularity
[INFO] MomentumPredictor: 24.694 [ms]
[INFO] MatrixAssemblyPI: 5.382 [ms]
[INFO] AdjustPhi: 0.503 [ms]
[INFO] ConstrainPressure: 0.01 [ms]
[INFO] MatrixAssemblyPII: 1.687 [ms]
[OGL LOG][lduLduBase.H:119] Initialising OGL
	OGL commit:  5ef1233
	Branch: feat/on_device_permute 
	Build type: Release
	Ginkgo version: 1.7.0 ( develop)
	Ginkgo commit: sparse-communicator
	MPI is GPU aware: 1
	Forces host buffer based communication: 0
	CPU ranks per GPU: 1
	Matrix format: Coo
	End OGL_INFO
[OGL LOG][Proc: 0]: global_index_init: 0.919 [ms]
[OGL LOG][Proc: 0]p_local_cols: call_init: 0.015 [ms]
[OGL LOG][Proc: 0]p_local_rows: call_init: 0.003 [ms]
[OGL LOG][Proc: 0]p_local_ldu_map: call_init: 0.002 [ms]
[OGL LOG][Proc: 0]p_local_coeffs: call_init: 0.003 [ms]
[OGL LOG][Proc: 0]p_non_local_cols: call_init: 0.004 [ms]
[OGL LOG][Proc: 0]p_non_local_rows: call_init: 0.003 [ms]
[OGL LOG][Proc: 0]p_non_local_ldu_map: call_init: 0.002 [ms]
[OGL LOG][Proc: 0]p_non_local_coeffs: call_init: 0.002 [ms]
[OGL LOG][Proc: 0]p: init_local_sparsity_pattern: 6.691 [ms]
[OGL LOG][Proc: 0]p: init_non_local_sparsity_pattern: 0.714 [ms]
[OGL LOG][Proc: 0]p: update_local_matrix_data: 0.639 [ms]
[OGL LOG][Proc: 0]p: update_non_local_matrix_data: 0.061 [ms]
[OGL LOG][Proc: 0]device_partition: call_init: 0.144 [ms]
[OGL LOG][Proc: 0]p_matrix: call_init: 67.999 [ms]
[OGL LOG][Proc: 0]p_rhs: call_init: 1.988 [ms]
[OGL LOG][Proc: 0]p_solution: call_init: 0.232 [ms]
[OGL LOG][Proc: 0]p: init_precond: 0.079 [ms]
[OGL LOG][StoppingCriterion.H:373] Creating stopping criterion with minIter 0 frequency 1
[OGL LOG][Proc: 0]p: generate_solver: 0.079 [ms]
[OGL LOG][Proc: 0]p: solve: 2526.78 [ms]
[OGL LOG][Proc: 0]p: copy_x_back: 0.175 [ms]
[OGL LOG][lduLduBase.H:330] 
Statistics:
	Time per iteration: 3186 [mu s]
	Time per residual norm calculation: 1466.000000 [mu s]
	Time per iteration and DOF: 3.186000 [ns]
	Retrieve results bandwidth 1.428000 [GByte/s]
[OGL LOG][Proc: 0]p: solve_multi_gpu: 2599.35 [ms]
nonehipGKOCG:  Solving for p, Initial residual = 1, Final residual = 9.97024e-05, No Iterations 793
[INFO] SolveP: 2965.54 [ms]
time step continuity errors : sum local = 2.14213e-08, global = -1.25487e-21, cumulative = -1.25487e-21
[INFO] ContinuityError: 1.494 [ms]
[INFO] CorrectBoundary: 0.131 [ms]
[INFO] PISOStep: 2977.98 [ms]
[INFO] MatrixAssemblyPI: 5.98 [ms]
[INFO] AdjustPhi: 1.163 [ms]
[INFO] ConstrainPressure: 0.002 [ms]
[INFO] MatrixAssemblyPII: 1.819 [ms]
[OGL LOG][Proc: 0]: global_index_init: 0.041 [ms]
[OGL LOG][Proc: 0]p_local_coeffs: call_update: 0.005 [ms]
[OGL LOG][Proc: 0]p_non_local_coeffs: call_update: 0 [ms]
[OGL LOG][Proc: 0]p: update_local_matrix_data: 0.811 [ms]
[OGL LOG][Proc: 0]p: update_non_local_matrix_data: 0.026 [ms]
[OGL LOG][Proc: 0]p_matrix: call_update: 2.262 [ms]
[OGL LOG][Proc: 0]p_rhs: call_update: 0.084 [ms]
[OGL LOG][Proc: 0]p: init_precond: 0.044 [ms]
[OGL LOG][StoppingCriterion.H:373] Creating stopping criterion with minIter 475 frequency 12
[OGL LOG][Proc: 0]p: generate_solver: 0.002 [ms]
[OGL LOG][Proc: 0]p: solve: 479.434 [ms]
[OGL LOG][Proc: 0]p: copy_x_back: 0.147 [ms]
[OGL LOG][lduLduBase.H:330] 
Statistics:
	Time per iteration: 604 [mu s]
	Time per residual norm calculation: 132.000000 [mu s]
	Time per iteration and DOF: 0.604000 [ns]
	Retrieve results bandwidth 1.700000 [GByte/s]
[OGL LOG][Proc: 0]p: solve_multi_gpu: 482.452 [ms]
nonehipGKOCG:  Solving for p, Initial residual = 0.731148, Final residual = 6.36396e-05, No Iterations 793
[INFO] SolveP: 483.891 [ms]
time step continuity errors : sum local = 1.80547e-08, global = 4.29242e-22, cumulative = -8.2563e-22
[INFO] ContinuityError: 1.201 [ms]
[INFO] CorrectBoundary: 0.045 [ms]
[INFO] PISOStep: 496.785 [ms]
[INFO] TimeStep: 3507.54 [ms]
ExecutionTime = 3.83 s  ClockTime = 4 s

Time = 0.001

Courant Number mean: 0.0215183 max: 0.377124
[INFO] MatrixAssemblyU: 3.797 [ms]
DILUPBiCGStab:  Solving for Ux, Initial residual = 0.150306, Final residual = 0.00140866, No Iterations 5
DILUPBiCGStab:  Solving for Uy, Initial residual = 0.368268, Final residual = 0.00287079, No Iterations 5
DILUPBiCGStab:  Solving for Uz, Initial residual = 0.986415, Final residual = 0.00765767, No Iterations 5
[INFO] MomentumPredictor: 41.466 [ms]
[INFO] MatrixAssemblyPI: 5.52 [ms]
[INFO] AdjustPhi: 0.253 [ms]
[INFO] ConstrainPressure: 0.002 [ms]
[INFO] MatrixAssemblyPII: 1.668 [ms]
[OGL LOG][Proc: 0]: global_index_init: 0.051 [ms]
[OGL LOG][Proc: 0]p_local_coeffs: call_update: 0 [ms]
[OGL LOG][Proc: 0]p_non_local_coeffs: call_update: 0 [ms]
[OGL LOG][Proc: 0]p: update_local_matrix_data: 0.574 [ms]
[OGL LOG][Proc: 0]p: update_non_local_matrix_data: 0.02 [ms]
[OGL LOG][Proc: 0]p_matrix: call_update: 1.86 [ms]
[OGL LOG][Proc: 0]p_rhs: call_update: 0.248 [ms]
[OGL LOG][Proc: 0]p: init_precond: 0.033 [ms]
[OGL LOG][StoppingCriterion.H:373] Creating stopping criterion with minIter 475 frequency 8
[OGL LOG][Proc: 0]p: generate_solver: 0.001 [ms]
[OGL LOG][Proc: 0]p: solve: 619.644 [ms]
[OGL LOG][Proc: 0]p: copy_x_back: 0.207 [ms]
[OGL LOG][lduLduBase.H:330] 
Statistics:
	Time per iteration: 797 [mu s]
	Time per residual norm calculation: 139.000000 [mu s]
	Time per iteration and DOF: 0.797000 [ns]
	Retrieve results bandwidth 1.207000 [GByte/s]
[OGL LOG][Proc: 0]p: solve_multi_gpu: 622.417 [ms]
nonehipGKOCG:  Solving for p, Initial residual = 0.693019, Final residual = 9.37452e-05, No Iterations 777
[INFO] SolveP: 623.618 [ms]
time step continuity errors : sum local = 2.99875e-08, global = -3.25521e-21, cumulative = -4.08084e-21
[INFO] ContinuityError: 0.761 [ms]
[INFO] CorrectBoundary: 0.052 [ms]
[INFO] PISOStep: 635.351 [ms]
[INFO] MatrixAssemblyPI: 5.745 [ms]
[INFO] AdjustPhi: 0.7 [ms]
[INFO] ConstrainPressure: 0.002 [ms]
[INFO] MatrixAssemblyPII: 1.725 [ms]
[OGL LOG][Proc: 0]: global_index_init: 0.047 [ms]
[OGL LOG][Proc: 0]p_local_coeffs: call_update: 0 [ms]
[OGL LOG][Proc: 0]p_non_local_coeffs: call_update: 0 [ms]
[OGL LOG][Proc: 0]p: update_local_matrix_data: 1.048 [ms]
[OGL LOG][Proc: 0]p: update_non_local_matrix_data: 0.027 [ms]
[OGL LOG][Proc: 0]p_matrix: call_update: 2.058 [ms]
[OGL LOG][Proc: 0]p_rhs: call_update: 0.373 [ms]
[OGL LOG][Proc: 0]p: init_precond: 0.034 [ms]
[OGL LOG][StoppingCriterion.H:373] Creating stopping criterion with minIter 466 frequency 7
[OGL LOG][Proc: 0]p: generate_solver: 0.001 [ms]
[OGL LOG][Proc: 0]p: solve: 517.938 [ms]
[OGL LOG][Proc: 0]p: copy_x_back: 0.132 [ms]
[OGL LOG][lduLduBase.H:330] 
Statistics:
	Time per iteration: 665 [mu s]
	Time per residual norm calculation: 138.000000 [mu s]
	Time per iteration and DOF: 0.665000 [ns]
	Retrieve results bandwidth 1.893000 [GByte/s]
[OGL LOG][Proc: 0]p: solve_multi_gpu: 520.905 [ms]
nonehipGKOCG:  Solving for p, Initial residual = 0.622412, Final residual = 7.61879e-05, No Iterations 778
[INFO] SolveP: 522.657 [ms]
time step continuity errors : sum local = 2.48594e-08, global = 6.96277e-21, cumulative = 2.88192e-21
[INFO] ContinuityError: 1.44 [ms]
[INFO] CorrectBoundary: 0.553 [ms]
[INFO] PISOStep: 535.098 [ms]
[INFO] TimeStep: 1217.4 [ms]
ExecutionTime = 5.04 s  ClockTime = 6 s

Time = 0.0015

Courant Number mean: 0.0324754 max: 0.441214
[INFO] MatrixAssemblyU: 3.074 [ms]
DILUPBiCGStab:  Solving for Ux, Initial residual = 0.0531326, Final residual = 0.000432441, No Iterations 5
DILUPBiCGStab:  Solving for Uy, Initial residual = 0.124792, Final residual = 0.000734738, No Iterations 5
DILUPBiCGStab:  Solving for Uz, Initial residual = 0.579662, Final residual = 0.00404628, No Iterations 5
[INFO] MomentumPredictor: 42.352 [ms]
[INFO] MatrixAssemblyPI: 5.034 [ms]
[INFO] AdjustPhi: 0.856 [ms]
[INFO] ConstrainPressure: 0.002 [ms]
[INFO] MatrixAssemblyPII: 1.64 [ms]
[OGL LOG][Proc: 0]: global_index_init: 0.05 [ms]
[OGL LOG][Proc: 0]p_local_coeffs: call_update: 0 [ms]
[OGL LOG][Proc: 0]p_non_local_coeffs: call_update: 0 [ms]
[OGL LOG][Proc: 0]p: update_local_matrix_data: 0.449 [ms]
[OGL LOG][Proc: 0]p: update_non_local_matrix_data: 0.023 [ms]
[OGL LOG][Proc: 0]p_matrix: call_update: 1.7 [ms]
[OGL LOG][Proc: 0]p_rhs: call_update: 0.485 [ms]
[OGL LOG][Proc: 0]p: init_precond: 0.029 [ms]
[OGL LOG][StoppingCriterion.H:373] Creating stopping criterion with minIter 466 frequency 8
[OGL LOG][Proc: 0]p: generate_solver: 0.002 [ms]
[OGL LOG][Proc: 0]p: solve: 488.267 [ms]
[OGL LOG][Proc: 0]p: copy_x_back: 0.142 [ms]
[OGL LOG][lduLduBase.H:330] 
Statistics:
	Time per iteration: 634 [mu s]
	Time per residual norm calculation: 142.000000 [mu s]
	Time per iteration and DOF: 0.634000 [ns]
	Retrieve results bandwidth 1.760000 [GByte/s]
[OGL LOG][Proc: 0]p: solve_multi_gpu: 491.29 [ms]
nonehipGKOCG:  Solving for p, Initial residual = 0.633362, Final residual = 9.66694e-05, No Iterations 769
[INFO] SolveP: 492.221 [ms]
time step continuity errors : sum local = 2.22012e-08, global = 1.8819e-21, cumulative = 4.76382e-21
[INFO] ContinuityError: 1.421 [ms]
[INFO] CorrectBoundary: 0.045 [ms]
[INFO] PISOStep: 503.528 [ms]
[INFO] MatrixAssemblyPI: 5.352 [ms]
[INFO] AdjustPhi: 0.9 [ms]
[INFO] ConstrainPressure: 0.003 [ms]
[INFO] MatrixAssemblyPII: 1.809 [ms]
[OGL LOG][Proc: 0]: global_index_init: 0.044 [ms]
[OGL LOG][Proc: 0]p_local_coeffs: call_update: 0 [ms]
[OGL LOG][Proc: 0]p_non_local_coeffs: call_update: 0 [ms]
[OGL LOG][Proc: 0]p: update_local_matrix_data: 0.578 [ms]
[OGL LOG][Proc: 0]p: update_non_local_matrix_data: 0.02 [ms]
[OGL LOG][Proc: 0]p_matrix: call_update: 1.726 [ms]
[OGL LOG][Proc: 0]p_rhs: call_update: 0.362 [ms]
[OGL LOG][Proc: 0]p: init_precond: 0.034 [ms]
[OGL LOG][StoppingCriterion.H:373] Creating stopping criterion with minIter 461 frequency 8
[OGL LOG][Proc: 0]p: generate_solver: 0.001 [ms]
[OGL LOG][Proc: 0]p: solve: 523.75 [ms]
[OGL LOG][Proc: 0]p: copy_x_back: 0.217 [ms]
[OGL LOG][lduLduBase.H:330] 
Statistics:
	Time per iteration: 681 [mu s]
	Time per residual norm calculation: 137.000000 [mu s]
	Time per iteration and DOF: 0.681000 [ns]
	Retrieve results bandwidth 1.152000 [GByte/s]
[OGL LOG][Proc: 0]p: solve_multi_gpu: 526.691 [ms]
nonehipGKOCG:  Solving for p, Initial residual = 0.580733, Final residual = 8.58427e-05, No Iterations 769
[INFO] SolveP: 527.811 [ms]
time step continuity errors : sum local = 1.91877e-08, global = 1.69642e-21, cumulative = 6.46024e-21
[INFO] ContinuityError: 0.804 [ms]
[INFO] CorrectBoundary: 0.048 [ms]
[INFO] PISOStep: 540.231 [ms]
[INFO] TimeStep: 1090.3 [ms]
ExecutionTime = 6.11 s  ClockTime = 7 s

Time = 0.002

Courant Number mean: 0.0388747 max: 0.452907
[INFO] MatrixAssemblyU: 4.784 [ms]
DILUPBiCGStab:  Solving for Ux, Initial residual = 0.031917, Final residual = 0.000229001, No Iterations 5
DILUPBiCGStab:  Solving for Uy, Initial residual = 0.0814101, Final residual = 0.000474782, No Iterations 5
DILUPBiCGStab:  Solving for Uz, Initial residual = 0.27975, Final residual = 0.00157835, No Iterations 5
[INFO] MomentumPredictor: 50.757 [ms]
[INFO] MatrixAssemblyPI: 5.194 [ms]
[INFO] AdjustPhi: 1.252 [ms]
[INFO] ConstrainPressure: 0.002 [ms]
[INFO] MatrixAssemblyPII: 1.692 [ms]
[OGL LOG][Proc: 0]: global_index_init: 0.037 [ms]
[OGL LOG][Proc: 0]p_local_coeffs: call_update: 0 [ms]
[OGL LOG][Proc: 0]p_non_local_coeffs: call_update: 0 [ms]
[OGL LOG][Proc: 0]p: update_local_matrix_data: 0.883 [ms]
[OGL LOG][Proc: 0]p: update_non_local_matrix_data: 0.025 [ms]
[OGL LOG][Proc: 0]p_matrix: call_update: 2.105 [ms]
[OGL LOG][Proc: 0]p_rhs: call_update: 0.118 [ms]
[OGL LOG][Proc: 0]p: init_precond: 0.033 [ms]
[OGL LOG][StoppingCriterion.H:373] Creating stopping criterion with minIter 461 frequency 8
[OGL LOG][Proc: 0]p: generate_solver: 0.002 [ms]
[OGL LOG][Proc: 0]p: solve: 541 [ms]
[OGL LOG][Proc: 0]p: copy_x_back: 0.157 [ms]
[OGL LOG][lduLduBase.H:330] 
Statistics:
	Time per iteration: 703 [mu s]
	Time per residual norm calculation: 132.000000 [mu s]
	Time per iteration and DOF: 0.703000 [ns]
	Retrieve results bandwidth 1.592000 [GByte/s]
[OGL LOG][Proc: 0]p: solve_multi_gpu: 543.697 [ms]
nonehipGKOCG:  Solving for p, Initial residual = 0.414393, Final residual = 5.51059e-05, No Iterations 769
[INFO] SolveP: 545.047 [ms]
time step continuity errors : sum local = 1.08132e-08, global = -1.87036e-21, cumulative = 4.58988e-21
[INFO] ContinuityError: 1.45 [ms]
[INFO] CorrectBoundary: 0.453 [ms]
[INFO] PISOStep: 557.265 [ms]
[INFO] MatrixAssemblyPI: 4.961 [ms]
[INFO] AdjustPhi: 1.392 [ms]
[INFO] ConstrainPressure: 0.002 [ms]
[INFO] MatrixAssemblyPII: 1.636 [ms]
[OGL LOG][Proc: 0]: global_index_init: 0.038 [ms]
[OGL LOG][Proc: 0]p_local_coeffs: call_update: 0 [ms]
[OGL LOG][Proc: 0]p_non_local_coeffs: call_update: 0 [ms]
[OGL LOG][Proc: 0]p: update_local_matrix_data: 0.566 [ms]
[OGL LOG][Proc: 0]p: update_non_local_matrix_data: 0.019 [ms]
[OGL LOG][Proc: 0]p_matrix: call_update: 1.734 [ms]
[OGL LOG][Proc: 0]p_rhs: call_update: 0.495 [ms]
[OGL LOG][Proc: 0]p: init_precond: 0.033 [ms]
[OGL LOG][StoppingCriterion.H:373] Creating stopping criterion with minIter 461 frequency 7
[OGL LOG][Proc: 0]p: generate_solver: 0.002 [ms]
[OGL LOG][Proc: 0]p: solve: 518.926 [ms]
[OGL LOG][Proc: 0]p: copy_x_back: 0.13 [ms]
[OGL LOG][lduLduBase.H:330] 
Statistics:
	Time per iteration: 679 [mu s]
	Time per residual norm calculation: 137.000000 [mu s]
	Time per iteration and DOF: 0.679000 [ns]
	Retrieve results bandwidth 1.923000 [GByte/s]
[OGL LOG][Proc: 0]p: solve_multi_gpu: 521.939 [ms]
nonehipGKOCG:  Solving for p, Initial residual = 0.352456, Final residual = 7.381e-05, No Iterations 764
[INFO] SolveP: 523.159 [ms]
time step continuity errors : sum local = 1.46273e-08, global = -2.697e-21, cumulative = 1.89288e-21
[INFO] ContinuityError: 1.634 [ms]
[INFO] CorrectBoundary: 0.299 [ms]
[INFO] PISOStep: 535.427 [ms]
[INFO] TimeStep: 1149.21 [ms]
ExecutionTime = 7.26 s  ClockTime = 8 s

Time = 0.0025

Courant Number mean: 0.0439274 max: 0.459589
[INFO] MatrixAssemblyU: 3.158 [ms]
DILUPBiCGStab:  Solving for Ux, Initial residual = 0.0235243, Final residual = 0.000146231, No Iterations 5
DILUPBiCGStab:  Solving for Uy, Initial residual = 0.0515453, Final residual = 0.000276605, No Iterations 5
DILUPBiCGStab:  Solving for Uz, Initial residual = 0.100867, Final residual = 0.000574576, No Iterations 5
[INFO] MomentumPredictor: 42.402 [ms]
[INFO] MatrixAssemblyPI: 5.118 [ms]
[INFO] AdjustPhi: 0.632 [ms]
[INFO] ConstrainPressure: 0.002 [ms]
[INFO] MatrixAssemblyPII: 1.642 [ms]
[OGL LOG][Proc: 0]: global_index_init: 0.039 [ms]
[OGL LOG][Proc: 0]p_local_coeffs: call_update: 0 [ms]
[OGL LOG][Proc: 0]p_non_local_coeffs: call_update: 0 [ms]
[OGL LOG][Proc: 0]p: update_local_matrix_data: 0.464 [ms]
[OGL LOG][Proc: 0]p: update_non_local_matrix_data: 0.022 [ms]
[OGL LOG][Proc: 0]p_matrix: call_update: 1.743 [ms]
[OGL LOG][Proc: 0]p_rhs: call_update: 0.516 [ms]
[OGL LOG][Proc: 0]p: init_precond: 0.03 [ms]
[OGL LOG][StoppingCriterion.H:373] Creating stopping criterion with minIter 458 frequency 8
[OGL LOG][Proc: 0]p: generate_solver: 0.001 [ms]
[OGL LOG][Proc: 0]p: solve: 449.16 [ms]
[OGL LOG][Proc: 0]p: copy_x_back: 0.149 [ms]
[OGL LOG][lduLduBase.H:330] 
Statistics:
	Time per iteration: 616 [mu s]
	Time per residual norm calculation: 143.000000 [mu s]
	Time per iteration and DOF: 0.616000 [ns]
	Retrieve results bandwidth 1.677000 [GByte/s]
[OGL LOG][Proc: 0]p: solve_multi_gpu: 452.263 [ms]
nonehipGKOCG:  Solving for p, Initial residual = 0.315824, Final residual = 9.66002e-05, No Iterations 729
[INFO] SolveP: 453.197 [ms]
time step continuity errors : sum local = 1.56241e-08, global = -5.54379e-21, cumulative = -3.65091e-21
[INFO] ContinuityError: 1.338 [ms]
[INFO] CorrectBoundary: 0.052 [ms]
[INFO] PISOStep: 464.228 [ms]
[INFO] MatrixAssemblyPI: 4.943 [ms]
[INFO] AdjustPhi: 1.349 [ms]
[INFO] ConstrainPressure: 0.002 [ms]
[INFO] MatrixAssemblyPII: 1.707 [ms]
[OGL LOG][Proc: 0]: global_index_init: 0.034 [ms]
[OGL LOG][Proc: 0]p_local_coeffs: call_update: 0 [ms]
[OGL LOG][Proc: 0]p_non_local_coeffs: call_update: 0 [ms]
[OGL LOG][Proc: 0]p: update_local_matrix_data: 0.764 [ms]
[OGL LOG][Proc: 0]p: update_non_local_matrix_data: 0.023 [ms]
[OGL LOG][Proc: 0]p_matrix: call_update: 1.775 [ms]
[OGL LOG][Proc: 0]p_rhs: call_update: 0.31 [ms]
[OGL LOG][Proc: 0]p: init_precond: 0.031 [ms]
[OGL LOG][StoppingCriterion.H:373] Creating stopping criterion with minIter 437 frequency 8
[OGL LOG][Proc: 0]p: generate_solver: 0.002 [ms]
[OGL LOG][Proc: 0]p: solve: 437.242 [ms]
[OGL LOG][Proc: 0]p: copy_x_back: 0.155 [ms]
[OGL LOG][lduLduBase.H:330] 
Statistics:
	Time per iteration: 599 [mu s]
	Time per residual norm calculation: 138.000000 [mu s]
	Time per iteration and DOF: 0.599000 [ns]
	Retrieve results bandwidth 1.612000 [GByte/s]
[OGL LOG][Proc: 0]p: solve_multi_gpu: 440.081 [ms]
nonehipGKOCG:  Solving for p, Initial residual = 0.270204, Final residual = 8.80713e-05, No Iterations 729
[INFO] SolveP: 441.331 [ms]
time step continuity errors : sum local = 1.41372e-08, global = -2.90258e-21, cumulative = -6.55349e-21
[INFO] ContinuityError: 1.416 [ms]
[INFO] CorrectBoundary: 0.591 [ms]
[INFO] PISOStep: 453.554 [ms]
[INFO] TimeStep: 964.728 [ms]
ExecutionTime = 8.22 s  ClockTime = 9 s

Time = 0.003

Courant Number mean: 0.0479685 max: 0.463832
[INFO] MatrixAssemblyU: 4.166 [ms]
DILUPBiCGStab:  Solving for Ux, Initial residual = 0.017906, Final residual = 0.000103903, No Iterations 5
DILUPBiCGStab:  Solving for Uy, Initial residual = 0.0401374, Final residual = 0.000165324, No Iterations 5
DILUPBiCGStab:  Solving for Uz, Initial residual = 0.0870363, Final residual = 0.000512629, No Iterations 5
[INFO] MomentumPredictor: 47.666 [ms]
[INFO] MatrixAssemblyPI: 5.258 [ms]
[INFO] AdjustPhi: 1.425 [ms]
[INFO] ConstrainPressure: 0.002 [ms]
[INFO] MatrixAssemblyPII: 1.683 [ms]
[OGL LOG][Proc: 0]: global_index_init: 0.042 [ms]
[OGL LOG][Proc: 0]p_local_coeffs: call_update: 0 [ms]
[OGL LOG][Proc: 0]p_non_local_coeffs: call_update: 0 [ms]
[OGL LOG][Proc: 0]p: update_local_matrix_data: 0.587 [ms]
[OGL LOG][Proc: 0]p: update_non_local_matrix_data: 0.02 [ms]
[OGL LOG][Proc: 0]p_matrix: call_update: 1.723 [ms]
[OGL LOG][Proc: 0]p_rhs: call_update: 0.347 [ms]
[OGL LOG][Proc: 0]p: init_precond: 0.032 [ms]
[OGL LOG][StoppingCriterion.H:373] Creating stopping criterion with minIter 437 frequency 8
[OGL LOG][Proc: 0]p: generate_solver: 0.002 [ms]
[OGL LOG][Proc: 0]p: solve: 515.822 [ms]
[OGL LOG][Proc: 0]p: copy_x_back: 0.202 [ms]
[OGL LOG][lduLduBase.H:330] 
Statistics:
	Time per iteration: 707 [mu s]
	Time per residual norm calculation: 139.000000 [mu s]
	Time per iteration and DOF: 0.707000 [ns]
	Retrieve results bandwidth 1.237000 [GByte/s]
[OGL LOG][Proc: 0]p: solve_multi_gpu: 518.671 [ms]
nonehipGKOCG:  Solving for p, Initial residual = 0.197692, Final residual = 8.80929e-05, No Iterations 729
[INFO] SolveP: 519.79 [ms]
time step continuity errors : sum local = 1.37511e-08, global = 5.78703e-21, cumulative = -7.6646e-22
[INFO] ContinuityError: 0.788 [ms]
[INFO] CorrectBoundary: 0.049 [ms]
[INFO] PISOStep: 532.561 [ms]
[INFO] MatrixAssemblyPI: 5.333 [ms]
[INFO] AdjustPhi: 0.526 [ms]
[INFO] ConstrainPressure: 0.001 [ms]
[INFO] MatrixAssemblyPII: 1.958 [ms]
[OGL LOG][Proc: 0]: global_index_init: 0.06 [ms]
[OGL LOG][Proc: 0]p_local_coeffs: call_update: 0 [ms]
[OGL LOG][Proc: 0]p_non_local_coeffs: call_update: 0 [ms]
[OGL LOG][Proc: 0]p: update_local_matrix_data: 0.923 [ms]
[OGL LOG][Proc: 0]p: update_non_local_matrix_data: 0.024 [ms]
[OGL LOG][Proc: 0]p_matrix: call_update: 1.821 [ms]
[OGL LOG][Proc: 0]p_rhs: call_update: 8.084 [ms]
[OGL LOG][Proc: 0]p: init_precond: 0.036 [ms]
[OGL LOG][StoppingCriterion.H:373] Creating stopping criterion with minIter 437 frequency 7
[OGL LOG][Proc: 0]p: generate_solver: 0.002 [ms]
[OGL LOG][Proc: 0]p: solve: 425.222 [ms]
[OGL LOG][Proc: 0]p: copy_x_back: 0.139 [ms]
[OGL LOG][lduLduBase.H:330] 
Statistics:
	Time per iteration: 588 [mu s]
	Time per residual norm calculation: 148.000000 [mu s]
	Time per iteration and DOF: 0.588000 [ns]
	Retrieve results bandwidth 1.798000 [GByte/s]
[OGL LOG][Proc: 0]p: solve_multi_gpu: 435.536 [ms]
nonehipGKOCG:  Solving for p, Initial residual = 0.164448, Final residual = 8.70895e-05, No Iterations 722
[INFO] SolveP: 436.983 [ms]
time step continuity errors : sum local = 1.36069e-08, global = 5.19024e-23, cumulative = -7.14558e-22
[INFO] ContinuityError: 1.18 [ms]
[INFO] CorrectBoundary: 0.385 [ms]
[INFO] PISOStep: 448.973 [ms]
[INFO] TimeStep: 1034.35 [ms]
ExecutionTime = 9.25 s  ClockTime = 10 s

Time = 0.0035

Courant Number mean: 0.0513786 max: 0.466711
[INFO] MatrixAssemblyU: 4.234 [ms]
DILUPBiCGStab:  Solving for Ux, Initial residual = 0.0146519, Final residual = 7.22087e-05, No Iterations 5
DILUPBiCGStab:  Solving for Uy, Initial residual = 0.0317673, Final residual = 0.00014162, No Iterations 5
DILUPBiCGStab:  Solving for Uz, Initial residual = 0.0578192, Final residual = 0.000307682, No Iterations 5
[INFO] MomentumPredictor: 41.195 [ms]
[INFO] MatrixAssemblyPI: 5.398 [ms]
[INFO] AdjustPhi: 0.291 [ms]
[INFO] ConstrainPressure: 0.002 [ms]
[INFO] MatrixAssemblyPII: 1.638 [ms]
[OGL LOG][Proc: 0]: global_index_init: 0.045 [ms]
[OGL LOG][Proc: 0]p_local_coeffs: call_update: 0 [ms]
[OGL LOG][Proc: 0]p_non_local_coeffs: call_update: 0 [ms]
[OGL LOG][Proc: 0]p: update_local_matrix_data: 0.548 [ms]
[OGL LOG][Proc: 0]p: update_non_local_matrix_data: 0.02 [ms]
[OGL LOG][Proc: 0]p_matrix: call_update: 1.854 [ms]
[OGL LOG][Proc: 0]p_rhs: call_update: 0.263 [ms]
[OGL LOG][Proc: 0]p: init_precond: 0.032 [ms]
[OGL LOG][StoppingCriterion.H:373] Creating stopping criterion with minIter 433 frequency 9
[OGL LOG][Proc: 0]p: generate_solver: 0.001 [ms]
[OGL LOG][Proc: 0]p: solve: 341.398 [ms]
[OGL LOG][Proc: 0]p: copy_x_back: 0.148 [ms]
[OGL LOG][lduLduBase.H:330] 
Statistics:
	Time per iteration: 742 [mu s]
	Time per residual norm calculation: 138.000000 [mu s]
	Time per iteration and DOF: 0.742000 [ns]
	Retrieve results bandwidth 1.689000 [GByte/s]
[OGL LOG][Proc: 0]p: solve_multi_gpu: 344.276 [ms]
nonehipGKOCG:  Solving for p, Initial residual = 0.139443, Final residual = 9.02318e-05, No Iterations 460
[INFO] SolveP: 345.402 [ms]
time step continuity errors : sum local = 1.46213e-08, global = -1.34375e-20, cumulative = -1.41521e-20
[INFO] ContinuityError: 1.417 [ms]
[INFO] CorrectBoundary: 0.577 [ms]
[INFO] PISOStep: 356.943 [ms]
[INFO] MatrixAssemblyPI: 5.329 [ms]
[INFO] AdjustPhi: 0.619 [ms]
[INFO] ConstrainPressure: 0.001 [ms]
[INFO] MatrixAssemblyPII: 1.647 [ms]
[OGL LOG][Proc: 0]: global_index_init: 0.038 [ms]
[OGL LOG][Proc: 0]p_local_coeffs: call_update: 0 [ms]
[OGL LOG][Proc: 0]p_non_local_coeffs: call_update: 0 [ms]
[OGL LOG][Proc: 0]p: update_local_matrix_data: 0.514 [ms]
[OGL LOG][Proc: 0]p: update_non_local_matrix_data: 0.023 [ms]
[OGL LOG][Proc: 0]p_matrix: call_update: 1.703 [ms]
[OGL LOG][Proc: 0]p_rhs: call_update: 0.445 [ms]
[OGL LOG][Proc: 0]p: init_precond: 0.039 [ms]
[OGL LOG][StoppingCriterion.H:373] Creating stopping criterion with minIter 276 frequency 6
[OGL LOG][Proc: 0]p: generate_solver: 0.002 [ms]
[OGL LOG][Proc: 0]p: solve: 206.65 [ms]
[OGL LOG][Proc: 0]p: copy_x_back: 0.15 [ms]
[OGL LOG][lduLduBase.H:330] 
Statistics:
	Time per iteration: 624 [mu s]
	Time per residual norm calculation: 135.000000 [mu s]
	Time per iteration and DOF: 0.624000 [ns]
	Retrieve results bandwidth 1.666000 [GByte/s]
[OGL LOG][Proc: 0]p: solve_multi_gpu: 209.606 [ms]
nonehipGKOCG:  Solving for p, Initial residual = 0.116607, Final residual = 9.56577e-05, No Iterations 331
[INFO] SolveP: 210.624 [ms]
time step continuity errors : sum local = 1.45354e-08, global = -9.01782e-21, cumulative = -2.31699e-20
[INFO] ContinuityError: 1.357 [ms]
[INFO] CorrectBoundary: 0.06 [ms]
[INFO] PISOStep: 222.31 [ms]
[INFO] TimeStep: 626.115 [ms]
ExecutionTime = 9.87 s  ClockTime = 10 s

Time = 0.004

Courant Number mean: 0.0543189 max: 0.468922
[INFO] MatrixAssemblyU: 3.933 [ms]
DILUPBiCGStab:  Solving for Ux, Initial residual = 0.0122928, Final residual = 5.46137e-05, No Iterations 5
DILUPBiCGStab:  Solving for Uy, Initial residual = 0.0265259, Final residual = 8.83028e-05, No Iterations 5
DILUPBiCGStab:  Solving for Uz, Initial residual = 0.0521603, Final residual = 0.000215895, No Iterations 5
[INFO] MomentumPredictor: 41.458 [ms]
[INFO] MatrixAssemblyPI: 5.35 [ms]
[INFO] AdjustPhi: 0.356 [ms]
[INFO] ConstrainPressure: 0.002 [ms]
[INFO] MatrixAssemblyPII: 1.723 [ms]
[OGL LOG][Proc: 0]: global_index_init: 0.036 [ms]
[OGL LOG][Proc: 0]p_local_coeffs: call_update: 0 [ms]
[OGL LOG][Proc: 0]p_non_local_coeffs: call_update: 0 [ms]
[OGL LOG][Proc: 0]p: update_local_matrix_data: 0.573 [ms]
[OGL LOG][Proc: 0]p: update_non_local_matrix_data: 0.019 [ms]
[OGL LOG][Proc: 0]p_matrix: call_update: 1.644 [ms]
[OGL LOG][Proc: 0]p_rhs: call_update: 0.333 [ms]
[OGL LOG][Proc: 0]p: init_precond: 0.035 [ms]
[OGL LOG][StoppingCriterion.H:373] Creating stopping criterion with minIter 198 frequency 5
[OGL LOG][Proc: 0]p: generate_solver: 0.002 [ms]
[OGL LOG][Proc: 0]p: solve: 198.816 [ms]
[OGL LOG][Proc: 0]p: copy_x_back: 0.136 [ms]
[OGL LOG][lduLduBase.H:330] 
Statistics:
	Time per iteration: 609 [mu s]
	Time per residual norm calculation: 136.000000 [mu s]
	Time per iteration and DOF: 0.609000 [ns]
	Retrieve results bandwidth 1.838000 [GByte/s]
[OGL LOG][Proc: 0]p: solve_multi_gpu: 201.482 [ms]
nonehipGKOCG:  Solving for p, Initial residual = 0.0909897, Final residual = 9.24866e-05, No Iterations 326
[INFO] SolveP: 202.517 [ms]
time step continuity errors : sum local = 1.34474e-08, global = -6.88367e-21, cumulative = -3.00536e-20
[INFO] ContinuityError: 1.365 [ms]
[INFO] CorrectBoundary: 0.07 [ms]
[INFO] PISOStep: 213.621 [ms]
[INFO] MatrixAssemblyPI: 5.224 [ms]
[INFO] AdjustPhi: 0.696 [ms]
[INFO] ConstrainPressure: 0.002 [ms]
[INFO] MatrixAssemblyPII: 1.867 [ms]
[OGL LOG][Proc: 0]: global_index_init: 0.041 [ms]
[OGL LOG][Proc: 0]p_local_coeffs: call_update: 0 [ms]
[OGL LOG][Proc: 0]p_non_local_coeffs: call_update: 0 [ms]
[OGL LOG][Proc: 0]p: update_local_matrix_data: 0.58 [ms]
[OGL LOG][Proc: 0]p: update_non_local_matrix_data: 0.018 [ms]
[OGL LOG][Proc: 0]p_matrix: call_update: 1.816 [ms]
[OGL LOG][Proc: 0]p_rhs: call_update: 0.381 [ms]
[OGL LOG][Proc: 0]p: init_precond: 0.034 [ms]
[OGL LOG][StoppingCriterion.H:373] Creating stopping criterion with minIter 195 frequency 5
[OGL LOG][Proc: 0]p: generate_solver: 0.001 [ms]
[OGL LOG][Proc: 0]p: solve: 193.786 [ms]
[OGL LOG][Proc: 0]p: copy_x_back: 0.139 [ms]
[OGL LOG][lduLduBase.H:330] 
Statistics:
	Time per iteration: 603 [mu s]
	Time per residual norm calculation: 133.000000 [mu s]
	Time per iteration and DOF: 0.603000 [ns]
	Retrieve results bandwidth 1.798000 [GByte/s]
[OGL LOG][Proc: 0]p: solve_multi_gpu: 196.64 [ms]
nonehipGKOCG:  Solving for p, Initial residual = 0.0753357, Final residual = 9.72509e-05, No Iterations 321
[INFO] SolveP: 197.726 [ms]
time step continuity errors : sum local = 1.4156e-08, global = -7.87385e-21, cumulative = -3.79274e-20
[INFO] ContinuityError: 1.583 [ms]
[INFO] CorrectBoundary: 0.037 [ms]
[INFO] PISOStep: 209.491 [ms]
[INFO] TimeStep: 470.012 [ms]
ExecutionTime = 10.33 s  ClockTime = 11 s

Time = 0.0045

Courant Number mean: 0.0568973 max: 0.470627
[INFO] MatrixAssemblyU: 4.156 [ms]
DILUPBiCGStab:  Solving for Ux, Initial residual = 0.010544, Final residual = 4.26213e-05, No Iterations 5
DILUPBiCGStab:  Solving for Uy, Initial residual = 0.0226755, Final residual = 7.58932e-05, No Iterations 5
DILUPBiCGStab:  Solving for Uz, Initial residual = 0.0436722, Final residual = 0.000164889, No Iterations 5
[INFO] MomentumPredictor: 41.194 [ms]
[INFO] MatrixAssemblyPI: 5.469 [ms]
[INFO] AdjustPhi: 0.255 [ms]
[INFO] ConstrainPressure: 0.004 [ms]
[INFO] MatrixAssemblyPII: 1.689 [ms]
[OGL LOG][Proc: 0]: global_index_init: 0.038 [ms]
[OGL LOG][Proc: 0]p_local_coeffs: call_update: 0 [ms]
[OGL LOG][Proc: 0]p_non_local_coeffs: call_update: 0 [ms]
[OGL LOG][Proc: 0]p: update_local_matrix_data: 0.594 [ms]
[OGL LOG][Proc: 0]p: update_non_local_matrix_data: 0.018 [ms]
[OGL LOG][Proc: 0]p_matrix: call_update: 1.929 [ms]
[OGL LOG][Proc: 0]p_rhs: call_update: 0.244 [ms]
[OGL LOG][Proc: 0]p: init_precond: 0.033 [ms]
[OGL LOG][StoppingCriterion.H:373] Creating stopping criterion with minIter 192 frequency 5
[OGL LOG][Proc: 0]p: generate_solver: 0.001 [ms]
[OGL LOG][Proc: 0]p: solve: 189.84 [ms]
[OGL LOG][Proc: 0]p: copy_x_back: 0.151 [ms]
[OGL LOG][lduLduBase.H:330] 
Statistics:
	Time per iteration: 582 [mu s]
	Time per residual norm calculation: 138.000000 [mu s]
	Time per iteration and DOF: 0.582000 [ns]
	Retrieve results bandwidth 1.655000 [GByte/s]
[OGL LOG][Proc: 0]p: solve_multi_gpu: 192.514 [ms]
nonehipGKOCG:  Solving for p, Initial residual = 0.0666977, Final residual = 9.97007e-05, No Iterations 326
[INFO] SolveP: 193.598 [ms]
time step continuity errors : sum local = 1.58876e-08, global = -8.52792e-21, cumulative = -4.64554e-20
[INFO] ContinuityError: 0.741 [ms]
[INFO] CorrectBoundary: 0.058 [ms]
[INFO] PISOStep: 204.113 [ms]
[INFO] MatrixAssemblyPI: 5.109 [ms]
[INFO] AdjustPhi: 0.35 [ms]
[INFO] ConstrainPressure: 0.002 [ms]
[INFO] MatrixAssemblyPII: 1.89 [ms]
[OGL LOG][Proc: 0]: global_index_init: 0.037 [ms]
[OGL LOG][Proc: 0]p_local_coeffs: call_update: 0 [ms]
[OGL LOG][Proc: 0]p_non_local_coeffs: call_update: 0 [ms]
[OGL LOG][Proc: 0]p: update_local_matrix_data: 0.556 [ms]
[OGL LOG][Proc: 0]p: update_non_local_matrix_data: 0.019 [ms]
[OGL LOG][Proc: 0]p_matrix: call_update: 2.233 [ms]
[OGL LOG][Proc: 0]p_rhs: call_update: 0.208 [ms]
[OGL LOG][Proc: 0]p: init_precond: 0.035 [ms]
[OGL LOG][StoppingCriterion.H:373] Creating stopping criterion with minIter 195 frequency 5
[OGL LOG][Proc: 0]p: generate_solver: 0.002 [ms]
[OGL LOG][Proc: 0]p: solve: 193.794 [ms]
[OGL LOG][Proc: 0]p: copy_x_back: 0.143 [ms]
[OGL LOG][lduLduBase.H:330] 
Statistics:
	Time per iteration: 603 [mu s]
	Time per residual norm calculation: 141.000000 [mu s]
	Time per iteration and DOF: 0.603000 [ns]
	Retrieve results bandwidth 1.748000 [GByte/s]
[OGL LOG][Proc: 0]p: solve_multi_gpu: 196.644 [ms]
nonehipGKOCG:  Solving for p, Initial residual = 0.0556644, Final residual = 8.94989e-05, No Iterations 321
[INFO] SolveP: 197.695 [ms]
time step continuity errors : sum local = 1.33694e-08, global = 4.60119e-23, cumulative = -4.64094e-20
[INFO] ContinuityError: 1.368 [ms]
[INFO] CorrectBoundary: 0.05 [ms]
[INFO] PISOStep: 208.73 [ms]
[INFO] TimeStep: 459.203 [ms]
ExecutionTime = 10.8 s  ClockTime = 11 s

Time = 0.005

Courant Number mean: 0.0591939 max: 0.472024
[INFO] MatrixAssemblyU: 3.88 [ms]
DILUPBiCGStab:  Solving for Ux, Initial residual = 0.00922463, Final residual = 3.56526e-05, No Iterations 5
DILUPBiCGStab:  Solving for Uy, Initial residual = 0.0197425, Final residual = 5.87888e-05, No Iterations 5
DILUPBiCGStab:  Solving for Uz, Initial residual = 0.0388055, Final residual = 0.000136287, No Iterations 5
[INFO] MomentumPredictor: 41.322 [ms]
[INFO] MatrixAssemblyPI: 5.521 [ms]
[INFO] AdjustPhi: 3.632 [ms]
[INFO] ConstrainPressure: 0.003 [ms]
[INFO] MatrixAssemblyPII: 1.683 [ms]
[OGL LOG][Proc: 0]: global_index_init: 0.04 [ms]
[OGL LOG][Proc: 0]p_local_coeffs: call_update: 0 [ms]
[OGL LOG][Proc: 0]p_non_local_coeffs: call_update: 0 [ms]
[OGL LOG][Proc: 0]p: update_local_matrix_data: 0.598 [ms]
[OGL LOG][Proc: 0]p: update_non_local_matrix_data: 0.021 [ms]
[OGL LOG][Proc: 0]p_matrix: call_update: 1.934 [ms]
[OGL LOG][Proc: 0]p_rhs: call_update: 0.394 [ms]
[OGL LOG][Proc: 0]p: init_precond: 0.034 [ms]
[OGL LOG][StoppingCriterion.H:373] Creating stopping criterion with minIter 192 frequency 5
[OGL LOG][Proc: 0]p: generate_solver: 0.002 [ms]
[OGL LOG][Proc: 0]p: solve: 187.325 [ms]
[OGL LOG][Proc: 0]p: copy_x_back: 0.151 [ms]
[OGL LOG][lduLduBase.H:330] 
Statistics:
	Time per iteration: 583 [mu s]
	Time per residual norm calculation: 133.000000 [mu s]
	Time per iteration and DOF: 0.583000 [ns]
	Retrieve results bandwidth 1.655000 [GByte/s]
[OGL LOG][Proc: 0]p: solve_multi_gpu: 190.4 [ms]
nonehipGKOCG:  Solving for p, Initial residual = 0.0448043, Final residual = 9.62425e-05, No Iterations 321
[INFO] SolveP: 191.481 [ms]
time step continuity errors : sum local = 1.42838e-08, global = -2.16256e-21, cumulative = -4.85719e-20
[INFO] ContinuityError: 0.78 [ms]
[INFO] CorrectBoundary: 0.075 [ms]
[INFO] PISOStep: 208.999 [ms]
[INFO] MatrixAssemblyPI: 5.437 [ms]
[INFO] AdjustPhi: 0.208 [ms]
[INFO] ConstrainPressure: 0.002 [ms]
[INFO] MatrixAssemblyPII: 1.906 [ms]
[OGL LOG][Proc: 0]: global_index_init: 0.048 [ms]
[OGL LOG][Proc: 0]p_local_coeffs: call_update: 0 [ms]
[OGL LOG][Proc: 0]p_non_local_coeffs: call_update: 0 [ms]
[OGL LOG][Proc: 0]p: update_local_matrix_data: 0.549 [ms]
[OGL LOG][Proc: 0]p: update_non_local_matrix_data: 0.019 [ms]
[OGL LOG][Proc: 0]p_matrix: call_update: 2.095 [ms]
[OGL LOG][Proc: 0]p_rhs: call_update: 0.255 [ms]
[OGL LOG][Proc: 0]p: init_precond: 0.034 [ms]
[OGL LOG][StoppingCriterion.H:373] Creating stopping criterion with minIter 192 frequency 5
[OGL LOG][Proc: 0]p: generate_solver: 0.002 [ms]
[OGL LOG][Proc: 0]p: solve: 203.142 [ms]
[OGL LOG][Proc: 0]p: copy_x_back: 0.13 [ms]
[OGL LOG][lduLduBase.H:330] 
Statistics:
	Time per iteration: 632 [mu s]
	Time per residual norm calculation: 135.000000 [mu s]
	Time per iteration and DOF: 0.632000 [ns]
	Retrieve results bandwidth 1.923000 [GByte/s]
[OGL LOG][Proc: 0]p: solve_multi_gpu: 205.884 [ms]
nonehipGKOCG:  Solving for p, Initial residual = 0.0378704, Final residual = 8.43208e-05, No Iterations 321
[INFO] SolveP: 206.929 [ms]
time step continuity errors : sum local = 1.20017e-08, global = -3.2796e-21, cumulative = -5.18515e-20
[INFO] ContinuityError: 1.424 [ms]
[INFO] CorrectBoundary: 0.043 [ms]
[INFO] PISOStep: 218.122 [ms]
[INFO] TimeStep: 473.86 [ms]
ExecutionTime = 11.27 s  ClockTime = 12 s

Time = 0.0055

Courant Number mean: 0.0612547 max: 0.473173
[INFO] MatrixAssemblyU: 3.994 [ms]
DILUPBiCGStab:  Solving for Ux, Initial residual = 0.00815163, Final residual = 2.98412e-05, No Iterations 5
DILUPBiCGStab:  Solving for Uy, Initial residual = 0.0174473, Final residual = 5.25179e-05, No Iterations 5
DILUPBiCGStab:  Solving for Uz, Initial residual = 0.034886, Final residual = 0.000120869, No Iterations 5
[INFO] MomentumPredictor: 40.754 [ms]
[INFO] MatrixAssemblyPI: 5.42 [ms]
[INFO] AdjustPhi: 0.29 [ms]
[INFO] ConstrainPressure: 0.003 [ms]
[INFO] MatrixAssemblyPII: 1.754 [ms]
[OGL LOG][Proc: 0]: global_index_init: 0.038 [ms]
[OGL LOG][Proc: 0]p_local_coeffs: call_update: 0 [ms]
[OGL LOG][Proc: 0]p_non_local_coeffs: call_update: 0 [ms]
[OGL LOG][Proc: 0]p: update_local_matrix_data: 0.578 [ms]
[OGL LOG][Proc: 0]p: update_non_local_matrix_data: 0.02 [ms]
[OGL LOG][Proc: 0]p_matrix: call_update: 1.701 [ms]
[OGL LOG][Proc: 0]p_rhs: call_update: 0.414 [ms]
[OGL LOG][Proc: 0]p: init_precond: 0.036 [ms]
[OGL LOG][StoppingCriterion.H:373] Creating stopping criterion with minIter 192 frequency 5
[OGL LOG][Proc: 0]p: generate_solver: 0.002 [ms]
[OGL LOG][Proc: 0]p: solve: 208.196 [ms]
[OGL LOG][Proc: 0]p: copy_x_back: 0.192 [ms]
[OGL LOG][lduLduBase.H:330] 
Statistics:
	Time per iteration: 610 [mu s]
	Time per residual norm calculation: 140.000000 [mu s]
	Time per iteration and DOF: 0.610000 [ns]
	Retrieve results bandwidth 1.302000 [GByte/s]
[OGL LOG][Proc: 0]p: solve_multi_gpu: 211.072 [ms]
nonehipGKOCG:  Solving for p, Initial residual = 0.0350492, Final residual = 9.7949e-05, No Iterations 341
[INFO] SolveP: 212.191 [ms]
time step continuity errors : sum local = 1.61241e-08, global = -3.97047e-22, cumulative = -5.22486e-20
[INFO] ContinuityError: 0.688 [ms]
[INFO] CorrectBoundary: 0.044 [ms]
[INFO] PISOStep: 223.753 [ms]
[INFO] MatrixAssemblyPI: 5.695 [ms]
[INFO] AdjustPhi: 0.187 [ms]
[INFO] ConstrainPressure: 0.002 [ms]
[INFO] MatrixAssemblyPII: 1.722 [ms]
[OGL LOG][Proc: 0]: global_index_init: 0.04 [ms]
[OGL LOG][Proc: 0]p_local_coeffs: call_update: 0 [ms]
[OGL LOG][Proc: 0]p_non_local_coeffs: call_update: 0 [ms]
[OGL LOG][Proc: 0]p: update_local_matrix_data: 0.877 [ms]
[OGL LOG][Proc: 0]p: update_non_local_matrix_data: 0.025 [ms]
[OGL LOG][Proc: 0]p_matrix: call_update: 1.978 [ms]
[OGL LOG][Proc: 0]p_rhs: call_update: 0.034 [ms]
[OGL LOG][Proc: 0]p: init_precond: 0.032 [ms]
[OGL LOG][StoppingCriterion.H:373] Creating stopping criterion with minIter 204 frequency 5
[OGL LOG][Proc: 0]p: generate_solver: 0.001 [ms]
[OGL LOG][Proc: 0]p: solve: 215.852 [ms]
[OGL LOG][Proc: 0]p: copy_x_back: 0.14 [ms]
[OGL LOG][lduLduBase.H:330] 
Statistics:
	Time per iteration: 683 [mu s]
	Time per residual norm calculation: 137.000000 [mu s]
	Time per iteration and DOF: 0.683000 [ns]
	Retrieve results bandwidth 1.785000 [GByte/s]
[OGL LOG][Proc: 0]p: solve_multi_gpu: 218.299 [ms]
nonehipGKOCG:  Solving for p, Initial residual = 0.0298137, Final residual = 9.95355e-05, No Iterations 316
[INFO] SolveP: 219.789 [ms]
time step continuity errors : sum local = 1.48646e-08, global = -5.45076e-21, cumulative = -5.76993e-20
[INFO] ContinuityError: 1.461 [ms]
[INFO] CorrectBoundary: 0.314 [ms]
[INFO] PISOStep: 231.295 [ms]
[INFO] TimeStep: 501.49 [ms]
ExecutionTime = 11.76 s  ClockTime = 12 s

Time = 0.006

Courant Number mean: 0.0631274 max: 0.474153
[INFO] MatrixAssemblyU: 3.79 [ms]
DILUPBiCGStab:  Solving for Ux, Initial residual = 0.0072907, Final residual = 2.61112e-05, No Iterations 5
DILUPBiCGStab:  Solving for Uy, Initial residual = 0.0155944, Final residual = 4.57044e-05, No Iterations 5
DILUPBiCGStab:  Solving for Uz, Initial residual = 0.0314773, Final residual = 0.000113697, No Iterations 5
[INFO] MomentumPredictor: 54.763 [ms]
[INFO] MatrixAssemblyPI: 5.202 [ms]
[INFO] AdjustPhi: 1.384 [ms]
[INFO] ConstrainPressure: 0.002 [ms]
[INFO] MatrixAssemblyPII: 1.679 [ms]
[OGL LOG][Proc: 0]: global_index_init: 0.037 [ms]
[OGL LOG][Proc: 0]p_local_coeffs: call_update: 0 [ms]
[OGL LOG][Proc: 0]p_non_local_coeffs: call_update: 0 [ms]
[OGL LOG][Proc: 0]p: update_local_matrix_data: 0.513 [ms]
[OGL LOG][Proc: 0]p: update_non_local_matrix_data: 0.022 [ms]
[OGL LOG][Proc: 0]p_matrix: call_update: 1.8 [ms]
[OGL LOG][Proc: 0]p_rhs: call_update: 0.37 [ms]
[OGL LOG][Proc: 0]p: init_precond: 0.034 [ms]
[OGL LOG][StoppingCriterion.H:373] Creating stopping criterion with minIter 189 frequency 5
[OGL LOG][Proc: 0]p: generate_solver: 0.002 [ms]
[OGL LOG][Proc: 0]p: solve: 255.563 [ms]
[OGL LOG][Proc: 0]p: copy_x_back: 0.131 [ms]
[OGL LOG][lduLduBase.H:330] 
Statistics:
	Time per iteration: 772 [mu s]
	Time per residual norm calculation: 137.000000 [mu s]
	Time per iteration and DOF: 0.772000 [ns]
	Retrieve results bandwidth 1.908000 [GByte/s]
[OGL LOG][Proc: 0]p: solve_multi_gpu: 258.499 [ms]
nonehipGKOCG:  Solving for p, Initial residual = 0.0252781, Final residual = 9.23883e-05, No Iterations 331
[INFO] SolveP: 259.697 [ms]
time step continuity errors : sum local = 1.4641e-08, global = -5.23916e-22, cumulative = -5.82232e-20
[INFO] ContinuityError: 1.552 [ms]
[INFO] CorrectBoundary: 0.548 [ms]
[INFO] PISOStep: 272.11 [ms]
[INFO] MatrixAssemblyPI: 5.34 [ms]
[INFO] AdjustPhi: 1.028 [ms]
[INFO] ConstrainPressure: 0.001 [ms]
[INFO] MatrixAssemblyPII: 1.796 [ms]
[OGL LOG][Proc: 0]: global_index_init: 0.042 [ms]
[OGL LOG][Proc: 0]p_local_coeffs: call_update: 0 [ms]
[OGL LOG][Proc: 0]p_non_local_coeffs: call_update: 0 [ms]
[OGL LOG][Proc: 0]p: update_local_matrix_data: 0.526 [ms]
[OGL LOG][Proc: 0]p: update_non_local_matrix_data: 0.019 [ms]
[OGL LOG][Proc: 0]p_matrix: call_update: 1.728 [ms]
[OGL LOG][Proc: 0]p_rhs: call_update: 0.456 [ms]
[OGL LOG][Proc: 0]p: init_precond: 0.034 [ms]
[OGL LOG][StoppingCriterion.H:373] Creating stopping criterion with minIter 198 frequency 5
[OGL LOG][Proc: 0]p: generate_solver: 0.002 [ms]
[OGL LOG][Proc: 0]p: solve: 181.537 [ms]
[OGL LOG][Proc: 0]p: copy_x_back: 0.137 [ms]
[OGL LOG][lduLduBase.H:330] 
Statistics:
	Time per iteration: 574 [mu s]
	Time per residual norm calculation: 132.000000 [mu s]
	Time per iteration and DOF: 0.574000 [ns]
	Retrieve results bandwidth 1.824000 [GByte/s]
[OGL LOG][Proc: 0]p: solve_multi_gpu: 184.501 [ms]
nonehipGKOCG:  Solving for p, Initial residual = 0.0221041, Final residual = 9.38849e-05, No Iterations 316
[INFO] SolveP: 185.541 [ms]
time step continuity errors : sum local = 1.34865e-08, global = -9.76616e-21, cumulative = -6.79894e-20
[INFO] ContinuityError: 0.811 [ms]
[INFO] CorrectBoundary: 0.053 [ms]
[INFO] PISOStep: 197.083 [ms]
[INFO] TimeStep: 529.043 [ms]
ExecutionTime = 12.28 s  ClockTime = 13 s

Time = 0.0065

Courant Number mean: 0.0648322 max: 0.47499
[INFO] MatrixAssemblyU: 3.849 [ms]
DILUPBiCGStab:  Solving for Ux, Initial residual = 0.00657309, Final residual = 2.28755e-05, No Iterations 5
DILUPBiCGStab:  Solving for Uy, Initial residual = 0.014049, Final residual = 4.12112e-05, No Iterations 5
DILUPBiCGStab:  Solving for Uz, Initial residual = 0.0291292, Final residual = 0.000108355, No Iterations 5
[INFO] MomentumPredictor: 42.238 [ms]
[INFO] MatrixAssemblyPI: 5.551 [ms]
[INFO] AdjustPhi: 0.235 [ms]
[INFO] ConstrainPressure: 0.002 [ms]
[INFO] MatrixAssemblyPII: 1.73 [ms]
[OGL LOG][Proc: 0]: global_index_init: 0.05 [ms]
[OGL LOG][Proc: 0]p_local_coeffs: call_update: 0 [ms]
[OGL LOG][Proc: 0]p_non_local_coeffs: call_update: 0 [ms]
[OGL LOG][Proc: 0]p: update_local_matrix_data: 0.549 [ms]
[OGL LOG][Proc: 0]p: update_non_local_matrix_data: 0.018 [ms]
[OGL LOG][Proc: 0]p_matrix: call_update: 1.871 [ms]
[OGL LOG][Proc: 0]p_rhs: call_update: 0.282 [ms]
[OGL LOG][Proc: 0]p: init_precond: 0.031 [ms]
[OGL LOG][StoppingCriterion.H:373] Creating stopping criterion with minIter 189 frequency 5
[OGL LOG][Proc: 0]p: generate_solver: 0.002 [ms]
[OGL LOG][Proc: 0]p: solve: 428.231 [ms]
[OGL LOG][Proc: 0]p: copy_x_back: 0.147 [ms]
[OGL LOG][lduLduBase.H:330] 
Statistics:
	Time per iteration: 615 [mu s]
	Time per residual norm calculation: 134.000000 [mu s]
	Time per iteration and DOF: 0.615000 [ns]
	Retrieve results bandwidth 1.700000 [GByte/s]
[OGL LOG][Proc: 0]p: solve_multi_gpu: 430.843 [ms]
nonehipGKOCG:  Solving for p, Initial residual = 0.020949, Final residual = 9.01924e-05, No Iterations 696
[INFO] SolveP: 431.891 [ms]
time step continuity errors : sum local = 1.26279e-08, global = -4.39802e-22, cumulative = -6.84292e-20
[INFO] ContinuityError: 1.354 [ms]
[INFO] CorrectBoundary: 0.051 [ms]
[INFO] PISOStep: 443.024 [ms]
[INFO] MatrixAssemblyPI: 5.428 [ms]
[INFO] AdjustPhi: 0.883 [ms]
[INFO] ConstrainPressure: 0.002 [ms]
[INFO] MatrixAssemblyPII: 1.681 [ms]
[OGL LOG][Proc: 0]: global_index_init: 0.038 [ms]
[OGL LOG][Proc: 0]p_local_coeffs: call_update: 0 [ms]
[OGL LOG][Proc: 0]p_non_local_coeffs: call_update: 0 [ms]
[OGL LOG][Proc: 0]p: update_local_matrix_data: 0.549 [ms]
[OGL LOG][Proc: 0]p: update_non_local_matrix_data: 0.022 [ms]
[OGL LOG][Proc: 0]p_matrix: call_update: 1.802 [ms]
[OGL LOG][Proc: 0]p_rhs: call_update: 0.298 [ms]
[OGL LOG][Proc: 0]p: init_precond: 0.032 [ms]
[OGL LOG][StoppingCriterion.H:373] Creating stopping criterion with minIter 417 frequency 8
[OGL LOG][Proc: 0]p: generate_solver: 0.002 [ms]
[OGL LOG][Proc: 0]p: solve: 473.28 [ms]
[OGL LOG][Proc: 0]p: copy_x_back: 0.139 [ms]
[OGL LOG][lduLduBase.H:330] 
Statistics:
	Time per iteration: 679 [mu s]
	Time per residual norm calculation: 132.000000 [mu s]
	Time per iteration and DOF: 0.679000 [ns]
	Retrieve results bandwidth 1.798000 [GByte/s]
[OGL LOG][Proc: 0]p: solve_multi_gpu: 476.237 [ms]
nonehipGKOCG:  Solving for p, Initial residual = 0.0184852, Final residual = 7.85236e-05, No Iterations 697
[INFO] SolveP: 477.371 [ms]
time step continuity errors : sum local = 1.09992e-08, global = -7.5647e-21, cumulative = -7.59939e-20
[INFO] ContinuityError: 1.359 [ms]
[INFO] CorrectBoundary: 0.604 [ms]
[INFO] PISOStep: 489.571 [ms]
[INFO] TimeStep: 980.055 [ms]
ExecutionTime = 13.26 s  ClockTime = 14 s

Time = 0.007

Courant Number mean: 0.0664007 max: 0.475722
[INFO] MatrixAssemblyU: 3.271 [ms]
DILUPBiCGStab:  Solving for Ux, Initial residual = 0.00596719, Final residual = 2.05699e-05, No Iterations 5
DILUPBiCGStab:  Solving for Uy, Initial residual = 0.0127561, Final residual = 3.6974e-05, No Iterations 5
DILUPBiCGStab:  Solving for Uz, Initial residual = 0.0260183, Final residual = 8.59199e-05, No Iterations 5
[INFO] MomentumPredictor: 54.041 [ms]
[INFO] MatrixAssemblyPI: 5.164 [ms]
[INFO] AdjustPhi: 1.154 [ms]
[INFO] ConstrainPressure: 0.002 [ms]
[INFO] MatrixAssemblyPII: 1.669 [ms]
[OGL LOG][Proc: 0]: global_index_init: 0.037 [ms]
[OGL LOG][Proc: 0]p_local_coeffs: call_update: 0 [ms]
[OGL LOG][Proc: 0]p_non_local_coeffs: call_update: 0 [ms]
[OGL LOG][Proc: 0]p: update_local_matrix_data: 0.533 [ms]
[OGL LOG][Proc: 0]p: update_non_local_matrix_data: 0.025 [ms]
[OGL LOG][Proc: 0]p_matrix: call_update: 1.743 [ms]
[OGL LOG][Proc: 0]p_rhs: call_update: 0.463 [ms]
[OGL LOG][Proc: 0]p: init_precond: 0.031 [ms]
[OGL LOG][StoppingCriterion.H:373] Creating stopping criterion with minIter 418 frequency 7
[OGL LOG][Proc: 0]p: generate_solver: 0.002 [ms]
[OGL LOG][Proc: 0]p: solve: 421.048 [ms]
[OGL LOG][Proc: 0]p: copy_x_back: 0.141 [ms]
[OGL LOG][lduLduBase.H:330] 
Statistics:
	Time per iteration: 606 [mu s]
	Time per residual norm calculation: 135.000000 [mu s]
	Time per iteration and DOF: 0.606000 [ns]
	Retrieve results bandwidth 1.773000 [GByte/s]
[OGL LOG][Proc: 0]p: solve_multi_gpu: 424.213 [ms]
nonehipGKOCG:  Solving for p, Initial residual = 0.0164603, Final residual = 8.64832e-05, No Iterations 694
[INFO] SolveP: 425.227 [ms]
time step continuity errors : sum local = 1.21012e-08, global = -8.98091e-21, cumulative = -8.49748e-20
[INFO] ContinuityError: 1.336 [ms]
[INFO] CorrectBoundary: 0.053 [ms]
[INFO] PISOStep: 437.033 [ms]
[INFO] MatrixAssemblyPI: 5.175 [ms]
[INFO] AdjustPhi: 1.227 [ms]
[INFO] ConstrainPressure: 0.001 [ms]
[INFO] MatrixAssemblyPII: 1.692 [ms]
[OGL LOG][Proc: 0]: global_index_init: 0.045 [ms]
[OGL LOG][Proc: 0]p_local_coeffs: call_update: 0 [ms]
[OGL LOG][Proc: 0]p_non_local_coeffs: call_update: 0 [ms]
[OGL LOG][Proc: 0]p: update_local_matrix_data: 0.773 [ms]
[OGL LOG][Proc: 0]p: update_non_local_matrix_data: 0.018 [ms]
[OGL LOG][Proc: 0]p_matrix: call_update: 1.801 [ms]
[OGL LOG][Proc: 0]p_rhs: call_update: 0.264 [ms]
[OGL LOG][Proc: 0]p: init_precond: 0.037 [ms]
[OGL LOG][StoppingCriterion.H:373] Creating stopping criterion with minIter 416 frequency 8
[OGL LOG][Proc: 0]p: generate_solver: 0.001 [ms]
[OGL LOG][Proc: 0]p: solve: 245.277 [ms]
[OGL LOG][Proc: 0]p: copy_x_back: 0.154 [ms]
[OGL LOG][lduLduBase.H:330] 
Statistics:
	Time per iteration: 588 [mu s]
	Time per residual norm calculation: 141.000000 [mu s]
	Time per iteration and DOF: 0.588000 [ns]
	Retrieve results bandwidth 1.623000 [GByte/s]
[OGL LOG][Proc: 0]p: solve_multi_gpu: 248.057 [ms]
nonehipGKOCG:  Solving for p, Initial residual = 0.0149328, Final residual = 7.83739e-05, No Iterations 417
[INFO] SolveP: 249.322 [ms]
time step continuity errors : sum local = 1.16585e-08, global = -2.66797e-21, cumulative = -8.76428e-20
[INFO] ContinuityError: 1.37 [ms]
[INFO] CorrectBoundary: 0.069 [ms]
[INFO] PISOStep: 261.132 [ms]
[INFO] TimeStep: 756.645 [ms]
ExecutionTime = 14.02 s  ClockTime = 15 s

Time = 0.0075

Courant Number mean: 0.0678482 max: 0.476363
[INFO] MatrixAssemblyU: 3.89 [ms]
DILUPBiCGStab:  Solving for Ux, Initial residual = 0.00544328, Final residual = 1.8514e-05, No Iterations 5
DILUPBiCGStab:  Solving for Uy, Initial residual = 0.0116573, Final residual = 3.36006e-05, No Iterations 5
DILUPBiCGStab:  Solving for Uz, Initial residual = 0.0239626, Final residual = 8.28105e-05, No Iterations 5
[INFO] MomentumPredictor: 41.347 [ms]
[INFO] MatrixAssemblyPI: 5.512 [ms]
[INFO] AdjustPhi: 0.196 [ms]
[INFO] ConstrainPressure: 0.002 [ms]
[INFO] MatrixAssemblyPII: 1.719 [ms]
[OGL LOG][Proc: 0]: global_index_init: 0.037 [ms]
[OGL LOG][Proc: 0]p_local_coeffs: call_update: 0 [ms]
[OGL LOG][Proc: 0]p_non_local_coeffs: call_update: 0 [ms]
[OGL LOG][Proc: 0]p: update_local_matrix_data: 0.599 [ms]
[OGL LOG][Proc: 0]p: update_non_local_matrix_data: 0.02 [ms]
[OGL LOG][Proc: 0]p_matrix: call_update: 1.81 [ms]
[OGL LOG][Proc: 0]p_rhs: call_update: 0.324 [ms]
[OGL LOG][Proc: 0]p: init_precond: 0.033 [ms]
[OGL LOG][StoppingCriterion.H:373] Creating stopping criterion with minIter 250 frequency 6
[OGL LOG][Proc: 0]p: generate_solver: 0.001 [ms]
[OGL LOG][Proc: 0]p: solve: 415.157 [ms]
[OGL LOG][Proc: 0]p: copy_x_back: 0.145 [ms]
[OGL LOG][lduLduBase.H:330] 
Statistics:
	Time per iteration: 600 [mu s]
	Time per residual norm calculation: 138.000000 [mu s]
	Time per iteration and DOF: 0.600000 [ns]
	Retrieve results bandwidth 1.724000 [GByte/s]
[OGL LOG][Proc: 0]p: solve_multi_gpu: 417.923 [ms]
nonehipGKOCG:  Solving for p, Initial residual = 0.014196, Final residual = 8.73583e-05, No Iterations 691
[INFO] SolveP: 419.01 [ms]
time step continuity errors : sum local = 1.221e-08, global = -8.89374e-22, cumulative = -8.85321e-20
[INFO] ContinuityError: 1.358 [ms]
[INFO] CorrectBoundary: 0.055 [ms]
[INFO] PISOStep: 430.14 [ms]
[INFO] MatrixAssemblyPI: 5.343 [ms]
[INFO] AdjustPhi: 0.55 [ms]
[INFO] ConstrainPressure: 0.002 [ms]
[INFO] MatrixAssemblyPII: 1.708 [ms]
[OGL LOG][Proc: 0]: global_index_init: 0.036 [ms]
[OGL LOG][Proc: 0]p_local_coeffs: call_update: 0 [ms]
[OGL LOG][Proc: 0]p_non_local_coeffs: call_update: 0 [ms]
[OGL LOG][Proc: 0]p: update_local_matrix_data: 0.764 [ms]
[OGL LOG][Proc: 0]p: update_non_local_matrix_data: 0.022 [ms]
[OGL LOG][Proc: 0]p_matrix: call_update: 1.921 [ms]
[OGL LOG][Proc: 0]p_rhs: call_update: 0.299 [ms]
[OGL LOG][Proc: 0]p: init_precond: 0.034 [ms]
[OGL LOG][StoppingCriterion.H:373] Creating stopping criterion with minIter 414 frequency 8
[OGL LOG][Proc: 0]p: generate_solver: 0.002 [ms]
[OGL LOG][Proc: 0]p: solve: 397.587 [ms]
[OGL LOG][Proc: 0]p: copy_x_back: 0.158 [ms]
[OGL LOG][lduLduBase.H:330] 
Statistics:
	Time per iteration: 577 [mu s]
	Time per residual norm calculation: 135.000000 [mu s]
	Time per iteration and DOF: 0.577000 [ns]
	Retrieve results bandwidth 1.582000 [GByte/s]
[OGL LOG][Proc: 0]p: solve_multi_gpu: 400.517 [ms]
nonehipGKOCG:  Solving for p, Initial residual = 0.0129707, Final residual = 8.803e-05, No Iterations 689
[INFO] SolveP: 401.769 [ms]
time step continuity errors : sum local = 1.23084e-08, global = -2.9435e-21, cumulative = -9.14756e-20
[INFO] ContinuityError: 0.948 [ms]
[INFO] CorrectBoundary: 0.065 [ms]
[INFO] PISOStep: 412.649 [ms]
[INFO] TimeStep: 889.246 [ms]
ExecutionTime = 14.9 s  ClockTime = 15 s

Time = 0.008

Courant Number mean: 0.069186 max: 0.476934
[INFO] MatrixAssemblyU: 3.835 [ms]
DILUPBiCGStab:  Solving for Ux, Initial residual = 0.0049957, Final residual = 1.69341e-05, No Iterations 5
DILUPBiCGStab:  Solving for Uy, Initial residual = 0.0107083, Final residual = 3.0684e-05, No Iterations 5
DILUPBiCGStab:  Solving for Uz, Initial residual = 0.0219357, Final residual = 7.25301e-05, No Iterations 5
[INFO] MomentumPredictor: 41.683 [ms]
[INFO] MatrixAssemblyPI: 5.467 [ms]
[INFO] AdjustPhi: 0.244 [ms]
[INFO] ConstrainPressure: 0.001 [ms]
[INFO] MatrixAssemblyPII: 1.691 [ms]
[OGL LOG][Proc: 0]: global_index_init: 0.043 [ms]
[OGL LOG][Proc: 0]p_local_coeffs: call_update: 0 [ms]
[OGL LOG][Proc: 0]p_non_local_coeffs: call_update: 0 [ms]
[OGL LOG][Proc: 0]p: update_local_matrix_data: 0.574 [ms]
[OGL LOG][Proc: 0]p: update_non_local_matrix_data: 0.02 [ms]
[OGL LOG][Proc: 0]p_matrix: call_update: 2.089 [ms]
[OGL LOG][Proc: 0]p_rhs: call_update: 0.204 [ms]
[OGL LOG][Proc: 0]p: init_precond: 0.032 [ms]
[OGL LOG][StoppingCriterion.H:373] Creating stopping criterion with minIter 413 frequency 8
[OGL LOG][Proc: 0]p: generate_solver: 0.002 [ms]
[OGL LOG][Proc: 0]p: solve: 254.742 [ms]
[OGL LOG][Proc: 0]p: copy_x_back: 0.187 [ms]
[OGL LOG][lduLduBase.H:330] 
Statistics:
	Time per iteration: 610 [mu s]
	Time per residual norm calculation: 141.000000 [mu s]
	Time per iteration and DOF: 0.610000 [ns]
	Retrieve results bandwidth 1.336000 [GByte/s]
[OGL LOG][Proc: 0]p: solve_multi_gpu: 257.533 [ms]
nonehipGKOCG:  Solving for p, Initial residual = 0.0121807, Final residual = 5.11216e-05, No Iterations 417
[INFO] SolveP: 258.65 [ms]
time step continuity errors : sum local = 7.58692e-09, global = -2.04606e-20, cumulative = -1.11936e-19
[INFO] ContinuityError: 0.657 [ms]
[INFO] CorrectBoundary: 0.046 [ms]
[INFO] PISOStep: 270.179 [ms]
[INFO] MatrixAssemblyPI: 5.518 [ms]
[INFO] AdjustPhi: 0.185 [ms]
[INFO] ConstrainPressure: 0.004 [ms]
[INFO] MatrixAssemblyPII: 1.733 [ms]
[OGL LOG][Proc: 0]: global_index_init: 0.036 [ms]
[OGL LOG][Proc: 0]p_local_coeffs: call_update: 0 [ms]
[OGL LOG][Proc: 0]p_non_local_coeffs: call_update: 0 [ms]
[OGL LOG][Proc: 0]p: update_local_matrix_data: 0.903 [ms]
[OGL LOG][Proc: 0]p: update_non_local_matrix_data: 0.024 [ms]
[OGL LOG][Proc: 0]p_matrix: call_update: 1.994 [ms]
[OGL LOG][Proc: 0]p_rhs: call_update: 0.077 [ms]
[OGL LOG][Proc: 0]p: init_precond: 0.039 [ms]
[OGL LOG][StoppingCriterion.H:373] Creating stopping criterion with minIter 250 frequency 6
[OGL LOG][Proc: 0]p: generate_solver: 0.002 [ms]
[OGL LOG][Proc: 0]p: solve: 167.982 [ms]
[OGL LOG][Proc: 0]p: copy_x_back: 0.153 [ms]
[OGL LOG][lduLduBase.H:330] 
Statistics:
	Time per iteration: 569 [mu s]
	Time per residual norm calculation: 135.000000 [mu s]
	Time per iteration and DOF: 0.569000 [ns]
	Retrieve results bandwidth 1.633000 [GByte/s]
[OGL LOG][Proc: 0]p: solve_multi_gpu: 170.499 [ms]
nonehipGKOCG:  Solving for p, Initial residual = 0.0113256, Final residual = 9.64511e-05, No Iterations 295
[INFO] SolveP: 171.89 [ms]
time step continuity errors : sum local = 1.37011e-08, global = -2.22265e-20, cumulative = -1.34163e-19
[INFO] ContinuityError: 0.742 [ms]
[INFO] CorrectBoundary: 0.055 [ms]
[INFO] PISOStep: 182.452 [ms]
[INFO] TimeStep: 499.605 [ms]
ExecutionTime = 15.39 s  ClockTime = 16 s

Time = 0.0085

Courant Number mean: 0.0704319 max: 0.477442
[INFO] MatrixAssemblyU: 4.036 [ms]
DILUPBiCGStab:  Solving for Ux, Initial residual = 0.00460051, Final residual = 1.54996e-05, No Iterations 5
DILUPBiCGStab:  Solving for Uy, Initial residual = 0.00988585, Final residual = 2.82215e-05, No Iterations 5
DILUPBiCGStab:  Solving for Uz, Initial residual = 0.0202526, Final residual = 6.7451e-05, No Iterations 5
[INFO] MomentumPredictor: 41.256 [ms]
[INFO] MatrixAssemblyPI: 5.453 [ms]
[INFO] AdjustPhi: 0.288 [ms]
[INFO] ConstrainPressure: 0.003 [ms]
[INFO] MatrixAssemblyPII: 1.685 [ms]
[OGL LOG][Proc: 0]: global_index_init: 0.031 [ms]
[OGL LOG][Proc: 0]p_local_coeffs: call_update: 0 [ms]
[OGL LOG][Proc: 0]p_non_local_coeffs: call_update: 0 [ms]
[OGL LOG][Proc: 0]p: update_local_matrix_data: 0.568 [ms]
[OGL LOG][Proc: 0]p: update_non_local_matrix_data: 0.02 [ms]
[OGL LOG][Proc: 0]p_matrix: call_update: 1.865 [ms]
[OGL LOG][Proc: 0]p_rhs: call_update: 0.274 [ms]
[OGL LOG][Proc: 0]p: init_precond: 0.032 [ms]
[OGL LOG][StoppingCriterion.H:373] Creating stopping criterion with minIter 177 frequency 5
[OGL LOG][Proc: 0]p: generate_solver: 0.001 [ms]
[OGL LOG][Proc: 0]p: solve: 171.794 [ms]
[OGL LOG][Proc: 0]p: copy_x_back: 0.149 [ms]
[OGL LOG][lduLduBase.H:330] 
Statistics:
	Time per iteration: 580 [mu s]
	Time per residual norm calculation: 132.000000 [mu s]
	Time per iteration and DOF: 0.580000 [ns]
	Retrieve results bandwidth 1.677000 [GByte/s]
[OGL LOG][Proc: 0]p: solve_multi_gpu: 174.373 [ms]
nonehipGKOCG:  Solving for p, Initial residual = 0.0106805, Final residual = 9.01306e-05, No Iterations 296
[INFO] SolveP: 175.399 [ms]
time step continuity errors : sum local = 1.3318e-08, global = -1.1685e-21, cumulative = -1.35331e-19
[INFO] ContinuityError: 0.951 [ms]
[INFO] CorrectBoundary: 0.052 [ms]
[INFO] PISOStep: 186.133 [ms]
[INFO] MatrixAssemblyPI: 5.332 [ms]
[INFO] AdjustPhi: 0.336 [ms]
[INFO] ConstrainPressure: 0.002 [ms]
[INFO] MatrixAssemblyPII: 1.71 [ms]
[OGL LOG][Proc: 0]: global_index_init: 0.044 [ms]
[OGL LOG][Proc: 0]p_local_coeffs: call_update: 0 [ms]
[OGL LOG][Proc: 0]p_non_local_coeffs: call_update: 0 [ms]
[OGL LOG][Proc: 0]p: update_local_matrix_data: 0.757 [ms]
[OGL LOG][Proc: 0]p: update_non_local_matrix_data: 0.021 [ms]
[OGL LOG][Proc: 0]p_matrix: call_update: 2.172 [ms]
[OGL LOG][Proc: 0]p_rhs: call_update: 0.178 [ms]
[OGL LOG][Proc: 0]p: init_precond: 0.034 [ms]
[OGL LOG][StoppingCriterion.H:373] Creating stopping criterion with minIter 177 frequency 5
[OGL LOG][Proc: 0]p: generate_solver: 0.002 [ms]
[OGL LOG][Proc: 0]p: solve: 192.687 [ms]
[OGL LOG][Proc: 0]p: copy_x_back: 0.135 [ms]
[OGL LOG][lduLduBase.H:330] 
Statistics:
	Time per iteration: 662 [mu s]
	Time per residual norm calculation: 135.000000 [mu s]
	Time per iteration and DOF: 0.662000 [ns]
	Retrieve results bandwidth 1.851000 [GByte/s]
[OGL LOG][Proc: 0]p: solve_multi_gpu: 195.477 [ms]
nonehipGKOCG:  Solving for p, Initial residual = 0.0099931, Final residual = 9.17619e-05, No Iterations 291
[INFO] SolveP: 196.862 [ms]
time step continuity errors : sum local = 1.29721e-08, global = -6.11235e-21, cumulative = -1.41444e-19
[INFO] ContinuityError: 1.397 [ms]
[INFO] CorrectBoundary: 0.268 [ms]
[INFO] PISOStep: 208.01 [ms]
[INFO] TimeStep: 440.596 [ms]
ExecutionTime = 15.83 s  ClockTime = 16 s

Time = 0.009

Courant Number mean: 0.0715955 max: 0.477901
[INFO] MatrixAssemblyU: 3.846 [ms]
DILUPBiCGStab:  Solving for Ux, Initial residual = 0.0042557, Final residual = 1.43276e-05, No Iterations 5
DILUPBiCGStab:  Solving for Uy, Initial residual = 0.00916456, Final residual = 2.60673e-05, No Iterations 5
DILUPBiCGStab:  Solving for Uz, Initial residual = 0.0187979, Final residual = 6.3883e-05, No Iterations 5
[INFO] MomentumPredictor: 55.117 [ms]
[INFO] MatrixAssemblyPI: 7.951 [ms]
[INFO] AdjustPhi: 4.934 [ms]
[INFO] ConstrainPressure: 0.003 [ms]
[INFO] MatrixAssemblyPII: 1.653 [ms]
[OGL LOG][Proc: 0]: global_index_init: 0.042 [ms]
[OGL LOG][Proc: 0]p_local_coeffs: call_update: 0 [ms]
[OGL LOG][Proc: 0]p_non_local_coeffs: call_update: 0 [ms]
[OGL LOG][Proc: 0]p: update_local_matrix_data: 0.54 [ms]
[OGL LOG][Proc: 0]p: update_non_local_matrix_data: 0.019 [ms]
[OGL LOG][Proc: 0]p_matrix: call_update: 1.785 [ms]
[OGL LOG][Proc: 0]p_rhs: call_update: 0.432 [ms]
[OGL LOG][Proc: 0]p: init_precond: 0.033 [ms]
[OGL LOG][StoppingCriterion.H:373] Creating stopping criterion with minIter 174 frequency 5
[OGL LOG][Proc: 0]p: generate_solver: 0.002 [ms]
[OGL LOG][Proc: 0]p: solve: 219.156 [ms]
[OGL LOG][Proc: 0]p: copy_x_back: 0.151 [ms]
[OGL LOG][lduLduBase.H:330] 
Statistics:
	Time per iteration: 753 [mu s]
	Time per residual norm calculation: 136.000000 [mu s]
	Time per iteration and DOF: 0.753000 [ns]
	Retrieve results bandwidth 1.655000 [GByte/s]
[OGL LOG][Proc: 0]p: solve_multi_gpu: 222.138 [ms]
nonehipGKOCG:  Solving for p, Initial residual = 0.0096426, Final residual = 9.5673e-05, No Iterations 291
[INFO] SolveP: 223.14 [ms]
time step continuity errors : sum local = 1.41584e-08, global = -2.32769e-21, cumulative = -1.43771e-19
[INFO] ContinuityError: 1.441 [ms]
[INFO] CorrectBoundary: 0.55 [ms]
[INFO] PISOStep: 241.964 [ms]
[INFO] MatrixAssemblyPI: 5.135 [ms]
[INFO] AdjustPhi: 1.117 [ms]
[INFO] ConstrainPressure: 0.002 [ms]
[INFO] MatrixAssemblyPII: 1.882 [ms]
[OGL LOG][Proc: 0]: global_index_init: 0.044 [ms]
[OGL LOG][Proc: 0]p_local_coeffs: call_update: 0 [ms]
[OGL LOG][Proc: 0]p_non_local_coeffs: call_update: 0 [ms]
[OGL LOG][Proc: 0]p: update_local_matrix_data: 0.587 [ms]
[OGL LOG][Proc: 0]p: update_non_local_matrix_data: 0.023 [ms]
[OGL LOG][Proc: 0]p_matrix: call_update: 1.69 [ms]
[OGL LOG][Proc: 0]p_rhs: call_update: 0.499 [ms]
[OGL LOG][Proc: 0]p: init_precond: 0.034 [ms]
[OGL LOG][StoppingCriterion.H:373] Creating stopping criterion with minIter 174 frequency 4
[OGL LOG][Proc: 0]p: generate_solver: 0.002 [ms]
[OGL LOG][Proc: 0]p: solve: 164.676 [ms]
[OGL LOG][Proc: 0]p: copy_x_back: 0.151 [ms]
[OGL LOG][lduLduBase.H:330] 
Statistics:
	Time per iteration: 577 [mu s]
	Time per residual norm calculation: 132.000000 [mu s]
	Time per iteration and DOF: 0.577000 [ns]
	Retrieve results bandwidth 1.655000 [GByte/s]
[OGL LOG][Proc: 0]p: solve_multi_gpu: 167.564 [ms]
nonehipGKOCG:  Solving for p, Initial residual = 0.00909766, Final residual = 9.78952e-05, No Iterations 285
[INFO] SolveP: 168.657 [ms]
time step continuity errors : sum local = 1.39781e-08, global = -1.60171e-21, cumulative = -1.45373e-19
[INFO] ContinuityError: 0.759 [ms]
[INFO] CorrectBoundary: 0.079 [ms]
[INFO] PISOStep: 179.933 [ms]
[INFO] TimeStep: 482.286 [ms]
ExecutionTime = 16.31 s  ClockTime = 17 s

Time = 0.0095

Courant Number mean: 0.0726827 max: 0.478315
[INFO] MatrixAssemblyU: 4.069 [ms]
DILUPBiCGStab:  Solving for Ux, Initial residual = 0.0039526, Final residual = 1.32696e-05, No Iterations 5
DILUPBiCGStab:  Solving for Uy, Initial residual = 0.00851563, Final residual = 2.41926e-05, No Iterations 5
DILUPBiCGStab:  Solving for Uz, Initial residual = 0.0177426, Final residual = 6.07185e-05, No Iterations 5
[INFO] MomentumPredictor: 41.326 [ms]
[INFO] MatrixAssemblyPI: 5.356 [ms]
[INFO] AdjustPhi: 0.368 [ms]
[INFO] ConstrainPressure: 0.003 [ms]
[INFO] MatrixAssemblyPII: 1.686 [ms]
[OGL LOG][Proc: 0]: global_index_init: 0.05 [ms]
[OGL LOG][Proc: 0]p_local_coeffs: call_update: 0 [ms]
[OGL LOG][Proc: 0]p_non_local_coeffs: call_update: 0 [ms]
[OGL LOG][Proc: 0]p: update_local_matrix_data: 0.571 [ms]
[OGL LOG][Proc: 0]p: update_non_local_matrix_data: 0.019 [ms]
[OGL LOG][Proc: 0]p_matrix: call_update: 1.878 [ms]
[OGL LOG][Proc: 0]p_rhs: call_update: 0.212 [ms]
[OGL LOG][Proc: 0]p: init_precond: 0.03 [ms]
[OGL LOG][StoppingCriterion.H:373] Creating stopping criterion with minIter 171 frequency 5
[OGL LOG][Proc: 0]p: generate_solver: 0.001 [ms]
[OGL LOG][Proc: 0]p: solve: 174.61 [ms]
[OGL LOG][Proc: 0]p: copy_x_back: 0.147 [ms]
[OGL LOG][lduLduBase.H:330] 
Statistics:
	Time per iteration: 580 [mu s]
	Time per residual norm calculation: 134.000000 [mu s]
	Time per iteration and DOF: 0.580000 [ns]
	Retrieve results bandwidth 1.700000 [GByte/s]
[OGL LOG][Proc: 0]p: solve_multi_gpu: 177.14 [ms]
nonehipGKOCG:  Solving for p, Initial residual = 0.00878811, Final residual = 9.82442e-05, No Iterations 301
[INFO] SolveP: 178.188 [ms]
time step continuity errors : sum local = 1.4975e-08, global = -5.3409e-21, cumulative = -1.50714e-19
[INFO] ContinuityError: 0.811 [ms]
[INFO] CorrectBoundary: 0.047 [ms]
[INFO] PISOStep: 188.798 [ms]
[INFO] MatrixAssemblyPI: 5.239 [ms]
[INFO] AdjustPhi: 0.398 [ms]
[INFO] ConstrainPressure: 0.003 [ms]
[INFO] MatrixAssemblyPII: 1.897 [ms]
[OGL LOG][Proc: 0]: global_index_init: 0.045 [ms]
[OGL LOG][Proc: 0]p_local_coeffs: call_update: 0 [ms]
[OGL LOG][Proc: 0]p_non_local_coeffs: call_update: 0 [ms]
[OGL LOG][Proc: 0]p: update_local_matrix_data: 0.524 [ms]
[OGL LOG][Proc: 0]p: update_non_local_matrix_data: 0.023 [ms]
[OGL LOG][Proc: 0]p_matrix: call_update: 2.107 [ms]
[OGL LOG][Proc: 0]p_rhs: call_update: 0.262 [ms]
[OGL LOG][Proc: 0]p: init_precond: 0.031 [ms]
[OGL LOG][StoppingCriterion.H:373] Creating stopping criterion with minIter 180 frequency 5
[OGL LOG][Proc: 0]p: generate_solver: 0.001 [ms]
[OGL LOG][Proc: 0]p: solve: 186.944 [ms]
[OGL LOG][Proc: 0]p: copy_x_back: 0.139 [ms]
[OGL LOG][lduLduBase.H:330] 
Statistics:
	Time per iteration: 631 [mu s]
	Time per residual norm calculation: 136.000000 [mu s]
	Time per iteration and DOF: 0.631000 [ns]
	Retrieve results bandwidth 1.798000 [GByte/s]
[OGL LOG][Proc: 0]p: solve_multi_gpu: 189.773 [ms]
nonehipGKOCG:  Solving for p, Initial residual = 0.00832337, Final residual = 9.05791e-05, No Iterations 296
[INFO] SolveP: 190.788 [ms]
time step continuity errors : sum local = 1.29888e-08, global = -1.83985e-20, cumulative = -1.69112e-19
[INFO] ContinuityError: 1.381 [ms]
[INFO] CorrectBoundary: 0.041 [ms]
[INFO] PISOStep: 202.057 [ms]
[INFO] TimeStep: 437.207 [ms]
ExecutionTime = 16.74 s  ClockTime = 17 s

Time = 0.01

Courant Number mean: 0.0737004 max: 0.478693
[INFO] MatrixAssemblyU: 3.968 [ms]
DILUPBiCGStab:  Solving for Ux, Initial residual = 0.00367726, Final residual = 1.23626e-05, No Iterations 5
DILUPBiCGStab:  Solving for Uy, Initial residual = 0.00795472, Final residual = 2.25587e-05, No Iterations 5
DILUPBiCGStab:  Solving for Uz, Initial residual = 0.0166108, Final residual = 5.97851e-05, No Iterations 5
[INFO] MomentumPredictor: 41.446 [ms]
[INFO] MatrixAssemblyPI: 5.508 [ms]
[INFO] AdjustPhi: 0.216 [ms]
[INFO] ConstrainPressure: 0.004 [ms]
[INFO] MatrixAssemblyPII: 1.669 [ms]
[OGL LOG][Proc: 0]: global_index_init: 0.038 [ms]
[OGL LOG][Proc: 0]p_local_coeffs: call_update: 0 [ms]
[OGL LOG][Proc: 0]p_non_local_coeffs: call_update: 0 [ms]
[OGL LOG][Proc: 0]p: update_local_matrix_data: 0.59 [ms]
[OGL LOG][Proc: 0]p: update_non_local_matrix_data: 0.018 [ms]
[OGL LOG][Proc: 0]p_matrix: call_update: 1.903 [ms]
[OGL LOG][Proc: 0]p_rhs: call_update: 0.22 [ms]
[OGL LOG][Proc: 0]p: init_precond: 0.034 [ms]
[OGL LOG][StoppingCriterion.H:373] Creating stopping criterion with minIter 177 frequency 5
[OGL LOG][Proc: 0]p: generate_solver: 0.003 [ms]
[OGL LOG][Proc: 0]p: solve: 177.801 [ms]
[OGL LOG][Proc: 0]p: copy_x_back: 0.152 [ms]
[OGL LOG][lduLduBase.H:330] 
Statistics:
	Time per iteration: 581 [mu s]
	Time per residual norm calculation: 134.000000 [mu s]
	Time per iteration and DOF: 0.581000 [ns]
	Retrieve results bandwidth 1.644000 [GByte/s]
[OGL LOG][Proc: 0]p: solve_multi_gpu: 180.501 [ms]
nonehipGKOCG:  Solving for p, Initial residual = 0.00841183, Final residual = 9.38989e-05, No Iterations 306
[INFO] SolveP: 181.574 [ms]
time step continuity errors : sum local = 1.4588e-08, global = -5.67932e-21, cumulative = -1.74792e-19
[INFO] ContinuityError: 0.759 [ms]
[INFO] CorrectBoundary: 0.074 [ms]
[INFO] PISOStep: 192.165 [ms]
[INFO] MatrixAssemblyPI: 5.367 [ms]
[INFO] AdjustPhi: 0.256 [ms]
[INFO] ConstrainPressure: 0.002 [ms]
[INFO] MatrixAssemblyPII: 1.734 [ms]
[OGL LOG][Proc: 0]: global_index_init: 0.041 [ms]
[OGL LOG][Proc: 0]p_local_coeffs: call_update: 0 [ms]
[OGL LOG][Proc: 0]p_non_local_coeffs: call_update: 0 [ms]
[OGL LOG][Proc: 0]p: update_local_matrix_data: 0.781 [ms]
[OGL LOG][Proc: 0]p: update_non_local_matrix_data: 0.021 [ms]
[OGL LOG][Proc: 0]p_matrix: call_update: 2.238 [ms]
[OGL LOG][Proc: 0]p_rhs: call_update: 0.193 [ms]
[OGL LOG][Proc: 0]p: init_precond: 0.033 [ms]
[OGL LOG][StoppingCriterion.H:373] Creating stopping criterion with minIter 183 frequency 5
[OGL LOG][Proc: 0]p: generate_solver: 0.002 [ms]
[OGL LOG][Proc: 0]p: solve: 171.002 [ms]
[OGL LOG][Proc: 0]p: copy_x_back: 0.143 [ms]
[OGL LOG][lduLduBase.H:330] 
Statistics:
	Time per iteration: 577 [mu s]
	Time per residual norm calculation: 135.000000 [mu s]
	Time per iteration and DOF: 0.577000 [ns]
	Retrieve results bandwidth 1.748000 [GByte/s]
[OGL LOG][Proc: 0]p: solve_multi_gpu: 173.842 [ms]
nonehipGKOCG:  Solving for p, Initial residual = 0.00799335, Final residual = 9.86035e-05, No Iterations 296
[INFO] SolveP: 175.102 [ms]
time step continuity errors : sum local = 1.42602e-08, global = -3.9195e-21, cumulative = -1.78711e-19
[INFO] ContinuityError: 0.857 [ms]
[INFO] CorrectBoundary: 0.057 [ms]
[INFO] PISOStep: 185.542 [ms]
[INFO] TimeStep: 424.637 [ms]
ExecutionTime = 17.17 s  ClockTime = 18 s

End

Finalising parallel run
