/*---------------------------------------------------------------------------*\
| =========                 |                                                 |
| \\      /  F ield         | OpenFOAM: The Open Source CFD Toolbox           |
|  \\    /   O peration     | Version:  2306                                  |
|   \\  /    A nd           | Website:  www.openfoam.com                      |
|    \\/     M anipulation  |                                                 |
\*---------------------------------------------------------------------------*/
Build  : a6e826bd55-20230630 OPENFOAM=2306 version=v2306
Arch   : "LSB;label=32;scalar=64"
Exec   : icoFoam -parallel -case /home/greole/data/code/exasim_project/micro_benchmarks/LidDrivenCavity3D/workspace/40f16e09c3d70e951db6ae6afedfbec2/case
Date   : Jul 05 2023
Time   : 20:46:24
Host   : nla-gpu2.ianm.kit.edu
PID    : 62389
I/O    : uncollated
Case   : /home/greole/data/code/exasim_project/micro_benchmarks/LidDrivenCavity3D/workspace/40f16e09c3d70e951db6ae6afedfbec2/case
nProcs : 32
Hosts  :
(
    (nla-gpu2.ianm.kit.edu 32)
)
Pstream initialized with:
    floatTransfer      : false
    nProcsSimpleSum    : 0
    nonBlockingExchange: 0 (tuning: 0)
    exchange algorithm : -1
    commsType          : nonBlocking
    polling iterations : 0
trapFpe: Floating point exception trapping enabled (FOAM_SIGFPE).
fileModificationChecking : Monitoring run-time modified files using timeStampMaster (fileModificationSkew 5, maxFileModificationPolls 20)
allowSystemOperations : Allowing user-supplied system call operations

// * * * * * * * * * * * * * * * * * * * * * * * * * * * * * * * * * * * * * //
Create time

--> FOAM Warning : 
    From void* Foam::dlLibraryTable::openLibrary(const Foam::fileName&, bool)
    in file db/dynamicLibrary/dlLibraryTable/dlLibraryTable.C at line 188
    Could not load "libpetscFoam.so"
libpetscFoam.so: cannot open shared object file: No such file or directory
Create mesh for time = 0


PISO: Operating solver in PISO mode

Reading transportProperties

Reading field p

Reading field U

Reading/calculating face flux field phi


Starting time loop

Time = 0.000125

Courant Number mean: 8.02505e-18 max: 4.85723e-14
[INFO] MatrixAssemblyU: 567.467 [ms]
DILUPBiCGStab:  Solving for Ux, Initial residual = 1, Final residual = 0.0215184, No Iterations 5
DILUPBiCGStab:  Solving for Uy:  solution singularity
DILUPBiCGStab:  Solving for Uz:  solution singularity
[INFO] MomentumPredictor: 2056.03 [ms]
[INFO] MatrixAssemblyPI: 588.746 [ms]
[INFO] AdjustPhi: 27.664 [ms]
[INFO] ConstrainPressure: 0.006 [ms]
[INFO] MatrixAssemblyPII: 166.65 [ms]
[OGL LOG][lduLduBase.H:122] Initialising OGL
	OGL commit:  13e9788+
	Branch: device_guard 
	Build type: Release
	Ginkgo version: 1.5.0 ( develop)
	Ginkgo commit: 4292ffdee
	MPI is GPU aware: 1
	Forces host buffer based communication: 0
	CPU ranks per GPU: 1
	Matrix format: Coo
	End OGL_INFO
[OGL LOG][Proc: 0]: global_index_init: 13.44 [ms]
[OGL LOG][Proc: 0]p_local_cols: call_init: 0.59 [ms]
[OGL LOG][Proc: 0]p_local_rows: call_init: 0.371 [ms]
[OGL LOG][Proc: 0]p_local_ldu_map: call_init: 0.209 [ms]
[OGL LOG][Proc: 0]p_local_coeffs: call_init: 0.23 [ms]
[OGL LOG][Proc: 0]p_non_local_cols: call_init: 0.145 [ms]
[OGL LOG][Proc: 0]p_non_local_rows: call_init: 0.128 [ms]
[OGL LOG][Proc: 0]p_non_local_ldu_map: call_init: 0.191 [ms]
[OGL LOG][Proc: 0]p_non_local_coeffs: call_init: 0.115 [ms]
[OGL LOG][Proc: 0]p: init_local_sparsity_pattern: 546.941 [ms]
[OGL LOG][Proc: 0]p: init_non_local_sparsity_pattern: 25.446 [ms]
[OGL LOG][Proc: 0]p: update_local_matrix_data: 60.174 [ms]
[OGL LOG][Proc: 0]p: update_non_local_matrix_data: 0.385 [ms]
[OGL LOG][Proc: 0]device_partition: call_init: 33.094 [ms]
[OGL LOG][Proc: 0]p_matrix: call_init: 345.907 [ms]
[OGL LOG][Proc: 0]p_rhs: call_init: 37.741 [ms]
[OGL LOG][Proc: 0]p_solution: call_init: 5.22 [ms]
[OGL LOG][Preconditioner.H:121] Generate preconditioner BJ MaxBlockSize 1
[OGL LOG][Proc: 0]p: init_precond: 8.584 [ms]
[OGL LOG][StoppingCriterion.H:372] Creating stopping criterion with minIter 0 frequency 1
[OGL LOG][Proc: 0]p: generate_solver: 0.012 [ms]
[OGL LOG][Proc: 0]p: solve: 15449.1 [ms]
[OGL LOG][Proc: 0]p: copy_x_back: 11.626 [ms]
[OGL LOG][lduLduBase.H:339] 
Statistics:
	Time per iteration: 4769 [mu s]
	Time per residual norm calculation: 2972.000000 [mu s]
	Time per iteration and DOF: 0.074516 [ns]
	Retrieve results bandwidth 1.376000 [GByte/s]
[OGL LOG][Proc: 0]p: solve_multi_gpu: 15892.9 [ms]
BJhipGKOCG:  Solving for p, Initial residual = 1, Final residual = 9.74569e-05, No Iterations 3239
[INFO] SolveP: 17001 [ms]
time step continuity errors : sum local = 2.47225e-09, global = 1.57107e-22, cumulative = 1.57107e-22
[INFO] ContinuityError: 58.157 [ms]
[INFO] CorrectBoundary: 1.196 [ms]
[INFO] PISOStep: 18033.5 [ms]
[INFO] MatrixAssemblyPI: 557.489 [ms]
[INFO] AdjustPhi: 24.846 [ms]
[INFO] ConstrainPressure: 0.002 [ms]
[INFO] MatrixAssemblyPII: 166.019 [ms]
[OGL LOG][Proc: 0]: global_index_init: 0.065 [ms]
[OGL LOG][Proc: 0]p_local_coeffs: call_update: 0.001 [ms]
[OGL LOG][Proc: 0]p_non_local_coeffs: call_update: 0 [ms]
[OGL LOG][Proc: 0]p: update_local_matrix_data: 91.313 [ms]
[OGL LOG][Proc: 0]p: update_non_local_matrix_data: 0.334 [ms]
[OGL LOG][Proc: 0]p_matrix: call_update: 33.254 [ms]
[OGL LOG][Proc: 0]p_rhs: call_update: 10.354 [ms]
[OGL LOG][Preconditioner.H:121] Generate preconditioner BJ MaxBlockSize 1
[OGL LOG][Proc: 0]p: init_precond: 1.81 [ms]
[OGL LOG][StoppingCriterion.H:372] Creating stopping criterion with minIter 1943 frequency 35
[OGL LOG][Proc: 0]p: generate_solver: 0.002 [ms]
[OGL LOG][Proc: 0]p: solve: 12762.4 [ms]
[OGL LOG][Proc: 0]p: copy_x_back: 11.375 [ms]
[OGL LOG][lduLduBase.H:339] 
Statistics:
	Time per iteration: 3919 [mu s]
	Time per residual norm calculation: 396.000000 [mu s]
	Time per iteration and DOF: 0.061234 [ns]
	Retrieve results bandwidth 1.406000 [GByte/s]
[OGL LOG][Proc: 0]p: solve_multi_gpu: 12821.3 [ms]
BJhipGKOCG:  Solving for p, Initial residual = 0.822079, Final residual = 5.79772e-05, No Iterations 3256
[INFO] SolveP: 12932.7 [ms]
time step continuity errors : sum local = 1.77199e-09, global = 3.88101e-22, cumulative = 5.45208e-22
[INFO] ContinuityError: 61.471 [ms]
[INFO] CorrectBoundary: 1.365 [ms]
[INFO] PISOStep: 13931.7 [ms]
[INFO] TimeStep: 34650.8 [ms]
ExecutionTime = 51.55 s  ClockTime = 50 s

Time = 0.00025

Courant Number mean: 0.0108529 max: 0.437705
[INFO] MatrixAssemblyU: 509.235 [ms]
DILUPBiCGStab:  Solving for Ux, Initial residual = 0.108167, Final residual = 0.013546, No Iterations 5
DILUPBiCGStab:  Solving for Uy, Initial residual = 0.484635, Final residual = 0.0533656, No Iterations 5
DILUPBiCGStab:  Solving for Uz, Initial residual = 0.990104, Final residual = 0.120222, No Iterations 5
[INFO] MomentumPredictor: 3940.42 [ms]
[INFO] MatrixAssemblyPI: 573.996 [ms]
[INFO] AdjustPhi: 27.352 [ms]
[INFO] ConstrainPressure: 0.003 [ms]
[INFO] MatrixAssemblyPII: 167.168 [ms]
[OGL LOG][Proc: 0]: global_index_init: 0.152 [ms]
[OGL LOG][Proc: 0]p_local_coeffs: call_update: 0.001 [ms]
[OGL LOG][Proc: 0]p_non_local_coeffs: call_update: 0 [ms]
[OGL LOG][Proc: 0]p: update_local_matrix_data: 91.469 [ms]
[OGL LOG][Proc: 0]p: update_non_local_matrix_data: 0.271 [ms]
[OGL LOG][Proc: 0]p_matrix: call_update: 27.633 [ms]
[OGL LOG][Proc: 0]p_rhs: call_update: 14.623 [ms]
[OGL LOG][Preconditioner.H:121] Generate preconditioner BJ MaxBlockSize 1
[OGL LOG][Proc: 0]p: init_precond: 1.91 [ms]
[OGL LOG][StoppingCriterion.H:372] Creating stopping criterion with minIter 1953 frequency 12
[OGL LOG][Proc: 0]p: generate_solver: 0.001 [ms]
[OGL LOG][Proc: 0]p: solve: 12550 [ms]
[OGL LOG][Proc: 0]p: copy_x_back: 12.95 [ms]
[OGL LOG][lduLduBase.H:339] 
Statistics:
	Time per iteration: 3945 [mu s]
	Time per residual norm calculation: 397.000000 [mu s]
	Time per iteration and DOF: 0.061641 [ns]
	Retrieve results bandwidth 1.235000 [GByte/s]
[OGL LOG][Proc: 0]p: solve_multi_gpu: 12608.8 [ms]
BJhipGKOCG:  Solving for p, Initial residual = 0.908286, Final residual = 9.90925e-05, No Iterations 3181
[INFO] SolveP: 12719.6 [ms]
time step continuity errors : sum local = 7.11242e-09, global = 5.68141e-22, cumulative = 1.11335e-21
[INFO] ContinuityError: 63.797 [ms]
[INFO] CorrectBoundary: 0.627 [ms]
[INFO] PISOStep: 13741.2 [ms]
[INFO] MatrixAssemblyPI: 556.136 [ms]
[INFO] AdjustPhi: 41.077 [ms]
[INFO] ConstrainPressure: 0.003 [ms]
[INFO] MatrixAssemblyPII: 167.596 [ms]
[OGL LOG][Proc: 0]: global_index_init: 0.263 [ms]
[OGL LOG][Proc: 0]p_local_coeffs: call_update: 0 [ms]
[OGL LOG][Proc: 0]p_non_local_coeffs: call_update: 0 [ms]
[OGL LOG][Proc: 0]p: update_local_matrix_data: 91.286 [ms]
[OGL LOG][Proc: 0]p: update_non_local_matrix_data: 0.475 [ms]
[OGL LOG][Proc: 0]p_matrix: call_update: 33.451 [ms]
[OGL LOG][Proc: 0]p_rhs: call_update: 8.805 [ms]
[OGL LOG][Preconditioner.H:121] Generate preconditioner BJ MaxBlockSize 1
[OGL LOG][Proc: 0]p: init_precond: 1.813 [ms]
[OGL LOG][StoppingCriterion.H:372] Creating stopping criterion with minIter 1908 frequency 11
[OGL LOG][Proc: 0]p: generate_solver: 0.001 [ms]
[OGL LOG][Proc: 0]p: solve: 12584.1 [ms]
[OGL LOG][Proc: 0]p: copy_x_back: 10.922 [ms]
[OGL LOG][lduLduBase.H:339] 
Statistics:
	Time per iteration: 3957 [mu s]
	Time per residual norm calculation: 390.000000 [mu s]
	Time per iteration and DOF: 0.061828 [ns]
	Retrieve results bandwidth 1.464000 [GByte/s]
[OGL LOG][Proc: 0]p: solve_multi_gpu: 12641.3 [ms]
BJhipGKOCG:  Solving for p, Initial residual = 0.859118, Final residual = 9.27815e-05, No Iterations 3180
[INFO] SolveP: 12752.6 [ms]
time step continuity errors : sum local = 6.7859e-09, global = 1.66961e-22, cumulative = 1.28031e-21
[INFO] ContinuityError: 61.458 [ms]
[INFO] CorrectBoundary: 3.209 [ms]
[INFO] PISOStep: 13770.5 [ms]
[INFO] TimeStep: 32022.6 [ms]
ExecutionTime = 88.01 s  ClockTime = 82 s

Time = 0.000375

Courant Number mean: 0.0169392 max: 0.511585
[INFO] MatrixAssemblyU: 507.046 [ms]
DILUPBiCGStab:  Solving for Ux, Initial residual = 0.0536843, Final residual = 0.00548696, No Iterations 5
DILUPBiCGStab:  Solving for Uy, Initial residual = 0.261924, Final residual = 0.0267092, No Iterations 5
DILUPBiCGStab:  Solving for Uz, Initial residual = 0.869786, Final residual = 0.0866683, No Iterations 5
[INFO] MomentumPredictor: 3957.4 [ms]
[INFO] MatrixAssemblyPI: 573.998 [ms]
[INFO] AdjustPhi: 26.512 [ms]
[INFO] ConstrainPressure: 0.003 [ms]
[INFO] MatrixAssemblyPII: 167.212 [ms]
[OGL LOG][Proc: 0]: global_index_init: 0.098 [ms]
[OGL LOG][Proc: 0]p_local_coeffs: call_update: 0 [ms]
[OGL LOG][Proc: 0]p_non_local_coeffs: call_update: 0 [ms]
[OGL LOG][Proc: 0]p: update_local_matrix_data: 91.284 [ms]
[OGL LOG][Proc: 0]p: update_non_local_matrix_data: 0.369 [ms]
[OGL LOG][Proc: 0]p_matrix: call_update: 35.481 [ms]
[OGL LOG][Proc: 0]p_rhs: call_update: 4.965 [ms]
[OGL LOG][Preconditioner.H:121] Generate preconditioner BJ MaxBlockSize 1
[OGL LOG][Proc: 0]p: init_precond: 1.912 [ms]
[OGL LOG][StoppingCriterion.H:372] Creating stopping criterion with minIter 1908 frequency 11
[OGL LOG][Proc: 0]p: generate_solver: 0.001 [ms]
[OGL LOG][Proc: 0]p: solve: 7564.07 [ms]
[OGL LOG][Proc: 0]p: copy_x_back: 12.297 [ms]
[OGL LOG][lduLduBase.H:339] 
Statistics:
	Time per iteration: 3949 [mu s]
	Time per residual norm calculation: 439.000000 [mu s]
	Time per iteration and DOF: 0.061703 [ns]
	Retrieve results bandwidth 1.301000 [GByte/s]
[OGL LOG][Proc: 0]p: solve_multi_gpu: 7620.45 [ms]
BJhipGKOCG:  Solving for p, Initial residual = 0.941469, Final residual = 3.68837e-05, No Iterations 1915
[INFO] SolveP: 7730.77 [ms]
time step continuity errors : sum local = 3.51982e-09, global = 3.36042e-22, cumulative = 1.61635e-21
[INFO] ContinuityError: 57.684 [ms]
[INFO] CorrectBoundary: 1.853 [ms]
[INFO] PISOStep: 8746.21 [ms]
[INFO] MatrixAssemblyPI: 557.271 [ms]
[INFO] AdjustPhi: 25.748 [ms]
[INFO] ConstrainPressure: 0.003 [ms]
[INFO] MatrixAssemblyPII: 166.559 [ms]
[OGL LOG][Proc: 0]: global_index_init: 0.152 [ms]
[OGL LOG][Proc: 0]p_local_coeffs: call_update: 0 [ms]
[OGL LOG][Proc: 0]p_non_local_coeffs: call_update: 0 [ms]
[OGL LOG][Proc: 0]p: update_local_matrix_data: 91.552 [ms]
[OGL LOG][Proc: 0]p: update_non_local_matrix_data: 0.288 [ms]
[OGL LOG][Proc: 0]p_matrix: call_update: 29.581 [ms]
[OGL LOG][Proc: 0]p_rhs: call_update: 7.313 [ms]
[OGL LOG][Preconditioner.H:121] Generate preconditioner BJ MaxBlockSize 1
[OGL LOG][Proc: 0]p: init_precond: 1.869 [ms]
[OGL LOG][StoppingCriterion.H:372] Creating stopping criterion with minIter 1149 frequency 9
[OGL LOG][Proc: 0]p: generate_solver: 0.009 [ms]
[OGL LOG][Proc: 0]p: solve: 6169.77 [ms]
[OGL LOG][Proc: 0]p: copy_x_back: 11.47 [ms]
[OGL LOG][lduLduBase.H:339] 
Statistics:
	Time per iteration: 4006 [mu s]
	Time per residual norm calculation: 381.000000 [mu s]
	Time per iteration and DOF: 0.062594 [ns]
	Retrieve results bandwidth 1.394000 [GByte/s]
[OGL LOG][Proc: 0]p: solve_multi_gpu: 6222.18 [ms]
BJhipGKOCG:  Solving for p, Initial residual = 0.908931, Final residual = 8.49623e-05, No Iterations 1540
[INFO] SolveP: 6332.84 [ms]
time step continuity errors : sum local = 7.60413e-09, global = 2.85927e-22, cumulative = 1.90228e-21
[INFO] ContinuityError: 61.749 [ms]
[INFO] CorrectBoundary: 1.563 [ms]
[INFO] PISOStep: 7332.57 [ms]
[INFO] TimeStep: 20604.6 [ms]
ExecutionTime = 110.6 s  ClockTime = 102 s

Time = 0.0005

Courant Number mean: 0.0205469 max: 0.477563
[INFO] MatrixAssemblyU: 506.039 [ms]
DILUPBiCGStab:  Solving for Ux, Initial residual = 0.0416261, Final residual = 0.00507892, No Iterations 5
DILUPBiCGStab:  Solving for Uy, Initial residual = 0.214002, Final residual = 0.0244204, No Iterations 5
DILUPBiCGStab:  Solving for Uz, Initial residual = 0.783181, Final residual = 0.06411, No Iterations 5
[INFO] MomentumPredictor: 3955.37 [ms]
[INFO] MatrixAssemblyPI: 575.769 [ms]
[INFO] AdjustPhi: 25.61 [ms]
[INFO] ConstrainPressure: 0.003 [ms]
[INFO] MatrixAssemblyPII: 166.378 [ms]
[OGL LOG][Proc: 0]: global_index_init: 0.286 [ms]
[OGL LOG][Proc: 0]p_local_coeffs: call_update: 0 [ms]
[OGL LOG][Proc: 0]p_non_local_coeffs: call_update: 0 [ms]
[OGL LOG][Proc: 0]p: update_local_matrix_data: 91.276 [ms]
[OGL LOG][Proc: 0]p: update_non_local_matrix_data: 0.237 [ms]
[OGL LOG][Proc: 0]p_matrix: call_update: 32.7 [ms]
[OGL LOG][Proc: 0]p_rhs: call_update: 8.833 [ms]
[OGL LOG][Preconditioner.H:121] Generate preconditioner BJ MaxBlockSize 1
[OGL LOG][Proc: 0]p: init_precond: 1.886 [ms]
[OGL LOG][StoppingCriterion.H:372] Creating stopping criterion with minIter 924 frequency 7
[OGL LOG][Proc: 0]p: generate_solver: 0.001 [ms]
[OGL LOG][Proc: 0]p: solve: 6028.57 [ms]
[OGL LOG][Proc: 0]p: copy_x_back: 12.631 [ms]
[OGL LOG][lduLduBase.H:339] 
Statistics:
	Time per iteration: 3984 [mu s]
	Time per residual norm calculation: 407.000000 [mu s]
	Time per iteration and DOF: 0.062250 [ns]
	Retrieve results bandwidth 1.266000 [GByte/s]
[OGL LOG][Proc: 0]p: solve_multi_gpu: 6086.14 [ms]
BJhipGKOCG:  Solving for p, Initial residual = 0.938263, Final residual = 9.663e-05, No Iterations 1513
[INFO] SolveP: 6196.52 [ms]
time step continuity errors : sum local = 1.10071e-08, global = 3.07659e-22, cumulative = 2.20994e-21
[INFO] ContinuityError: 61.113 [ms]
[INFO] CorrectBoundary: 2.996 [ms]
[INFO] PISOStep: 7213.07 [ms]
[INFO] MatrixAssemblyPI: 559.032 [ms]
[INFO] AdjustPhi: 24.315 [ms]
[INFO] ConstrainPressure: 0.003 [ms]
[INFO] MatrixAssemblyPII: 166.484 [ms]
[OGL LOG][Proc: 0]: global_index_init: 0.29 [ms]
[OGL LOG][Proc: 0]p_local_coeffs: call_update: 0 [ms]
[OGL LOG][Proc: 0]p_non_local_coeffs: call_update: 0 [ms]
[OGL LOG][Proc: 0]p: update_local_matrix_data: 91.387 [ms]
[OGL LOG][Proc: 0]p: update_non_local_matrix_data: 0.306 [ms]
[OGL LOG][Proc: 0]p_matrix: call_update: 30.456 [ms]
[OGL LOG][Proc: 0]p_rhs: call_update: 9.292 [ms]
[OGL LOG][Preconditioner.H:121] Generate preconditioner BJ MaxBlockSize 1
[OGL LOG][Proc: 0]p: init_precond: 1.662 [ms]
[OGL LOG][StoppingCriterion.H:372] Creating stopping criterion with minIter 907 frequency 8
[OGL LOG][Proc: 0]p: generate_solver: 0.002 [ms]
[OGL LOG][Proc: 0]p: solve: 5955.32 [ms]
[OGL LOG][Proc: 0]p: copy_x_back: 11.352 [ms]
[OGL LOG][lduLduBase.H:339] 
Statistics:
	Time per iteration: 3957 [mu s]
	Time per residual norm calculation: 385.000000 [mu s]
	Time per iteration and DOF: 0.061828 [ns]
	Retrieve results bandwidth 1.409000 [GByte/s]
[OGL LOG][Proc: 0]p: solve_multi_gpu: 6009.41 [ms]
BJhipGKOCG:  Solving for p, Initial residual = 0.880424, Final residual = 9.45964e-05, No Iterations 1505
[INFO] SolveP: 6120.01 [ms]
time step continuity errors : sum local = 1.06589e-08, global = 2.67082e-22, cumulative = 2.47702e-21
[INFO] ContinuityError: 58.704 [ms]
[INFO] CorrectBoundary: 1.391 [ms]
[INFO] PISOStep: 7119.18 [ms]
[INFO] TimeStep: 18854.9 [ms]
ExecutionTime = 131.32 s  ClockTime = 121 s

Time = 0.000625

Courant Number mean: 0.0236169 max: 0.556183
[INFO] MatrixAssemblyU: 505.798 [ms]
DILUPBiCGStab:  Solving for Ux, Initial residual = 0.0376278, Final residual = 0.00462223, No Iterations 5
DILUPBiCGStab:  Solving for Uy, Initial residual = 0.184904, Final residual = 0.0203107, No Iterations 5
DILUPBiCGStab:  Solving for Uz, Initial residual = 0.755393, Final residual = 0.0558547, No Iterations 5
[INFO] MomentumPredictor: 3953.01 [ms]
[INFO] MatrixAssemblyPI: 575.085 [ms]
[INFO] AdjustPhi: 25.625 [ms]
[INFO] ConstrainPressure: 0.003 [ms]
[INFO] MatrixAssemblyPII: 166.828 [ms]
[OGL LOG][Proc: 0]: global_index_init: 0.304 [ms]
[OGL LOG][Proc: 0]p_local_coeffs: call_update: 0 [ms]
[OGL LOG][Proc: 0]p_non_local_coeffs: call_update: 0 [ms]
[OGL LOG][Proc: 0]p: update_local_matrix_data: 91.072 [ms]
[OGL LOG][Proc: 0]p: update_non_local_matrix_data: 0.27 [ms]
[OGL LOG][Proc: 0]p_matrix: call_update: 30.074 [ms]
[OGL LOG][Proc: 0]p_rhs: call_update: 9.864 [ms]
[OGL LOG][Preconditioner.H:121] Generate preconditioner BJ MaxBlockSize 1
[OGL LOG][Proc: 0]p: init_precond: 1.813 [ms]
[OGL LOG][StoppingCriterion.H:372] Creating stopping criterion with minIter 903 frequency 7
[OGL LOG][Proc: 0]p: generate_solver: 0.002 [ms]
[OGL LOG][Proc: 0]p: solve: 12296.9 [ms]
[OGL LOG][Proc: 0]p: copy_x_back: 12.443 [ms]
[OGL LOG][lduLduBase.H:339] 
Statistics:
	Time per iteration: 4009 [mu s]
	Time per residual norm calculation: 389.000000 [mu s]
	Time per iteration and DOF: 0.062641 [ns]
	Retrieve results bandwidth 1.285000 [GByte/s]
[OGL LOG][Proc: 0]p: solve_multi_gpu: 12352.5 [ms]
BJhipGKOCG:  Solving for p, Initial residual = 0.954421, Final residual = 9.74626e-05, No Iterations 3067
[INFO] SolveP: 12465 [ms]
time step continuity errors : sum local = 1.22175e-08, global = 1.90646e-22, cumulative = 2.66767e-21
[INFO] ContinuityError: 56.337 [ms]
[INFO] CorrectBoundary: 1.156 [ms]
[INFO] PISOStep: 13479.8 [ms]
[INFO] MatrixAssemblyPI: 559.666 [ms]
[INFO] AdjustPhi: 23.708 [ms]
[INFO] ConstrainPressure: 0.003 [ms]
[INFO] MatrixAssemblyPII: 167.131 [ms]
[OGL LOG][Proc: 0]: global_index_init: 0.048 [ms]
[OGL LOG][Proc: 0]p_local_coeffs: call_update: 0 [ms]
[OGL LOG][Proc: 0]p_non_local_coeffs: call_update: 0 [ms]
[OGL LOG][Proc: 0]p: update_local_matrix_data: 90.641 [ms]
[OGL LOG][Proc: 0]p: update_non_local_matrix_data: 0.531 [ms]
[OGL LOG][Proc: 0]p_matrix: call_update: 33.429 [ms]
[OGL LOG][Proc: 0]p_rhs: call_update: 7.915 [ms]
[OGL LOG][Preconditioner.H:121] Generate preconditioner BJ MaxBlockSize 1
[OGL LOG][Proc: 0]p: init_precond: 1.694 [ms]
[OGL LOG][StoppingCriterion.H:372] Creating stopping criterion with minIter 1840 frequency 11
[OGL LOG][Proc: 0]p: generate_solver: 0.002 [ms]
[OGL LOG][Proc: 0]p: solve: 12224.3 [ms]
[OGL LOG][Proc: 0]p: copy_x_back: 12.352 [ms]
[OGL LOG][lduLduBase.H:339] 
Statistics:
	Time per iteration: 3996 [mu s]
	Time per residual norm calculation: 392.000000 [mu s]
	Time per iteration and DOF: 0.062437 [ns]
	Retrieve results bandwidth 1.295000 [GByte/s]
[OGL LOG][Proc: 0]p: solve_multi_gpu: 12282.5 [ms]
BJhipGKOCG:  Solving for p, Initial residual = 0.915201, Final residual = 9.62914e-05, No Iterations 3059
[INFO] SolveP: 12392.1 [ms]
time step continuity errors : sum local = 1.19986e-08, global = 1.29344e-22, cumulative = 2.79701e-21
[INFO] ContinuityError: 62.901 [ms]
[INFO] CorrectBoundary: 1.567 [ms]
[INFO] PISOStep: 13391.4 [ms]
[INFO] TimeStep: 31391 [ms]
ExecutionTime = 166.55 s  ClockTime = 153 s

Time = 0.00075

Courant Number mean: 0.0259525 max: 0.483353
[INFO] MatrixAssemblyU: 499.798 [ms]
DILUPBiCGStab:  Solving for Ux, Initial residual = 0.0354059, Final residual = 0.0043988, No Iterations 5
DILUPBiCGStab:  Solving for Uy, Initial residual = 0.171548, Final residual = 0.0174375, No Iterations 5
DILUPBiCGStab:  Solving for Uz, Initial residual = 0.696991, Final residual = 0.0467778, No Iterations 5
[INFO] MomentumPredictor: 3959.17 [ms]
[INFO] MatrixAssemblyPI: 575.769 [ms]
[INFO] AdjustPhi: 24.767 [ms]
[INFO] ConstrainPressure: 0.002 [ms]
[INFO] MatrixAssemblyPII: 164.566 [ms]
[OGL LOG][Proc: 0]: global_index_init: 0.064 [ms]
[OGL LOG][Proc: 0]p_local_coeffs: call_update: 0 [ms]
[OGL LOG][Proc: 0]p_non_local_coeffs: call_update: 0 [ms]
[OGL LOG][Proc: 0]p: update_local_matrix_data: 91.817 [ms]
[OGL LOG][Proc: 0]p: update_non_local_matrix_data: 0.402 [ms]
[OGL LOG][Proc: 0]p_matrix: call_update: 33.728 [ms]
[OGL LOG][Proc: 0]p_rhs: call_update: 9.021 [ms]
[OGL LOG][Preconditioner.H:121] Generate preconditioner BJ MaxBlockSize 1
[OGL LOG][Proc: 0]p: init_precond: 1.751 [ms]
[OGL LOG][StoppingCriterion.H:372] Creating stopping criterion with minIter 1835 frequency 11
[OGL LOG][Proc: 0]p: generate_solver: 0.001 [ms]
[OGL LOG][Proc: 0]p: solve: 12219.5 [ms]
[OGL LOG][Proc: 0]p: copy_x_back: 12.27 [ms]
[OGL LOG][lduLduBase.H:339] 
Statistics:
	Time per iteration: 3951 [mu s]
	Time per residual norm calculation: 388.000000 [mu s]
	Time per iteration and DOF: 0.061734 [ns]
	Retrieve results bandwidth 1.303000 [GByte/s]
[OGL LOG][Proc: 0]p: solve_multi_gpu: 12278.4 [ms]
BJhipGKOCG:  Solving for p, Initial residual = 0.951501, Final residual = 8.91584e-05, No Iterations 3092
[INFO] SolveP: 12389.4 [ms]
time step continuity errors : sum local = 1.29253e-08, global = 5.32242e-22, cumulative = 3.32925e-21
[INFO] ContinuityError: 60.389 [ms]
[INFO] CorrectBoundary: 1.133 [ms]
[INFO] PISOStep: 13406.6 [ms]
[INFO] MatrixAssemblyPI: 559.097 [ms]
[INFO] AdjustPhi: 23.677 [ms]
[INFO] ConstrainPressure: 0.004 [ms]
[INFO] MatrixAssemblyPII: 166.653 [ms]
[OGL LOG][Proc: 0]: global_index_init: 0.051 [ms]
[OGL LOG][Proc: 0]p_local_coeffs: call_update: 0 [ms]
[OGL LOG][Proc: 0]p_non_local_coeffs: call_update: 0 [ms]
[OGL LOG][Proc: 0]p: update_local_matrix_data: 91.559 [ms]
[OGL LOG][Proc: 0]p: update_non_local_matrix_data: 0.231 [ms]
[OGL LOG][Proc: 0]p_matrix: call_update: 27.245 [ms]
[OGL LOG][Proc: 0]p_rhs: call_update: 10.874 [ms]
[OGL LOG][Preconditioner.H:121] Generate preconditioner BJ MaxBlockSize 1
[OGL LOG][Proc: 0]p: init_precond: 1.792 [ms]
[OGL LOG][StoppingCriterion.H:372] Creating stopping criterion with minIter 1855 frequency 11
[OGL LOG][Proc: 0]p: generate_solver: 0.001 [ms]
[OGL LOG][Proc: 0]p: solve: 12529.4 [ms]
[OGL LOG][Proc: 0]p: copy_x_back: 12.403 [ms]
[OGL LOG][lduLduBase.H:339] 
Statistics:
	Time per iteration: 4066 [mu s]
	Time per residual norm calculation: 392.000000 [mu s]
	Time per iteration and DOF: 0.063531 [ns]
	Retrieve results bandwidth 1.290000 [GByte/s]
[OGL LOG][Proc: 0]p: solve_multi_gpu: 12583.9 [ms]
BJhipGKOCG:  Solving for p, Initial residual = 0.891318, Final residual = 9.48807e-05, No Iterations 3081
[INFO] SolveP: 12693.6 [ms]
time step continuity errors : sum local = 1.39721e-08, global = 1.51158e-22, cumulative = 3.48041e-21
[INFO] ContinuityError: 62.947 [ms]
[INFO] CorrectBoundary: 0.991 [ms]
[INFO] PISOStep: 13693.2 [ms]
[INFO] TimeStep: 31620.9 [ms]
ExecutionTime = 202.2 s  ClockTime = 184 s

Time = 0.000875

Courant Number mean: 0.0281461 max: 0.612448
[INFO] MatrixAssemblyU: 512.621 [ms]
DILUPBiCGStab:  Solving for Ux, Initial residual = 0.0350514, Final residual = 0.00417509, No Iterations 5
DILUPBiCGStab:  Solving for Uy, Initial residual = 0.176411, Final residual = 0.0165554, No Iterations 5
DILUPBiCGStab:  Solving for Uz, Initial residual = 0.695077, Final residual = 0.0423436, No Iterations 5
[INFO] MomentumPredictor: 3948.33 [ms]
[INFO] MatrixAssemblyPI: 571.107 [ms]
[INFO] AdjustPhi: 30.083 [ms]
[INFO] ConstrainPressure: 0.002 [ms]
[INFO] MatrixAssemblyPII: 165.982 [ms]
[OGL LOG][Proc: 0]: global_index_init: 0.057 [ms]
[OGL LOG][Proc: 0]p_local_coeffs: call_update: 0 [ms]
[OGL LOG][Proc: 0]p_non_local_coeffs: call_update: 0 [ms]
[OGL LOG][Proc: 0]p: update_local_matrix_data: 91.416 [ms]
[OGL LOG][Proc: 0]p: update_non_local_matrix_data: 0.367 [ms]
[OGL LOG][Proc: 0]p_matrix: call_update: 31.141 [ms]
[OGL LOG][Proc: 0]p_rhs: call_update: 9.189 [ms]
[OGL LOG][Preconditioner.H:121] Generate preconditioner BJ MaxBlockSize 1
[OGL LOG][Proc: 0]p: init_precond: 1.755 [ms]
[OGL LOG][StoppingCriterion.H:372] Creating stopping criterion with minIter 1848 frequency 11
[OGL LOG][Proc: 0]p: generate_solver: 0.002 [ms]
[OGL LOG][Proc: 0]p: solve: 12304.1 [ms]
[OGL LOG][Proc: 0]p: copy_x_back: 9.189 [ms]
[OGL LOG][lduLduBase.H:339] 
Statistics:
	Time per iteration: 3993 [mu s]
	Time per residual norm calculation: 392.000000 [mu s]
	Time per iteration and DOF: 0.062391 [ns]
	Retrieve results bandwidth 1.741000 [GByte/s]
[OGL LOG][Proc: 0]p: solve_multi_gpu: 12356.8 [ms]
BJhipGKOCG:  Solving for p, Initial residual = 0.962323, Final residual = 9.09276e-05, No Iterations 3081
[INFO] SolveP: 12471 [ms]
time step continuity errors : sum local = 1.49011e-08, global = -9.68803e-23, cumulative = 3.38353e-21
[INFO] ContinuityError: 59.044 [ms]
[INFO] CorrectBoundary: 2.626 [ms]
[INFO] PISOStep: 13487.7 [ms]
[INFO] MatrixAssemblyPI: 558.064 [ms]
[INFO] AdjustPhi: 23.964 [ms]
[INFO] ConstrainPressure: 0.002 [ms]
[INFO] MatrixAssemblyPII: 165.78 [ms]
[OGL LOG][Proc: 0]: global_index_init: 0.036 [ms]
[OGL LOG][Proc: 0]p_local_coeffs: call_update: 0 [ms]
[OGL LOG][Proc: 0]p_non_local_coeffs: call_update: 0 [ms]
[OGL LOG][Proc: 0]p: update_local_matrix_data: 88.753 [ms]
[OGL LOG][Proc: 0]p: update_non_local_matrix_data: 0.534 [ms]
[OGL LOG][Proc: 0]p_matrix: call_update: 21.99 [ms]
[OGL LOG][Proc: 0]p_rhs: call_update: 21.946 [ms]
[OGL LOG][Preconditioner.H:121] Generate preconditioner BJ MaxBlockSize 1
[OGL LOG][Proc: 0]p: init_precond: 1.466 [ms]
[OGL LOG][StoppingCriterion.H:372] Creating stopping criterion with minIter 1848 frequency 11
[OGL LOG][Proc: 0]p: generate_solver: 0.002 [ms]
[OGL LOG][Proc: 0]p: solve: 12588.4 [ms]
[OGL LOG][Proc: 0]p: copy_x_back: 9.062 [ms]
[OGL LOG][lduLduBase.H:339] 
Statistics:
	Time per iteration: 4100 [mu s]
	Time per residual norm calculation: 372.000000 [mu s]
	Time per iteration and DOF: 0.064062 [ns]
	Retrieve results bandwidth 1.765000 [GByte/s]
[OGL LOG][Proc: 0]p: solve_multi_gpu: 12644.4 [ms]
BJhipGKOCG:  Solving for p, Initial residual = 0.917612, Final residual = 9.72949e-05, No Iterations 3070
[INFO] SolveP: 12753.8 [ms]
time step continuity errors : sum local = 1.58862e-08, global = 8.47739e-22, cumulative = 4.23127e-21
[INFO] ContinuityError: 59.407 [ms]
[INFO] CorrectBoundary: 0.817 [ms]
[INFO] PISOStep: 13753 [ms]
[INFO] TimeStep: 31762.9 [ms]
ExecutionTime = 237.87 s  ClockTime = 216 s

Time = 0.001

Courant Number mean: 0.0298919 max: 0.491033
[INFO] MatrixAssemblyU: 504.933 [ms]
DILUPBiCGStab:  Solving for Ux, Initial residual = 0.0361638, Final residual = 0.00403417, No Iterations 5
DILUPBiCGStab:  Solving for Uy, Initial residual = 0.169967, Final residual = 0.0143288, No Iterations 5
DILUPBiCGStab:  Solving for Uz, Initial residual = 0.681278, Final residual = 0.0396082, No Iterations 5
[INFO] MomentumPredictor: 3957.79 [ms]
[INFO] MatrixAssemblyPI: 573.715 [ms]
[INFO] AdjustPhi: 27.184 [ms]
[INFO] ConstrainPressure: 0.003 [ms]
[INFO] MatrixAssemblyPII: 167.199 [ms]
[OGL LOG][Proc: 0]: global_index_init: 0.261 [ms]
[OGL LOG][Proc: 0]p_local_coeffs: call_update: 0 [ms]
[OGL LOG][Proc: 0]p_non_local_coeffs: call_update: 0 [ms]
[OGL LOG][Proc: 0]p: update_local_matrix_data: 91.226 [ms]
[OGL LOG][Proc: 0]p: update_non_local_matrix_data: 0.35 [ms]
[OGL LOG][Proc: 0]p_matrix: call_update: 25.807 [ms]
[OGL LOG][Proc: 0]p_rhs: call_update: 12.84 [ms]
[OGL LOG][Preconditioner.H:121] Generate preconditioner BJ MaxBlockSize 1
[OGL LOG][Proc: 0]p: init_precond: 1.359 [ms]
[OGL LOG][StoppingCriterion.H:372] Creating stopping criterion with minIter 1842 frequency 10
[OGL LOG][Proc: 0]p: generate_solver: 0.002 [ms]
[OGL LOG][Proc: 0]p: solve: 12290.3 [ms]
[OGL LOG][Proc: 0]p: copy_x_back: 12.473 [ms]
[OGL LOG][lduLduBase.H:339] 
Statistics:
	Time per iteration: 4002 [mu s]
	Time per residual norm calculation: 383.000000 [mu s]
	Time per iteration and DOF: 0.062531 [ns]
	Retrieve results bandwidth 1.282000 [GByte/s]
[OGL LOG][Proc: 0]p: solve_multi_gpu: 12347.3 [ms]
BJhipGKOCG:  Solving for p, Initial residual = 0.960253, Final residual = 8.75995e-05, No Iterations 3071
[INFO] SolveP: 12457 [ms]
time step continuity errors : sum local = 1.65232e-08, global = 3.75181e-22, cumulative = 4.60645e-21
[INFO] ContinuityError: 61.529 [ms]
[INFO] CorrectBoundary: 1.197 [ms]
[INFO] PISOStep: 13474.6 [ms]
[INFO] MatrixAssemblyPI: 559.153 [ms]
[INFO] AdjustPhi: 24.495 [ms]
[INFO] ConstrainPressure: 0.003 [ms]
[INFO] MatrixAssemblyPII: 166.151 [ms]
[OGL LOG][Proc: 0]: global_index_init: 0.04 [ms]
[OGL LOG][Proc: 0]p_local_coeffs: call_update: 0 [ms]
[OGL LOG][Proc: 0]p_non_local_coeffs: call_update: 0 [ms]
[OGL LOG][Proc: 0]p: update_local_matrix_data: 90.135 [ms]
[OGL LOG][Proc: 0]p: update_non_local_matrix_data: 0.716 [ms]
[OGL LOG][Proc: 0]p_matrix: call_update: 36.18 [ms]
[OGL LOG][Proc: 0]p_rhs: call_update: 8.141 [ms]
[OGL LOG][Preconditioner.H:121] Generate preconditioner BJ MaxBlockSize 1
[OGL LOG][Proc: 0]p: init_precond: 1.712 [ms]
[OGL LOG][StoppingCriterion.H:372] Creating stopping criterion with minIter 1842 frequency 11
[OGL LOG][Proc: 0]p: generate_solver: 0.001 [ms]
[OGL LOG][Proc: 0]p: solve: 12794.2 [ms]
[OGL LOG][Proc: 0]p: copy_x_back: 10.339 [ms]
[OGL LOG][lduLduBase.H:339] 
Statistics:
	Time per iteration: 4167 [mu s]
	Time per residual norm calculation: 391.000000 [mu s]
	Time per iteration and DOF: 0.065109 [ns]
	Retrieve results bandwidth 1.547000 [GByte/s]
[OGL LOG][Proc: 0]p: solve_multi_gpu: 12852.2 [ms]
BJhipGKOCG:  Solving for p, Initial residual = 0.89818, Final residual = 8.3279e-05, No Iterations 3070
[INFO] SolveP: 12964.7 [ms]
time step continuity errors : sum local = 1.59395e-08, global = 7.60447e-22, cumulative = 5.3669e-21
[INFO] ContinuityError: 59.981 [ms]
[INFO] CorrectBoundary: 0.834 [ms]
[INFO] PISOStep: 13966 [ms]
[INFO] TimeStep: 31965 [ms]
ExecutionTime = 273.51 s  ClockTime = 248 s

Time = 0.001125

Courant Number mean: 0.0316938 max: 0.696039
[INFO] MatrixAssemblyU: 505.681 [ms]
DILUPBiCGStab:  Solving for Ux, Initial residual = 0.0373823, Final residual = 0.00381076, No Iterations 5
DILUPBiCGStab:  Solving for Uy, Initial residual = 0.186818, Final residual = 0.0147666, No Iterations 5
DILUPBiCGStab:  Solving for Uz, Initial residual = 0.692539, Final residual = 0.037847, No Iterations 5
[INFO] MomentumPredictor: 3945.55 [ms]
[INFO] MatrixAssemblyPI: 575.818 [ms]
[INFO] AdjustPhi: 24.556 [ms]
[INFO] ConstrainPressure: 0.003 [ms]
[INFO] MatrixAssemblyPII: 166.753 [ms]
[OGL LOG][Proc: 0]: global_index_init: 0.038 [ms]
[OGL LOG][Proc: 0]p_local_coeffs: call_update: 0 [ms]
[OGL LOG][Proc: 0]p_non_local_coeffs: call_update: 0 [ms]
[OGL LOG][Proc: 0]p: update_local_matrix_data: 91.376 [ms]
[OGL LOG][Proc: 0]p: update_non_local_matrix_data: 0.362 [ms]
[OGL LOG][Proc: 0]p_matrix: call_update: 33.119 [ms]
[OGL LOG][Proc: 0]p_rhs: call_update: 9.275 [ms]
[OGL LOG][Preconditioner.H:121] Generate preconditioner BJ MaxBlockSize 1
[OGL LOG][Proc: 0]p: init_precond: 1.168 [ms]
[OGL LOG][StoppingCriterion.H:372] Creating stopping criterion with minIter 1842 frequency 11
[OGL LOG][Proc: 0]p: generate_solver: 0.002 [ms]
[OGL LOG][Proc: 0]p: solve: 12301.5 [ms]
[OGL LOG][Proc: 0]p: copy_x_back: 8.749 [ms]
[OGL LOG][lduLduBase.H:339] 
Statistics:
	Time per iteration: 4006 [mu s]
	Time per residual norm calculation: 389.000000 [mu s]
	Time per iteration and DOF: 0.062594 [ns]
	Retrieve results bandwidth 1.828000 [GByte/s]
[OGL LOG][Proc: 0]p: solve_multi_gpu: 12355.2 [ms]
BJhipGKOCG:  Solving for p, Initial residual = 0.9681, Final residual = 9.10282e-05, No Iterations 3070
[INFO] SolveP: 12467.7 [ms]
time step continuity errors : sum local = 1.96677e-08, global = 8.63444e-22, cumulative = 6.23034e-21
[INFO] ContinuityError: 59.068 [ms]
[INFO] CorrectBoundary: 2.258 [ms]
[INFO] PISOStep: 13485 [ms]
[INFO] MatrixAssemblyPI: 559.23 [ms]
[INFO] AdjustPhi: 23.74 [ms]
[INFO] ConstrainPressure: 0.003 [ms]
[INFO] MatrixAssemblyPII: 165.956 [ms]
[OGL LOG][Proc: 0]: global_index_init: 0.045 [ms]
[OGL LOG][Proc: 0]p_local_coeffs: call_update: 0 [ms]
[OGL LOG][Proc: 0]p_non_local_coeffs: call_update: 0 [ms]
[OGL LOG][Proc: 0]p: update_local_matrix_data: 91.471 [ms]
[OGL LOG][Proc: 0]p: update_non_local_matrix_data: 0.211 [ms]
[OGL LOG][Proc: 0]p_matrix: call_update: 29.402 [ms]
[OGL LOG][Proc: 0]p_rhs: call_update: 16.184 [ms]
[OGL LOG][Preconditioner.H:121] Generate preconditioner BJ MaxBlockSize 1
[OGL LOG][Proc: 0]p: init_precond: 1.691 [ms]
[OGL LOG][StoppingCriterion.H:372] Creating stopping criterion with minIter 1842 frequency 11
[OGL LOG][Proc: 0]p: generate_solver: 0.002 [ms]
[OGL LOG][Proc: 0]p: solve: 12552.6 [ms]
[OGL LOG][Proc: 0]p: copy_x_back: 9 [ms]
[OGL LOG][lduLduBase.H:339] 
Statistics:
	Time per iteration: 4103 [mu s]
	Time per residual norm calculation: 388.000000 [mu s]
	Time per iteration and DOF: 0.064109 [ns]
	Retrieve results bandwidth 1.777000 [GByte/s]
[OGL LOG][Proc: 0]p: solve_multi_gpu: 12610.2 [ms]
BJhipGKOCG:  Solving for p, Initial residual = 0.918676, Final residual = 9.91088e-05, No Iterations 3059
[INFO] SolveP: 12722.6 [ms]
time step continuity errors : sum local = 2.13847e-08, global = 8.57618e-22, cumulative = 7.08796e-21
[INFO] ContinuityError: 64.797 [ms]
[INFO] CorrectBoundary: 5.701 [ms]
[INFO] PISOStep: 13724.4 [ms]
[INFO] TimeStep: 31722.4 [ms]
ExecutionTime = 308.93 s  ClockTime = 280 s

Time = 0.00125

Courant Number mean: 0.0331065 max: 0.507109
[INFO] MatrixAssemblyU: 505.83 [ms]
DILUPBiCGStab:  Solving for Ux, Initial residual = 0.040745, Final residual = 0.00387758, No Iterations 5
DILUPBiCGStab:  Solving for Uy, Initial residual = 0.185572, Final residual = 0.0130461, No Iterations 5
DILUPBiCGStab:  Solving for Uz, Initial residual = 0.692635, Final residual = 0.0367847, No Iterations 5
[INFO] MomentumPredictor: 4072.41 [ms]
[INFO] MatrixAssemblyPI: 576.077 [ms]
[INFO] AdjustPhi: 33.986 [ms]
[INFO] ConstrainPressure: 0.003 [ms]
[INFO] MatrixAssemblyPII: 166.381 [ms]
[OGL LOG][Proc: 0]: global_index_init: 0.399 [ms]
[OGL LOG][Proc: 0]p_local_coeffs: call_update: 0 [ms]
[OGL LOG][Proc: 0]p_non_local_coeffs: call_update: 0 [ms]
[OGL LOG][Proc: 0]p: update_local_matrix_data: 91.04 [ms]
[OGL LOG][Proc: 0]p: update_non_local_matrix_data: 0.427 [ms]
[OGL LOG][Proc: 0]p_matrix: call_update: 21.475 [ms]
[OGL LOG][Proc: 0]p_rhs: call_update: 17.03 [ms]
[OGL LOG][Preconditioner.H:121] Generate preconditioner BJ MaxBlockSize 1
[OGL LOG][Proc: 0]p: init_precond: 1.774 [ms]
[OGL LOG][StoppingCriterion.H:372] Creating stopping criterion with minIter 1835 frequency 11
[OGL LOG][Proc: 0]p: generate_solver: 0.002 [ms]
[OGL LOG][Proc: 0]p: solve: 12214.5 [ms]
[OGL LOG][Proc: 0]p: copy_x_back: 7.919 [ms]
[OGL LOG][lduLduBase.H:339] 
Statistics:
	Time per iteration: 3978 [mu s]
	Time per residual norm calculation: 386.000000 [mu s]
	Time per iteration and DOF: 0.062156 [ns]
	Retrieve results bandwidth 2.020000 [GByte/s]
[OGL LOG][Proc: 0]p: solve_multi_gpu: 12267 [ms]
BJhipGKOCG:  Solving for p, Initial residual = 0.967463, Final residual = 8.90315e-05, No Iterations 3070
[INFO] SolveP: 12384.9 [ms]
time step continuity errors : sum local = 2.23922e-08, global = -1.06712e-21, cumulative = 6.02083e-21
[INFO] ContinuityError: 52.043 [ms]
[INFO] CorrectBoundary: 2.072 [ms]
[INFO] PISOStep: 13409.9 [ms]
[INFO] MatrixAssemblyPI: 558.158 [ms]
[INFO] AdjustPhi: 24.183 [ms]
[INFO] ConstrainPressure: 0.003 [ms]
[INFO] MatrixAssemblyPII: 163.035 [ms]
[OGL LOG][Proc: 0]: global_index_init: 0.097 [ms]
[OGL LOG][Proc: 0]p_local_coeffs: call_update: 0 [ms]
[OGL LOG][Proc: 0]p_non_local_coeffs: call_update: 0 [ms]
[OGL LOG][Proc: 0]p: update_local_matrix_data: 91.355 [ms]
[OGL LOG][Proc: 0]p: update_non_local_matrix_data: 0.235 [ms]
[OGL LOG][Proc: 0]p_matrix: call_update: 29.328 [ms]
[OGL LOG][Proc: 0]p_rhs: call_update: 15.693 [ms]
[OGL LOG][Preconditioner.H:121] Generate preconditioner BJ MaxBlockSize 1
[OGL LOG][Proc: 0]p: init_precond: 1.805 [ms]
[OGL LOG][StoppingCriterion.H:372] Creating stopping criterion with minIter 1842 frequency 11
[OGL LOG][Proc: 0]p: generate_solver: 0.001 [ms]
[OGL LOG][Proc: 0]p: solve: 12546 [ms]
[OGL LOG][Proc: 0]p: copy_x_back: 9.372 [ms]
[OGL LOG][lduLduBase.H:339] 
Statistics:
	Time per iteration: 4101 [mu s]
	Time per residual norm calculation: 396.000000 [mu s]
	Time per iteration and DOF: 0.064078 [ns]
	Retrieve results bandwidth 1.707000 [GByte/s]
[OGL LOG][Proc: 0]p: solve_multi_gpu: 12603.7 [ms]
BJhipGKOCG:  Solving for p, Initial residual = 0.903777, Final residual = 9.7277e-05, No Iterations 3059
[INFO] SolveP: 12716.1 [ms]
time step continuity errors : sum local = 2.47934e-08, global = 6.44771e-22, cumulative = 6.66561e-21
[INFO] ContinuityError: 59.683 [ms]
[INFO] CorrectBoundary: 1.557 [ms]
[INFO] PISOStep: 13715.4 [ms]
[INFO] TimeStep: 31766.9 [ms]
ExecutionTime = 344.56 s  ClockTime = 312 s

Time = 0.001375

Courant Number mean: 0.0347044 max: 0.825581
[INFO] MatrixAssemblyU: 507.282 [ms]
DILUPBiCGStab:  Solving for Ux, Initial residual = 0.043467, Final residual = 0.00370507, No Iterations 5
DILUPBiCGStab:  Solving for Uy, Initial residual = 0.2092, Final residual = 0.0140808, No Iterations 5
DILUPBiCGStab:  Solving for Uz, Initial residual = 0.706032, Final residual = 0.0360263, No Iterations 5
[INFO] MomentumPredictor: 3955.07 [ms]
[INFO] MatrixAssemblyPI: 573.643 [ms]
[INFO] AdjustPhi: 31.523 [ms]
[INFO] ConstrainPressure: 0.003 [ms]
[INFO] MatrixAssemblyPII: 167.258 [ms]
[OGL LOG][Proc: 0]: global_index_init: 0.05 [ms]
[OGL LOG][Proc: 0]p_local_coeffs: call_update: 0 [ms]
[OGL LOG][Proc: 0]p_non_local_coeffs: call_update: 0 [ms]
[OGL LOG][Proc: 0]p: update_local_matrix_data: 90.955 [ms]
[OGL LOG][Proc: 0]p: update_non_local_matrix_data: 0.351 [ms]
[OGL LOG][Proc: 0]p_matrix: call_update: 36.974 [ms]
[OGL LOG][Proc: 0]p_rhs: call_update: 19.162 [ms]
[OGL LOG][Preconditioner.H:121] Generate preconditioner BJ MaxBlockSize 1
[OGL LOG][Proc: 0]p: init_precond: 1.776 [ms]
[OGL LOG][StoppingCriterion.H:372] Creating stopping criterion with minIter 1835 frequency 11
[OGL LOG][Proc: 0]p: generate_solver: 0.002 [ms]
[OGL LOG][Proc: 0]p: solve: 12182 [ms]
[OGL LOG][Proc: 0]p: copy_x_back: 9.045 [ms]
[OGL LOG][lduLduBase.H:339] 
Statistics:
	Time per iteration: 3982 [mu s]
	Time per residual norm calculation: 378.000000 [mu s]
	Time per iteration and DOF: 0.062219 [ns]
	Retrieve results bandwidth 1.768000 [GByte/s]
[OGL LOG][Proc: 0]p: solve_multi_gpu: 12250.4 [ms]
BJhipGKOCG:  Solving for p, Initial residual = 0.973042, Final residual = 9.80889e-05, No Iterations 3059
[INFO] SolveP: 12361.9 [ms]
time step continuity errors : sum local = 2.86225e-08, global = 1.05654e-21, cumulative = 7.72215e-21
[INFO] ContinuityError: 63.211 [ms]
[INFO] CorrectBoundary: 2.559 [ms]
[INFO] PISOStep: 13383.8 [ms]
[INFO] MatrixAssemblyPI: 557.969 [ms]
[INFO] AdjustPhi: 24.798 [ms]
[INFO] ConstrainPressure: 0.003 [ms]
[INFO] MatrixAssemblyPII: 166.525 [ms]
[OGL LOG][Proc: 0]: global_index_init: 0.046 [ms]
[OGL LOG][Proc: 0]p_local_coeffs: call_update: 0 [ms]
[OGL LOG][Proc: 0]p_non_local_coeffs: call_update: 0 [ms]
[OGL LOG][Proc: 0]p: update_local_matrix_data: 91.452 [ms]
[OGL LOG][Proc: 0]p: update_non_local_matrix_data: 0.346 [ms]
[OGL LOG][Proc: 0]p_matrix: call_update: 34.598 [ms]
[OGL LOG][Proc: 0]p_rhs: call_update: 16.62 [ms]
[OGL LOG][Preconditioner.H:121] Generate preconditioner BJ MaxBlockSize 1
[OGL LOG][Proc: 0]p: init_precond: 0.968 [ms]
[OGL LOG][StoppingCriterion.H:372] Creating stopping criterion with minIter 1835 frequency 11
[OGL LOG][Proc: 0]p: generate_solver: 0.002 [ms]
[OGL LOG][Proc: 0]p: solve: 12477.5 [ms]
[OGL LOG][Proc: 0]p: copy_x_back: 9.712 [ms]
[OGL LOG][lduLduBase.H:339] 
Statistics:
	Time per iteration: 4078 [mu s]
	Time per residual norm calculation: 383.000000 [mu s]
	Time per iteration and DOF: 0.063719 [ns]
	Retrieve results bandwidth 1.647000 [GByte/s]
[OGL LOG][Proc: 0]p: solve_multi_gpu: 12540.7 [ms]
BJhipGKOCG:  Solving for p, Initial residual = 0.919501, Final residual = 9.23582e-05, No Iterations 3059
[INFO] SolveP: 12655.2 [ms]
time step continuity errors : sum local = 2.69669e-08, global = -3.9421e-22, cumulative = 7.32794e-21
[INFO] ContinuityError: 62.298 [ms]
[INFO] CorrectBoundary: 0.871 [ms]
[INFO] PISOStep: 13654 [ms]
[INFO] TimeStep: 31563.2 [ms]
ExecutionTime = 379.92 s  ClockTime = 343 s

Time = 0.0015

Courant Number mean: 0.0359032 max: 0.597552
[INFO] MatrixAssemblyU: 502.933 [ms]
DILUPBiCGStab:  Solving for Ux, Initial residual = 0.0488998, Final residual = 0.00391172, No Iterations 5
DILUPBiCGStab:  Solving for Uy, Initial residual = 0.213479, Final residual = 0.0129204, No Iterations 5
DILUPBiCGStab:  Solving for Uz, Initial residual = 0.70996, Final residual = 0.0357238, No Iterations 5
[INFO] MomentumPredictor: 3963.62 [ms]
[INFO] MatrixAssemblyPI: 575.32 [ms]
[INFO] AdjustPhi: 25.103 [ms]
[INFO] ConstrainPressure: 0.003 [ms]
[INFO] MatrixAssemblyPII: 166.423 [ms]
[OGL LOG][Proc: 0]: global_index_init: 0.138 [ms]
[OGL LOG][Proc: 0]p_local_coeffs: call_update: 0 [ms]
[OGL LOG][Proc: 0]p_non_local_coeffs: call_update: 0 [ms]
[OGL LOG][Proc: 0]p: update_local_matrix_data: 90.837 [ms]
[OGL LOG][Proc: 0]p: update_non_local_matrix_data: 0.256 [ms]
[OGL LOG][Proc: 0]p_matrix: call_update: 38.204 [ms]
[OGL LOG][Proc: 0]p_rhs: call_update: 17.583 [ms]
[OGL LOG][Preconditioner.H:121] Generate preconditioner BJ MaxBlockSize 1
[OGL LOG][Proc: 0]p: init_precond: 1.851 [ms]
[OGL LOG][StoppingCriterion.H:372] Creating stopping criterion with minIter 1835 frequency 11
[OGL LOG][Proc: 0]p: generate_solver: 0.001 [ms]
[OGL LOG][Proc: 0]p: solve: 12100.4 [ms]
[OGL LOG][Proc: 0]p: copy_x_back: 8.558 [ms]
[OGL LOG][lduLduBase.H:339] 
Statistics:
	Time per iteration: 3955 [mu s]
	Time per residual norm calculation: 390.000000 [mu s]
	Time per iteration and DOF: 0.061797 [ns]
	Retrieve results bandwidth 1.869000 [GByte/s]
[OGL LOG][Proc: 0]p: solve_multi_gpu: 12168.1 [ms]
BJhipGKOCG:  Solving for p, Initial residual = 0.973289, Final residual = 9.44028e-05, No Iterations 3059
[INFO] SolveP: 12279.8 [ms]
time step continuity errors : sum local = 3.23024e-08, global = -6.62591e-22, cumulative = 6.66535e-21
[INFO] ContinuityError: 64.114 [ms]
[INFO] CorrectBoundary: 2.391 [ms]
[INFO] PISOStep: 13296.9 [ms]
[INFO] MatrixAssemblyPI: 557.66 [ms]
[INFO] AdjustPhi: 25.938 [ms]
[INFO] ConstrainPressure: 0.003 [ms]
[INFO] MatrixAssemblyPII: 165.12 [ms]
[OGL LOG][Proc: 0]: global_index_init: 0.049 [ms]
[OGL LOG][Proc: 0]p_local_coeffs: call_update: 0 [ms]
[OGL LOG][Proc: 0]p_non_local_coeffs: call_update: 0 [ms]
[OGL LOG][Proc: 0]p: update_local_matrix_data: 91.16 [ms]
[OGL LOG][Proc: 0]p: update_non_local_matrix_data: 0.355 [ms]
[OGL LOG][Proc: 0]p_matrix: call_update: 37.968 [ms]
[OGL LOG][Proc: 0]p_rhs: call_update: 14.027 [ms]
[OGL LOG][Preconditioner.H:121] Generate preconditioner BJ MaxBlockSize 1
[OGL LOG][Proc: 0]p: init_precond: 1.578 [ms]
[OGL LOG][StoppingCriterion.H:372] Creating stopping criterion with minIter 1835 frequency 11
[OGL LOG][Proc: 0]p: generate_solver: 0.002 [ms]
[OGL LOG][Proc: 0]p: solve: 12512.8 [ms]
[OGL LOG][Proc: 0]p: copy_x_back: 8.557 [ms]
[OGL LOG][lduLduBase.H:339] 
Statistics:
	Time per iteration: 4090 [mu s]
	Time per residual norm calculation: 393.000000 [mu s]
	Time per iteration and DOF: 0.063906 [ns]
	Retrieve results bandwidth 1.869000 [GByte/s]
[OGL LOG][Proc: 0]p: solve_multi_gpu: 12577.3 [ms]
BJhipGKOCG:  Solving for p, Initial residual = 0.908632, Final residual = 8.99855e-05, No Iterations 3059
[INFO] SolveP: 12692.8 [ms]
time step continuity errors : sum local = 3.1164e-08, global = 6.54668e-22, cumulative = 7.32002e-21
[INFO] ContinuityError: 59.22 [ms]
[INFO] CorrectBoundary: 1.954 [ms]
[INFO] PISOStep: 13691.3 [ms]
[INFO] TimeStep: 31517.2 [ms]
ExecutionTime = 415.29 s  ClockTime = 375 s

Time = 0.001625

Courant Number mean: 0.037397 max: 1.14775
[INFO] MatrixAssemblyU: 500.606 [ms]
DILUPBiCGStab:  Solving for Ux, Initial residual = 0.0534873, Final residual = 0.00384588, No Iterations 5
DILUPBiCGStab:  Solving for Uy, Initial residual = 0.241777, Final residual = 0.0142024, No Iterations 5
DILUPBiCGStab:  Solving for Uz, Initial residual = 0.722032, Final residual = 0.0354029, No Iterations 5
[INFO] MomentumPredictor: 3950.64 [ms]
[INFO] MatrixAssemblyPI: 573.478 [ms]
[INFO] AdjustPhi: 27.443 [ms]
[INFO] ConstrainPressure: 0.002 [ms]
[INFO] MatrixAssemblyPII: 161.548 [ms]
[OGL LOG][Proc: 0]: global_index_init: 0.146 [ms]
[OGL LOG][Proc: 0]p_local_coeffs: call_update: 0 [ms]
[OGL LOG][Proc: 0]p_non_local_coeffs: call_update: 0 [ms]
[OGL LOG][Proc: 0]p: update_local_matrix_data: 89.562 [ms]
[OGL LOG][Proc: 0]p: update_non_local_matrix_data: 0.506 [ms]
[OGL LOG][Proc: 0]p_matrix: call_update: 40.799 [ms]
[OGL LOG][Proc: 0]p_rhs: call_update: 8.874 [ms]
[OGL LOG][Preconditioner.H:121] Generate preconditioner BJ MaxBlockSize 1
[OGL LOG][Proc: 0]p: init_precond: 1.722 [ms]
[OGL LOG][StoppingCriterion.H:372] Creating stopping criterion with minIter 1835 frequency 11
[OGL LOG][Proc: 0]p: generate_solver: 0.002 [ms]
[OGL LOG][Proc: 0]p: solve: 12120.8 [ms]
[OGL LOG][Proc: 0]p: copy_x_back: 8.417 [ms]
[OGL LOG][lduLduBase.H:339] 
Statistics:
	Time per iteration: 3962 [mu s]
	Time per residual norm calculation: 393.000000 [mu s]
	Time per iteration and DOF: 0.061906 [ns]
	Retrieve results bandwidth 1.900000 [GByte/s]
[OGL LOG][Proc: 0]p: solve_multi_gpu: 12182.1 [ms]
BJhipGKOCG:  Solving for p, Initial residual = 0.976855, Final residual = 9.94633e-05, No Iterations 3059
[INFO] SolveP: 12295.9 [ms]
time step continuity errors : sum local = 3.98716e-08, global = 1.74488e-21, cumulative = 9.0649e-21
[INFO] ContinuityError: 62.433 [ms]
[INFO] CorrectBoundary: 2.132 [ms]
[INFO] PISOStep: 13314.1 [ms]
[INFO] MatrixAssemblyPI: 556.16 [ms]
[INFO] AdjustPhi: 26.536 [ms]
[INFO] ConstrainPressure: 0.003 [ms]
[INFO] MatrixAssemblyPII: 166.405 [ms]
[OGL LOG][Proc: 0]: global_index_init: 0.071 [ms]
[OGL LOG][Proc: 0]p_local_coeffs: call_update: 0 [ms]
[OGL LOG][Proc: 0]p_non_local_coeffs: call_update: 0 [ms]
[OGL LOG][Proc: 0]p: update_local_matrix_data: 91.116 [ms]
[OGL LOG][Proc: 0]p: update_non_local_matrix_data: 0.325 [ms]
[OGL LOG][Proc: 0]p_matrix: call_update: 43.226 [ms]
[OGL LOG][Proc: 0]p_rhs: call_update: 5.539 [ms]
[OGL LOG][Preconditioner.H:121] Generate preconditioner BJ MaxBlockSize 1
[OGL LOG][Proc: 0]p: init_precond: 1.714 [ms]
[OGL LOG][StoppingCriterion.H:372] Creating stopping criterion with minIter 1835 frequency 11
[OGL LOG][Proc: 0]p: generate_solver: 0.001 [ms]
[OGL LOG][Proc: 0]p: solve: 12525.2 [ms]
[OGL LOG][Proc: 0]p: copy_x_back: 8.781 [ms]
[OGL LOG][lduLduBase.H:339] 
Statistics:
	Time per iteration: 4094 [mu s]
	Time per residual norm calculation: 364.000000 [mu s]
	Time per iteration and DOF: 0.063969 [ns]
	Retrieve results bandwidth 1.822000 [GByte/s]
[OGL LOG][Proc: 0]p: solve_multi_gpu: 12587.3 [ms]
BJhipGKOCG:  Solving for p, Initial residual = 0.920286, Final residual = 9.31847e-05, No Iterations 3059
[INFO] SolveP: 12702.1 [ms]
time step continuity errors : sum local = 3.74443e-08, global = 7.26219e-22, cumulative = 9.79111e-21
[INFO] ContinuityError: 63.154 [ms]
[INFO] CorrectBoundary: 1.79 [ms]
[INFO] PISOStep: 13699.6 [ms]
[INFO] TimeStep: 31525.9 [ms]
ExecutionTime = 450.65 s  ClockTime = 406 s

Time = 0.00175

Courant Number mean: 0.0384581 max: 1.02092
[INFO] MatrixAssemblyU: 506.547 [ms]
DILUPBiCGStab:  Solving for Ux, Initial residual = 0.0614323, Final residual = 0.00414896, No Iterations 5
DILUPBiCGStab:  Solving for Uy, Initial residual = 0.25213, Final residual = 0.0135765, No Iterations 5
DILUPBiCGStab:  Solving for Uz, Initial residual = 0.726368, Final residual = 0.0352259, No Iterations 5
[INFO] MomentumPredictor: 3953.79 [ms]
[INFO] MatrixAssemblyPI: 575.97 [ms]
[INFO] AdjustPhi: 24.05 [ms]
[INFO] ConstrainPressure: 0.002 [ms]
[INFO] MatrixAssemblyPII: 166.521 [ms]
[OGL LOG][Proc: 0]: global_index_init: 0.034 [ms]
[OGL LOG][Proc: 0]p_local_coeffs: call_update: 0 [ms]
[OGL LOG][Proc: 0]p_non_local_coeffs: call_update: 0 [ms]
[OGL LOG][Proc: 0]p: update_local_matrix_data: 91.142 [ms]
[OGL LOG][Proc: 0]p: update_non_local_matrix_data: 0.242 [ms]
[OGL LOG][Proc: 0]p_matrix: call_update: 39.282 [ms]
[OGL LOG][Proc: 0]p_rhs: call_update: 9.893 [ms]
[OGL LOG][Preconditioner.H:121] Generate preconditioner BJ MaxBlockSize 1
[OGL LOG][Proc: 0]p: init_precond: 1.503 [ms]
[OGL LOG][StoppingCriterion.H:372] Creating stopping criterion with minIter 1835 frequency 10
[OGL LOG][Proc: 0]p: generate_solver: 0.002 [ms]
[OGL LOG][Proc: 0]p: solve: 12206 [ms]
[OGL LOG][Proc: 0]p: copy_x_back: 8.843 [ms]
[OGL LOG][lduLduBase.H:339] 
Statistics:
	Time per iteration: 3987 [mu s]
	Time per residual norm calculation: 393.000000 [mu s]
	Time per iteration and DOF: 0.062297 [ns]
	Retrieve results bandwidth 1.809000 [GByte/s]
[OGL LOG][Proc: 0]p: solve_multi_gpu: 12272.5 [ms]
BJhipGKOCG:  Solving for p, Initial residual = 0.977545, Final residual = 9.85862e-05, No Iterations 3061
[INFO] SolveP: 12383 [ms]
time step continuity errors : sum local = 4.65852e-08, global = 8.70633e-22, cumulative = 1.06617e-20
[INFO] ContinuityError: 60.199 [ms]
[INFO] CorrectBoundary: 1.279 [ms]
[INFO] PISOStep: 13398.2 [ms]
[INFO] MatrixAssemblyPI: 559.397 [ms]
[INFO] AdjustPhi: 27.409 [ms]
[INFO] ConstrainPressure: 0.003 [ms]
[INFO] MatrixAssemblyPII: 166.009 [ms]
[OGL LOG][Proc: 0]: global_index_init: 0.06 [ms]
[OGL LOG][Proc: 0]p_local_coeffs: call_update: 0 [ms]
[OGL LOG][Proc: 0]p_non_local_coeffs: call_update: 0 [ms]
[OGL LOG][Proc: 0]p: update_local_matrix_data: 91.082 [ms]
[OGL LOG][Proc: 0]p: update_non_local_matrix_data: 0.362 [ms]
[OGL LOG][Proc: 0]p_matrix: call_update: 41.714 [ms]
[OGL LOG][Proc: 0]p_rhs: call_update: 5.831 [ms]
[OGL LOG][Preconditioner.H:121] Generate preconditioner BJ MaxBlockSize 1
[OGL LOG][Proc: 0]p: init_precond: 1.209 [ms]
[OGL LOG][StoppingCriterion.H:372] Creating stopping criterion with minIter 1836 frequency 11
[OGL LOG][Proc: 0]p: generate_solver: 0.002 [ms]
[OGL LOG][Proc: 0]p: solve: 12515.7 [ms]
[OGL LOG][Proc: 0]p: copy_x_back: 11.551 [ms]
[OGL LOG][lduLduBase.H:339] 
Statistics:
	Time per iteration: 4091 [mu s]
	Time per residual norm calculation: 376.000000 [mu s]
	Time per iteration and DOF: 0.063922 [ns]
	Retrieve results bandwidth 1.385000 [GByte/s]
[OGL LOG][Proc: 0]p: solve_multi_gpu: 12577.7 [ms]
BJhipGKOCG:  Solving for p, Initial residual = 0.912716, Final residual = 9.44873e-05, No Iterations 3059
[INFO] SolveP: 12688.4 [ms]
time step continuity errors : sum local = 4.51403e-08, global = 2.18828e-22, cumulative = 1.08806e-20
[INFO] ContinuityError: 61.642 [ms]
[INFO] CorrectBoundary: 3.02 [ms]
[INFO] PISOStep: 13690.3 [ms]
[INFO] TimeStep: 31611.4 [ms]
ExecutionTime = 485.83 s  ClockTime = 438 s

Time = 0.001875

Courant Number mean: 0.039921 max: 1.68236
[INFO] MatrixAssemblyU: 490.067 [ms]
DILUPBiCGStab:  Solving for Ux, Initial residual = 0.0683296, Final residual = 0.00422857, No Iterations 5
DILUPBiCGStab:  Solving for Uy, Initial residual = 0.284092, Final residual = 0.0149588, No Iterations 5
DILUPBiCGStab:  Solving for Uz, Initial residual = 0.73515, Final residual = 0.0350067, No Iterations 5
[INFO] MomentumPredictor: 3964.07 [ms]
[INFO] MatrixAssemblyPI: 575.808 [ms]
[INFO] AdjustPhi: 24.338 [ms]
[INFO] ConstrainPressure: 0.002 [ms]
[INFO] MatrixAssemblyPII: 164.984 [ms]
[OGL LOG][Proc: 0]: global_index_init: 0.029 [ms]
[OGL LOG][Proc: 0]p_local_coeffs: call_update: 0 [ms]
[OGL LOG][Proc: 0]p_non_local_coeffs: call_update: 0 [ms]
[OGL LOG][Proc: 0]p: update_local_matrix_data: 91.46 [ms]
[OGL LOG][Proc: 0]p: update_non_local_matrix_data: 0.225 [ms]
[OGL LOG][Proc: 0]p_matrix: call_update: 45.592 [ms]
[OGL LOG][Proc: 0]p_rhs: call_update: 5.952 [ms]
[OGL LOG][Preconditioner.H:121] Generate preconditioner BJ MaxBlockSize 1
[OGL LOG][Proc: 0]p: init_precond: 1.773 [ms]
[OGL LOG][StoppingCriterion.H:372] Creating stopping criterion with minIter 1835 frequency 11
[OGL LOG][Proc: 0]p: generate_solver: 0 [ms]
[OGL LOG][Proc: 0]p: solve: 12163.8 [ms]
[OGL LOG][Proc: 0]p: copy_x_back: 8.698 [ms]
[OGL LOG][lduLduBase.H:339] 
Statistics:
	Time per iteration: 3962 [mu s]
	Time per residual norm calculation: 389.000000 [mu s]
	Time per iteration and DOF: 0.061906 [ns]
	Retrieve results bandwidth 1.839000 [GByte/s]
[OGL LOG][Proc: 0]p: solve_multi_gpu: 12227.3 [ms]
BJhipGKOCG:  Solving for p, Initial residual = 0.979659, Final residual = 8.7757e-05, No Iterations 3070
[INFO] SolveP: 12342.6 [ms]
time step continuity errors : sum local = 4.88856e-08, global = -8.37533e-22, cumulative = 1.0043e-20
[INFO] ContinuityError: 59.307 [ms]
[INFO] CorrectBoundary: 5.114 [ms]
[INFO] PISOStep: 13358 [ms]
[INFO] MatrixAssemblyPI: 547.253 [ms]
[INFO] AdjustPhi: 36.085 [ms]
[INFO] ConstrainPressure: 0.003 [ms]
[INFO] MatrixAssemblyPII: 166.721 [ms]
[OGL LOG][Proc: 0]: global_index_init: 0.288 [ms]
[OGL LOG][Proc: 0]p_local_coeffs: call_update: 0 [ms]
[OGL LOG][Proc: 0]p_non_local_coeffs: call_update: 0 [ms]
[OGL LOG][Proc: 0]p: update_local_matrix_data: 89.247 [ms]
[OGL LOG][Proc: 0]p: update_non_local_matrix_data: 0.669 [ms]
[OGL LOG][Proc: 0]p_matrix: call_update: 25.688 [ms]
[OGL LOG][Proc: 0]p_rhs: call_update: 23.752 [ms]
[OGL LOG][Preconditioner.H:121] Generate preconditioner BJ MaxBlockSize 1
[OGL LOG][Proc: 0]p: init_precond: 1.444 [ms]
[OGL LOG][StoppingCriterion.H:372] Creating stopping criterion with minIter 1842 frequency 11
[OGL LOG][Proc: 0]p: generate_solver: 0.001 [ms]
[OGL LOG][Proc: 0]p: solve: 12495.4 [ms]
[OGL LOG][Proc: 0]p: copy_x_back: 8.93 [ms]
[OGL LOG][lduLduBase.H:339] 
Statistics:
	Time per iteration: 4084 [mu s]
	Time per residual norm calculation: 384.000000 [mu s]
	Time per iteration and DOF: 0.063812 [ns]
	Retrieve results bandwidth 1.791000 [GByte/s]
[OGL LOG][Proc: 0]p: solve_multi_gpu: 12556.7 [ms]
BJhipGKOCG:  Solving for p, Initial residual = 0.920794, Final residual = 9.72957e-05, No Iterations 3059
[INFO] SolveP: 12668.2 [ms]
time step continuity errors : sum local = 5.44104e-08, global = 7.19615e-22, cumulative = 1.07627e-20
[INFO] ContinuityError: 68.198 [ms]
[INFO] CorrectBoundary: 4.346 [ms]
[INFO] PISOStep: 13668.1 [ms]
[INFO] TimeStep: 31541.5 [ms]
ExecutionTime = 521.25 s  ClockTime = 469 s

Time = 0.002

Courant Number mean: 0.0409145 max: 1.71623
[INFO] MatrixAssemblyU: 505.023 [ms]
DILUPBiCGStab:  Solving for Ux, Initial residual = 0.0796968, Final residual = 0.00465308, No Iterations 5
DILUPBiCGStab:  Solving for Uy, Initial residual = 0.30074, Final residual = 0.0147947, No Iterations 5
DILUPBiCGStab:  Solving for Uz, Initial residual = 0.738473, Final residual = 0.0347746, No Iterations 5
[INFO] MomentumPredictor: 3951.04 [ms]
[INFO] MatrixAssemblyPI: 571.705 [ms]
[INFO] AdjustPhi: 28.829 [ms]
[INFO] ConstrainPressure: 0.003 [ms]
[INFO] MatrixAssemblyPII: 165.993 [ms]
[OGL LOG][Proc: 0]: global_index_init: 0.279 [ms]
[OGL LOG][Proc: 0]p_local_coeffs: call_update: 0 [ms]
[OGL LOG][Proc: 0]p_non_local_coeffs: call_update: 0 [ms]
[OGL LOG][Proc: 0]p: update_local_matrix_data: 91.31 [ms]
[OGL LOG][Proc: 0]p: update_non_local_matrix_data: 0.314 [ms]
[OGL LOG][Proc: 0]p_matrix: call_update: 39.857 [ms]
[OGL LOG][Proc: 0]p_rhs: call_update: 10.122 [ms]
[OGL LOG][Preconditioner.H:121] Generate preconditioner BJ MaxBlockSize 1
[OGL LOG][Proc: 0]p: init_precond: 1.62 [ms]
[OGL LOG][StoppingCriterion.H:372] Creating stopping criterion with minIter 1835 frequency 11
[OGL LOG][Proc: 0]p: generate_solver: 0.002 [ms]
[OGL LOG][Proc: 0]p: solve: 12308.7 [ms]
[OGL LOG][Proc: 0]p: copy_x_back: 8.645 [ms]
[OGL LOG][lduLduBase.H:339] 
Statistics:
	Time per iteration: 4009 [mu s]
	Time per residual norm calculation: 378.000000 [mu s]
	Time per iteration and DOF: 0.062641 [ns]
	Retrieve results bandwidth 1.850000 [GByte/s]
[OGL LOG][Proc: 0]p: solve_multi_gpu: 12370.4 [ms]
BJhipGKOCG:  Solving for p, Initial residual = 0.980777, Final residual = 8.94789e-05, No Iterations 3070
[INFO] SolveP: 12485.1 [ms]
time step continuity errors : sum local = 5.89879e-08, global = -3.21941e-22, cumulative = 1.04407e-20
[INFO] ContinuityError: 60.125 [ms]
[INFO] CorrectBoundary: 0.895 [ms]
[INFO] PISOStep: 13502.3 [ms]
[INFO] MatrixAssemblyPI: 556.961 [ms]
[INFO] AdjustPhi: 27.748 [ms]
[INFO] ConstrainPressure: 0.002 [ms]
[INFO] MatrixAssemblyPII: 166.444 [ms]
[OGL LOG][Proc: 0]: global_index_init: 0.038 [ms]
[OGL LOG][Proc: 0]p_local_coeffs: call_update: 0 [ms]
[OGL LOG][Proc: 0]p_non_local_coeffs: call_update: 0 [ms]
[OGL LOG][Proc: 0]p: update_local_matrix_data: 90.971 [ms]
[OGL LOG][Proc: 0]p: update_non_local_matrix_data: 0.299 [ms]
[OGL LOG][Proc: 0]p_matrix: call_update: 43.695 [ms]
[OGL LOG][Proc: 0]p_rhs: call_update: 11.353 [ms]
[OGL LOG][Preconditioner.H:121] Generate preconditioner BJ MaxBlockSize 1
[OGL LOG][Proc: 0]p: init_precond: 1.322 [ms]
[OGL LOG][StoppingCriterion.H:372] Creating stopping criterion with minIter 1842 frequency 11
[OGL LOG][Proc: 0]p: generate_solver: 0.002 [ms]
[OGL LOG][Proc: 0]p: solve: 12670 [ms]
[OGL LOG][Proc: 0]p: copy_x_back: 10.299 [ms]
[OGL LOG][lduLduBase.H:339] 
Statistics:
	Time per iteration: 4141 [mu s]
	Time per residual norm calculation: 369.000000 [mu s]
	Time per iteration and DOF: 0.064703 [ns]
	Retrieve results bandwidth 1.553000 [GByte/s]
[OGL LOG][Proc: 0]p: solve_multi_gpu: 12738.2 [ms]
BJhipGKOCG:  Solving for p, Initial residual = 0.915759, Final residual = 9.8525e-05, No Iterations 3059
[INFO] SolveP: 12849.3 [ms]
time step continuity errors : sum local = 6.56118e-08, global = 6.2478e-22, cumulative = 1.10655e-20
[INFO] ContinuityError: 63.082 [ms]
[INFO] CorrectBoundary: 2.251 [ms]
[INFO] PISOStep: 13849.4 [ms]
[INFO] TimeStep: 31868.9 [ms]
ExecutionTime = 556.87 s  ClockTime = 501 s

Time = 0.002125

Courant Number mean: 0.042414 max: 2.54782
[INFO] MatrixAssemblyU: 510.652 [ms]
DILUPBiCGStab:  Solving for Ux, Initial residual = 0.0895795, Final residual = 0.00490163, No Iterations 5
DILUPBiCGStab:  Solving for Uy, Initial residual = 0.335682, Final residual = 0.016246, No Iterations 5
DILUPBiCGStab:  Solving for Uz, Initial residual = 0.744223, Final residual = 0.0345994, No Iterations 5
[INFO] MomentumPredictor: 3944.84 [ms]
[INFO] MatrixAssemblyPI: 574.883 [ms]
[INFO] AdjustPhi: 29.015 [ms]
[INFO] ConstrainPressure: 0.003 [ms]
[INFO] MatrixAssemblyPII: 166.64 [ms]
[OGL LOG][Proc: 0]: global_index_init: 0.083 [ms]
[OGL LOG][Proc: 0]p_local_coeffs: call_update: 0 [ms]
[OGL LOG][Proc: 0]p_non_local_coeffs: call_update: 0 [ms]
[OGL LOG][Proc: 0]p: update_local_matrix_data: 90.713 [ms]
[OGL LOG][Proc: 0]p: update_non_local_matrix_data: 0.42 [ms]
[OGL LOG][Proc: 0]p_matrix: call_update: 31.62 [ms]
[OGL LOG][Proc: 0]p_rhs: call_update: 16.259 [ms]
[OGL LOG][Preconditioner.H:121] Generate preconditioner BJ MaxBlockSize 1
[OGL LOG][Proc: 0]p: init_precond: 1.642 [ms]
[OGL LOG][StoppingCriterion.H:372] Creating stopping criterion with minIter 1835 frequency 10
[OGL LOG][Proc: 0]p: generate_solver: 0.002 [ms]
[OGL LOG][Proc: 0]p: solve: 12254.9 [ms]
[OGL LOG][Proc: 0]p: copy_x_back: 8.73 [ms]
[OGL LOG][lduLduBase.H:339] 
Statistics:
	Time per iteration: 3990 [mu s]
	Time per residual norm calculation: 396.000000 [mu s]
	Time per iteration and DOF: 0.062344 [ns]
	Retrieve results bandwidth 1.832000 [GByte/s]
[OGL LOG][Proc: 0]p: solve_multi_gpu: 12314.6 [ms]
BJhipGKOCG:  Solving for p, Initial residual = 0.981851, Final residual = 9.14817e-05, No Iterations 3071
[INFO] SolveP: 12429 [ms]
time step continuity errors : sum local = 7.16279e-08, global = 1.4048e-21, cumulative = 1.24703e-20
[INFO] ContinuityError: 59.805 [ms]
[INFO] CorrectBoundary: 2.628 [ms]
[INFO] PISOStep: 13448.7 [ms]
[INFO] MatrixAssemblyPI: 558.907 [ms]
[INFO] AdjustPhi: 24.769 [ms]
[INFO] ConstrainPressure: 0.003 [ms]
[INFO] MatrixAssemblyPII: 167.128 [ms]
[OGL LOG][Proc: 0]: global_index_init: 0.055 [ms]
[OGL LOG][Proc: 0]p_local_coeffs: call_update: 0 [ms]
[OGL LOG][Proc: 0]p_non_local_coeffs: call_update: 0 [ms]
[OGL LOG][Proc: 0]p: update_local_matrix_data: 90.805 [ms]
[OGL LOG][Proc: 0]p: update_non_local_matrix_data: 0.273 [ms]
[OGL LOG][Proc: 0]p_matrix: call_update: 25.396 [ms]
[OGL LOG][Proc: 0]p_rhs: call_update: 24.638 [ms]
[OGL LOG][Preconditioner.H:121] Generate preconditioner BJ MaxBlockSize 1
[OGL LOG][Proc: 0]p: init_precond: 1.398 [ms]
[OGL LOG][StoppingCriterion.H:372] Creating stopping criterion with minIter 1842 frequency 11
[OGL LOG][Proc: 0]p: generate_solver: 0.002 [ms]
[OGL LOG][Proc: 0]p: solve: 12595 [ms]
[OGL LOG][Proc: 0]p: copy_x_back: 8.919 [ms]
[OGL LOG][lduLduBase.H:339] 
Statistics:
	Time per iteration: 4102 [mu s]
	Time per residual norm calculation: 383.000000 [mu s]
	Time per iteration and DOF: 0.064094 [ns]
	Retrieve results bandwidth 1.793000 [GByte/s]
[OGL LOG][Proc: 0]p: solve_multi_gpu: 12656.9 [ms]
BJhipGKOCG:  Solving for p, Initial residual = 0.920805, Final residual = 8.69558e-05, No Iterations 3070
[INFO] SolveP: 12768.1 [ms]
time step continuity errors : sum local = 6.84451e-08, global = 6.17516e-22, cumulative = 1.30878e-20
[INFO] ContinuityError: 65.667 [ms]
[INFO] CorrectBoundary: 2.179 [ms]
[INFO] PISOStep: 13768.5 [ms]
[INFO] TimeStep: 31734.4 [ms]
ExecutionTime = 592.59 s  ClockTime = 533 s

Time = 0.00225

Courant Number mean: 0.0434192 max: 2.85572
[INFO] MatrixAssemblyU: 508.83 [ms]
DILUPBiCGStab:  Solving for Ux, Initial residual = 0.105859, Final residual = 0.00551629, No Iterations 5
DILUPBiCGStab:  Solving for Uy, Initial residual = 0.358552, Final residual = 0.0164832, No Iterations 5
DILUPBiCGStab:  Solving for Uz, Initial residual = 0.74653, Final residual = 0.0343509, No Iterations 5
[INFO] MomentumPredictor: 3944.78 [ms]
[INFO] MatrixAssemblyPI: 576.199 [ms]
[INFO] AdjustPhi: 24.343 [ms]
[INFO] ConstrainPressure: 0.002 [ms]
[INFO] MatrixAssemblyPII: 166.436 [ms]
[OGL LOG][Proc: 0]: global_index_init: 0.043 [ms]
[OGL LOG][Proc: 0]p_local_coeffs: call_update: 0 [ms]
[OGL LOG][Proc: 0]p_non_local_coeffs: call_update: 0 [ms]
[OGL LOG][Proc: 0]p: update_local_matrix_data: 91.22 [ms]
[OGL LOG][Proc: 0]p: update_non_local_matrix_data: 0.338 [ms]
[OGL LOG][Proc: 0]p_matrix: call_update: 23.987 [ms]
[OGL LOG][Proc: 0]p_rhs: call_update: 28.435 [ms]
[OGL LOG][Preconditioner.H:121] Generate preconditioner BJ MaxBlockSize 1
[OGL LOG][Proc: 0]p: init_precond: 1.342 [ms]
[OGL LOG][StoppingCriterion.H:372] Creating stopping criterion with minIter 1842 frequency 11
[OGL LOG][Proc: 0]p: generate_solver: 0.002 [ms]
[OGL LOG][Proc: 0]p: solve: 12102.5 [ms]
[OGL LOG][Proc: 0]p: copy_x_back: 10.081 [ms]
[OGL LOG][lduLduBase.H:339] 
Statistics:
	Time per iteration: 3956 [mu s]
	Time per residual norm calculation: 384.000000 [mu s]
	Time per iteration and DOF: 0.061812 [ns]
	Retrieve results bandwidth 1.587000 [GByte/s]
[OGL LOG][Proc: 0]p: solve_multi_gpu: 12167.7 [ms]
BJhipGKOCG:  Solving for p, Initial residual = 0.983053, Final residual = 9.44974e-05, No Iterations 3059
[INFO] SolveP: 12282.9 [ms]
time step continuity errors : sum local = 8.82102e-08, global = 1.2831e-21, cumulative = 1.43709e-20
[INFO] ContinuityError: 61.697 [ms]
[INFO] CorrectBoundary: 2.522 [ms]
[INFO] PISOStep: 13297.8 [ms]
[INFO] MatrixAssemblyPI: 557.988 [ms]
[INFO] AdjustPhi: 26.083 [ms]
[INFO] ConstrainPressure: 0.003 [ms]
[INFO] MatrixAssemblyPII: 167.031 [ms]
[OGL LOG][Proc: 0]: global_index_init: 0.042 [ms]
[OGL LOG][Proc: 0]p_local_coeffs: call_update: 0 [ms]
[OGL LOG][Proc: 0]p_non_local_coeffs: call_update: 0 [ms]
[OGL LOG][Proc: 0]p: update_local_matrix_data: 90.243 [ms]
[OGL LOG][Proc: 0]p: update_non_local_matrix_data: 0.49 [ms]
[OGL LOG][Proc: 0]p_matrix: call_update: 25.935 [ms]
[OGL LOG][Proc: 0]p_rhs: call_update: 16.035 [ms]
[OGL LOG][Preconditioner.H:121] Generate preconditioner BJ MaxBlockSize 1
[OGL LOG][Proc: 0]p: init_precond: 1.599 [ms]
[OGL LOG][StoppingCriterion.H:372] Creating stopping criterion with minIter 1835 frequency 11
[OGL LOG][Proc: 0]p: generate_solver: 0.002 [ms]
[OGL LOG][Proc: 0]p: solve: 12495 [ms]
[OGL LOG][Proc: 0]p: copy_x_back: 9.29 [ms]
[OGL LOG][lduLduBase.H:339] 
Statistics:
	Time per iteration: 4084 [mu s]
	Time per residual norm calculation: 390.000000 [mu s]
	Time per iteration and DOF: 0.063812 [ns]
	Retrieve results bandwidth 1.722000 [GByte/s]
[OGL LOG][Proc: 0]p: solve_multi_gpu: 12549.4 [ms]
BJhipGKOCG:  Solving for p, Initial residual = 0.9178, Final residual = 9.73139e-05, No Iterations 3059
[INFO] SolveP: 12659.6 [ms]
time step continuity errors : sum local = 9.17128e-08, global = 5.08315e-22, cumulative = 1.48792e-20
[INFO] ContinuityError: 64.675 [ms]
[INFO] CorrectBoundary: 2.848 [ms]
[INFO] PISOStep: 13660.8 [ms]
[INFO] TimeStep: 31473.5 [ms]
ExecutionTime = 627.75 s  ClockTime = 564 s

Time = 0.002375

Courant Number mean: 0.0450381 max: 3.95831
[INFO] MatrixAssemblyU: 503.393 [ms]
DILUPBiCGStab:  Solving for Ux, Initial residual = 0.119578, Final residual = 0.00595115, No Iterations 5
DILUPBiCGStab:  Solving for Uy, Initial residual = 0.394851, Final residual = 0.0179794, No Iterations 5
DILUPBiCGStab:  Solving for Uz, Initial residual = 0.750406, Final residual = 0.0342959, No Iterations 5
[INFO] MomentumPredictor: 3963.36 [ms]
[INFO] MatrixAssemblyPI: 576.533 [ms]
[INFO] AdjustPhi: 27.408 [ms]
[INFO] ConstrainPressure: 0.002 [ms]
[INFO] MatrixAssemblyPII: 166.667 [ms]
[OGL LOG][Proc: 0]: global_index_init: 0.146 [ms]
[OGL LOG][Proc: 0]p_local_coeffs: call_update: 0 [ms]
[OGL LOG][Proc: 0]p_non_local_coeffs: call_update: 0 [ms]
[OGL LOG][Proc: 0]p: update_local_matrix_data: 91.362 [ms]
[OGL LOG][Proc: 0]p: update_non_local_matrix_data: 0.333 [ms]
[OGL LOG][Proc: 0]p_matrix: call_update: 20.597 [ms]
[OGL LOG][Proc: 0]p_rhs: call_update: 23.788 [ms]
[OGL LOG][Preconditioner.H:121] Generate preconditioner BJ MaxBlockSize 1
[OGL LOG][Proc: 0]p: init_precond: 1.54 [ms]
[OGL LOG][StoppingCriterion.H:372] Creating stopping criterion with minIter 1835 frequency 11
[OGL LOG][Proc: 0]p: generate_solver: 0.001 [ms]
[OGL LOG][Proc: 0]p: solve: 12247.7 [ms]
[OGL LOG][Proc: 0]p: copy_x_back: 11.372 [ms]
[OGL LOG][lduLduBase.H:339] 
Statistics:
	Time per iteration: 3989 [mu s]
	Time per residual norm calculation: 384.000000 [mu s]
	Time per iteration and DOF: 0.062328 [ns]
	Retrieve results bandwidth 1.406000 [GByte/s]
[OGL LOG][Proc: 0]p: solve_multi_gpu: 12306.5 [ms]
BJhipGKOCG:  Solving for p, Initial residual = 0.983491, Final residual = 9.85204e-05, No Iterations 3070
[INFO] SolveP: 12417 [ms]
time step continuity errors : sum local = 1.10088e-07, global = 6.77797e-22, cumulative = 1.5557e-20
[INFO] ContinuityError: 62.676 [ms]
[INFO] CorrectBoundary: 1.301 [ms]
[INFO] PISOStep: 13436.4 [ms]
[INFO] MatrixAssemblyPI: 559.8 [ms]
[INFO] AdjustPhi: 23.617 [ms]
[INFO] ConstrainPressure: 0.003 [ms]
[INFO] MatrixAssemblyPII: 167.195 [ms]
[OGL LOG][Proc: 0]: global_index_init: 0.031 [ms]
[OGL LOG][Proc: 0]p_local_coeffs: call_update: 0 [ms]
[OGL LOG][Proc: 0]p_non_local_coeffs: call_update: 0 [ms]
[OGL LOG][Proc: 0]p: update_local_matrix_data: 91.076 [ms]
[OGL LOG][Proc: 0]p: update_non_local_matrix_data: 0.31 [ms]
[OGL LOG][Proc: 0]p_matrix: call_update: 25.203 [ms]
[OGL LOG][Proc: 0]p_rhs: call_update: 17.222 [ms]
[OGL LOG][Preconditioner.H:121] Generate preconditioner BJ MaxBlockSize 1
[OGL LOG][Proc: 0]p: init_precond: 1.537 [ms]
[OGL LOG][StoppingCriterion.H:372] Creating stopping criterion with minIter 1842 frequency 11
[OGL LOG][Proc: 0]p: generate_solver: 0.002 [ms]
[OGL LOG][Proc: 0]p: solve: 12636.8 [ms]
[OGL LOG][Proc: 0]p: copy_x_back: 8.818 [ms]
[OGL LOG][lduLduBase.H:339] 
Statistics:
	Time per iteration: 4116 [mu s]
	Time per residual norm calculation: 393.000000 [mu s]
	Time per iteration and DOF: 0.064312 [ns]
	Retrieve results bandwidth 1.814000 [GByte/s]
[OGL LOG][Proc: 0]p: solve_multi_gpu: 12691 [ms]
BJhipGKOCG:  Solving for p, Initial residual = 0.921032, Final residual = 9.1712e-05, No Iterations 3070
[INFO] SolveP: 12804.3 [ms]
time step continuity errors : sum local = 1.03135e-07, global = 1.0027e-22, cumulative = 1.56573e-20
[INFO] ContinuityError: 66.499 [ms]
[INFO] CorrectBoundary: 4.314 [ms]
[INFO] PISOStep: 13810.3 [ms]
[INFO] TimeStep: 31774.7 [ms]
ExecutionTime = 663.1 s  ClockTime = 596 s

Time = 0.0025

Courant Number mean: 0.0461622 max: 4.70239
[INFO] MatrixAssemblyU: 505.75 [ms]
DILUPBiCGStab:  Solving for Ux, Initial residual = 0.142495, Final residual = 0.00683648, No Iterations 5
DILUPBiCGStab:  Solving for Uy, Initial residual = 0.422351, Final residual = 0.0185383, No Iterations 5
DILUPBiCGStab:  Solving for Uz, Initial residual = 0.751673, Final residual = 0.0340549, No Iterations 5
[INFO] MomentumPredictor: 3956.03 [ms]
[INFO] MatrixAssemblyPI: 574.558 [ms]
[INFO] AdjustPhi: 30.029 [ms]
[INFO] ConstrainPressure: 0.002 [ms]
[INFO] MatrixAssemblyPII: 166.345 [ms]
[OGL LOG][Proc: 0]: global_index_init: 0.151 [ms]
[OGL LOG][Proc: 0]p_local_coeffs: call_update: 0 [ms]
[OGL LOG][Proc: 0]p_non_local_coeffs: call_update: 0 [ms]
[OGL LOG][Proc: 0]p: update_local_matrix_data: 89.914 [ms]
[OGL LOG][Proc: 0]p: update_non_local_matrix_data: 0.648 [ms]
[OGL LOG][Proc: 0]p_matrix: call_update: 25.168 [ms]
[OGL LOG][Proc: 0]p_rhs: call_update: 15.78 [ms]
[OGL LOG][Preconditioner.H:121] Generate preconditioner BJ MaxBlockSize 1
[OGL LOG][Proc: 0]p: init_precond: 1.622 [ms]
[OGL LOG][StoppingCriterion.H:372] Creating stopping criterion with minIter 1842 frequency 11
[OGL LOG][Proc: 0]p: generate_solver: 0.001 [ms]
[OGL LOG][Proc: 0]p: solve: 12194.4 [ms]
[OGL LOG][Proc: 0]p: copy_x_back: 8.77 [ms]
[OGL LOG][lduLduBase.H:339] 
Statistics:
	Time per iteration: 3957 [mu s]
	Time per residual norm calculation: 377.000000 [mu s]
	Time per iteration and DOF: 0.061828 [ns]
	Retrieve results bandwidth 1.824000 [GByte/s]
[OGL LOG][Proc: 0]p: solve_multi_gpu: 12247.1 [ms]
BJhipGKOCG:  Solving for p, Initial residual = 0.984366, Final residual = 8.27809e-05, No Iterations 3081
[INFO] SolveP: 12360.9 [ms]
time step continuity errors : sum local = 1.11033e-07, global = -1.05732e-21, cumulative = 1.46e-20
[INFO] ContinuityError: 61.28 [ms]
[INFO] CorrectBoundary: 1.389 [ms]
[INFO] PISOStep: 13379.8 [ms]
[INFO] MatrixAssemblyPI: 558.845 [ms]
[INFO] AdjustPhi: 28.468 [ms]
[INFO] ConstrainPressure: 0.003 [ms]
[INFO] MatrixAssemblyPII: 167.456 [ms]
[OGL LOG][Proc: 0]: global_index_init: 0.092 [ms]
[OGL LOG][Proc: 0]p_local_coeffs: call_update: 0 [ms]
[OGL LOG][Proc: 0]p_non_local_coeffs: call_update: 0 [ms]
[OGL LOG][Proc: 0]p: update_local_matrix_data: 91.302 [ms]
[OGL LOG][Proc: 0]p: update_non_local_matrix_data: 0.303 [ms]
[OGL LOG][Proc: 0]p_matrix: call_update: 23.127 [ms]
[OGL LOG][Proc: 0]p_rhs: call_update: 19.435 [ms]
[OGL LOG][Preconditioner.H:121] Generate preconditioner BJ MaxBlockSize 1
[OGL LOG][Proc: 0]p: init_precond: 1.592 [ms]
[OGL LOG][StoppingCriterion.H:372] Creating stopping criterion with minIter 1848 frequency 11
[OGL LOG][Proc: 0]p: generate_solver: 0.002 [ms]
[OGL LOG][Proc: 0]p: solve: 12503.7 [ms]
[OGL LOG][Proc: 0]p: copy_x_back: 8.923 [ms]
[OGL LOG][lduLduBase.H:339] 
Statistics:
	Time per iteration: 4072 [mu s]
	Time per residual norm calculation: 387.000000 [mu s]
	Time per iteration and DOF: 0.063625 [ns]
	Retrieve results bandwidth 1.793000 [GByte/s]
[OGL LOG][Proc: 0]p: solve_multi_gpu: 12558.2 [ms]
BJhipGKOCG:  Solving for p, Initial residual = 0.919181, Final residual = 9.4562e-05, No Iterations 3070
[INFO] SolveP: 12672.8 [ms]
time step continuity errors : sum local = 1.28021e-07, global = 5.13602e-22, cumulative = 1.51136e-20
[INFO] ContinuityError: 59.444 [ms]
[INFO] CorrectBoundary: 2.619 [ms]
[INFO] PISOStep: 13675.5 [ms]
[INFO] TimeStep: 31579.1 [ms]
ExecutionTime = 698.54 s  ClockTime = 628 s

End

Finalising parallel run
