/*---------------------------------------------------------------------------*\
| =========                 |                                                 |
| \\      /  F ield         | OpenFOAM: The Open Source CFD Toolbox           |
|  \\    /   O peration     | Version:  2306                                  |
|   \\  /    A nd           | Website:  www.openfoam.com                      |
|    \\/     M anipulation  |                                                 |
\*---------------------------------------------------------------------------*/
Build  : a6e826bd55-20230630 OPENFOAM=2306 version=v2306
Arch   : "LSB;label=32;scalar=64"
Exec   : icoFoam -parallel -case /tmp/lidDrivenCavity/workspace/2566c502381691b627285c26d8332877/case
Date   : Dec 20 2023
Time   : 23:37:16
Host   : nla-gpu2.ianm.kit.edu
PID    : 388033
I/O    : uncollated
Case   : /tmp/lidDrivenCavity/workspace/2566c502381691b627285c26d8332877/case
nProcs : 32
Hosts  :
(
    (nla-gpu2.ianm.kit.edu 32)
)
Pstream initialized with:
    floatTransfer      : false
    nProcsSimpleSum    : 0
    nonBlockingExchange: 0 (tuning: 0)
    exchange algorithm : -1
    commsType          : nonBlocking
    polling iterations : 0
trapFpe: Floating point exception trapping enabled (FOAM_SIGFPE).
fileModificationChecking : Monitoring run-time modified files using timeStampMaster (fileModificationSkew 5, maxFileModificationPolls 20)
allowSystemOperations : Allowing user-supplied system call operations

// * * * * * * * * * * * * * * * * * * * * * * * * * * * * * * * * * * * * * //
Create time

--> FOAM Warning : 
    From void* Foam::dlLibraryTable::openLibrary(const Foam::fileName&, bool)
    in file db/dynamicLibrary/dlLibraryTable/dlLibraryTable.C at line 188
    Could not load "libpetscFoam.so"
libpetscFoam.so: cannot open shared object file: No such file or directory
Create mesh for time = 0


PISO: Operating solver in PISO mode

Reading transportProperties

Reading field p

Reading field U

Reading/calculating face flux field phi


Starting time loop

Time = 0.00025

Courant Number mean: 8.24341e-18 max: 2.08167e-14
[INFO] MatrixAssemblyU: 70.309 [ms]
DILUPBiCGStab:  Solving for Ux, Initial residual = 1, Final residual = 0.00994539, No Iterations 5
DILUPBiCGStab:  Solving for Uy:  solution singularity
DILUPBiCGStab:  Solving for Uz:  solution singularity
[INFO] MomentumPredictor: 249.506 [ms]
[INFO] MatrixAssemblyPI: 68.321 [ms]
[INFO] AdjustPhi: 4.954 [ms]
[INFO] ConstrainPressure: 0.014 [ms]
[INFO] MatrixAssemblyPII: 19.652 [ms]
[OGL LOG][lduLduBase.H:119] Initialising OGL
	OGL commit:  1421b02+
	Branch: feat/on_device_permute 
	Build type: Release
	Ginkgo version: 1.7.0 ( develop)
	Ginkgo commit: sparse-communicator
	MPI is GPU aware: 1
	Forces host buffer based communication: 0
	CPU ranks per GPU: 1
	Matrix format: Ell
	End OGL_INFO
[OGL LOG][Proc: 0]: global_index_init: 11.553 [ms]
[OGL LOG][Proc: 0]p_local_cols: call_init: 0.021 [ms]
[OGL LOG][Proc: 0]p_local_rows: call_init: 0.016 [ms]
[OGL LOG][Proc: 0]p_local_ldu_map: call_init: 0.007 [ms]
[OGL LOG][Proc: 0]p_local_coeffs: call_init: 0.116 [ms]
[OGL LOG][Proc: 0]p_non_local_cols: call_init: 0.005 [ms]
[OGL LOG][Proc: 0]p_non_local_rows: call_init: 0.003 [ms]
[OGL LOG][Proc: 0]p_non_local_ldu_map: call_init: 0.002 [ms]
[OGL LOG][Proc: 0]p_non_local_coeffs: call_init: 0.003 [ms]
[OGL LOG][Proc: 0]p: init_local_sparsity_pattern: 92.368 [ms]
[OGL LOG][Proc: 0]p: init_non_local_sparsity_pattern: 1.714 [ms]
[OGL LOG][Proc: 0]p: update_local_matrix_data: 74.326 [ms]
[OGL LOG][Proc: 0]p: update_non_local_matrix_data: 0.065 [ms]
[OGL LOG][Proc: 0]device_partition: call_init: 0.062 [ms]
[OGL LOG][Proc: 0]p_matrix: call_init: 49.388 [ms]
[OGL LOG][Proc: 0]p_rhs: call_init: 3.112 [ms]
[OGL LOG][Proc: 0]p_solution: call_init: 1.136 [ms]
[OGL LOG][Proc: 0]p: init_precond: 0.092 [ms]
[OGL LOG][StoppingCriterion.H:237] Creating stopping criterion with minIter 0 frequency 1
[OGL LOG][Proc: 0]p: generate_solver: 0.046 [ms]
[OGL LOG][Proc: 0]p: solve: 5362.73 [ms]
[OGL LOG][Proc: 0]p: copy_x_back: 1.568 [ms]
[OGL LOG][lduLduBase.H:330] 
Statistics:
	Time per iteration: 3328 [mu s]
	Time per residual norm calculation: 1150.000000 [mu s]
	Time per iteration and DOF: 0.416000 [ns]
	Retrieve results bandwidth 1.275000 [GByte/s]
[OGL LOG][Proc: 0]p: solve_multi_gpu: 5421.01 [ms]
nonehipGKOCG:  Solving for p, Initial residual = 1, Final residual = 9.8626e-05, No Iterations 1611
[INFO] SolveP: 5953.22 [ms]
time step continuity errors : sum local = 7.57106e-09, global = 3.26985e-22, cumulative = 3.26985e-22
[INFO] ContinuityError: 7.276 [ms]
[INFO] CorrectBoundary: 0.257 [ms]
[INFO] PISOStep: 6080.26 [ms]
[INFO] MatrixAssemblyPI: 61.288 [ms]
[INFO] AdjustPhi: 7.06 [ms]
[INFO] ConstrainPressure: 0.006 [ms]
[INFO] MatrixAssemblyPII: 19.385 [ms]
[OGL LOG][Proc: 0]: global_index_init: 0.248 [ms]
[OGL LOG][Proc: 0]p_local_coeffs: call_update: 0 [ms]
[OGL LOG][Proc: 0]p_non_local_coeffs: call_update: 0 [ms]
[OGL LOG][Proc: 0]p: update_local_matrix_data: 14.16 [ms]
[OGL LOG][Proc: 0]p: update_non_local_matrix_data: 0.07 [ms]
[OGL LOG][Proc: 0]p: regenerate_distributed_matrix: 52.9 [ms]
[OGL LOG][Proc: 0]p_matrix: call_update: 65.968 [ms]
[OGL LOG][Proc: 0]p_rhs: call_update: 5.547 [ms]
[OGL LOG][Proc: 0]p: init_precond: 0.064 [ms]
[OGL LOG][StoppingCriterion.H:237] Creating stopping criterion with minIter 966 frequency 17
[OGL LOG][Proc: 0]p: generate_solver: 0.001 [ms]
[OGL LOG][Proc: 0]p: solve: 2812.79 [ms]
[OGL LOG][Proc: 0]p: copy_x_back: 1.665 [ms]
[OGL LOG][lduLduBase.H:330] 
Statistics:
	Time per iteration: 1759 [mu s]
	Time per residual norm calculation: 221.000000 [mu s]
	Time per iteration and DOF: 0.219875 [ns]
	Retrieve results bandwidth 1.201000 [GByte/s]
[OGL LOG][Proc: 0]p: solve_multi_gpu: 2888.24 [ms]
nonehipGKOCG:  Solving for p, Initial residual = 0.786384, Final residual = 8.99591e-05, No Iterations 1599
[INFO] SolveP: 2905.3 [ms]
time step continuity errors : sum local = 8.63212e-09, global = -3.86775e-22, cumulative = -5.97896e-23
[INFO] ContinuityError: 7.681 [ms]
[INFO] CorrectBoundary: 0.278 [ms]
[INFO] PISOStep: 3026.37 [ms]
[INFO] TimeStep: 9434.46 [ms]
ExecutionTime = 9.97 s  ClockTime = 10 s

Time = 0.0005

Courant Number mean: 0.0159459 max: 0.412549
[INFO] MatrixAssemblyU: 60.116 [ms]
DILUPBiCGStab:  Solving for Ux, Initial residual = 0.129572, Final residual = 0.00567037, No Iterations 5
DILUPBiCGStab:  Solving for Uy, Initial residual = 0.426966, Final residual = 0.015007, No Iterations 5
DILUPBiCGStab:  Solving for Uz, Initial residual = 0.98708, Final residual = 0.0372868, No Iterations 5
[INFO] MomentumPredictor: 501.842 [ms]
[INFO] MatrixAssemblyPI: 65.581 [ms]
[INFO] AdjustPhi: 7.586 [ms]
[INFO] ConstrainPressure: 0.004 [ms]
[INFO] MatrixAssemblyPII: 19.566 [ms]
[OGL LOG][Proc: 0]: global_index_init: 0.283 [ms]
[OGL LOG][Proc: 0]p_local_coeffs: call_update: 0 [ms]
[OGL LOG][Proc: 0]p_non_local_coeffs: call_update: 0 [ms]
[OGL LOG][Proc: 0]p: update_local_matrix_data: 14.595 [ms]
[OGL LOG][Proc: 0]p: update_non_local_matrix_data: 0.08 [ms]
[OGL LOG][Proc: 0]p: regenerate_distributed_matrix: 47.082 [ms]
[OGL LOG][Proc: 0]p_matrix: call_update: 47.685 [ms]
[OGL LOG][Proc: 0]p_rhs: call_update: 14.042 [ms]
[OGL LOG][Proc: 0]p: init_precond: 0.048 [ms]
[OGL LOG][StoppingCriterion.H:237] Creating stopping criterion with minIter 959 frequency 9
[OGL LOG][Proc: 0]p: generate_solver: 0.001 [ms]
[OGL LOG][Proc: 0]p: solve: 2655.95 [ms]
[OGL LOG][Proc: 0]p: copy_x_back: 1.538 [ms]
[OGL LOG][lduLduBase.H:330] 
Statistics:
	Time per iteration: 1694 [mu s]
	Time per residual norm calculation: 273.000000 [mu s]
	Time per iteration and DOF: 0.211750 [ns]
	Retrieve results bandwidth 1.300000 [GByte/s]
[OGL LOG][Proc: 0]p: solve_multi_gpu: 2720.43 [ms]
nonehipGKOCG:  Solving for p, Initial residual = 0.827607, Final residual = 9.87688e-05, No Iterations 1567
[INFO] SolveP: 2738.47 [ms]
time step continuity errors : sum local = 1.47568e-08, global = -1.50679e-21, cumulative = -1.56658e-21
[INFO] ContinuityError: 8.591 [ms]
[INFO] CorrectBoundary: 0.24 [ms]
[INFO] PISOStep: 2865.9 [ms]
[INFO] MatrixAssemblyPI: 63.197 [ms]
[INFO] AdjustPhi: 5.494 [ms]
[INFO] ConstrainPressure: 0.006 [ms]
[INFO] MatrixAssemblyPII: 19.64 [ms]
[OGL LOG][Proc: 0]: global_index_init: 0.242 [ms]
[OGL LOG][Proc: 0]p_local_coeffs: call_update: 0 [ms]
[OGL LOG][Proc: 0]p_non_local_coeffs: call_update: 0 [ms]
[OGL LOG][Proc: 0]p: update_local_matrix_data: 18.085 [ms]
[OGL LOG][Proc: 0]p: update_non_local_matrix_data: 0.098 [ms]
[OGL LOG][Proc: 0]p: regenerate_distributed_matrix: 42.475 [ms]
[OGL LOG][Proc: 0]p_matrix: call_update: 43.023 [ms]
[OGL LOG][Proc: 0]p_rhs: call_update: 5.129 [ms]
[OGL LOG][Proc: 0]p: init_precond: 0.052 [ms]
[OGL LOG][StoppingCriterion.H:237] Creating stopping criterion with minIter 940 frequency 10
[OGL LOG][Proc: 0]p: generate_solver: 0.002 [ms]
[OGL LOG][Proc: 0]p: solve: 2563.61 [ms]
[OGL LOG][Proc: 0]p: copy_x_back: 0.962 [ms]
[OGL LOG][lduLduBase.H:330] 
Statistics:
	Time per iteration: 1631 [mu s]
	Time per residual norm calculation: 224.000000 [mu s]
	Time per iteration and DOF: 0.203875 [ns]
	Retrieve results bandwidth 2.079000 [GByte/s]
[OGL LOG][Proc: 0]p: solve_multi_gpu: 2613.84 [ms]
nonehipGKOCG:  Solving for p, Initial residual = 0.770571, Final residual = 8.50356e-05, No Iterations 1571
[INFO] SolveP: 2635.68 [ms]
time step continuity errors : sum local = 1.29385e-08, global = 2.17135e-22, cumulative = -1.34944e-21
[INFO] ContinuityError: 6.331 [ms]
[INFO] CorrectBoundary: 0.988 [ms]
[INFO] PISOStep: 2755.51 [ms]
[INFO] TimeStep: 6191.1 [ms]
ExecutionTime = 16.11 s  ClockTime = 16 s

Time = 0.00075

Courant Number mean: 0.0243223 max: 0.472079
[INFO] MatrixAssemblyU: 55.425 [ms]
DILUPBiCGStab:  Solving for Ux, Initial residual = 0.0547811, Final residual = 0.00194224, No Iterations 5
DILUPBiCGStab:  Solving for Uy, Initial residual = 0.182465, Final residual = 0.00797743, No Iterations 5
DILUPBiCGStab:  Solving for Uz, Initial residual = 0.809656, Final residual = 0.0257758, No Iterations 5
[INFO] MomentumPredictor: 486.629 [ms]
[INFO] MatrixAssemblyPI: 67.117 [ms]
[INFO] AdjustPhi: 3.603 [ms]
[INFO] ConstrainPressure: 0.003 [ms]
[INFO] MatrixAssemblyPII: 19.406 [ms]
[OGL LOG][Proc: 0]: global_index_init: 0.255 [ms]
[OGL LOG][Proc: 0]p_local_coeffs: call_update: 0 [ms]
[OGL LOG][Proc: 0]p_non_local_coeffs: call_update: 0 [ms]
[OGL LOG][Proc: 0]p: update_local_matrix_data: 14.75 [ms]
[OGL LOG][Proc: 0]p: update_non_local_matrix_data: 0.086 [ms]
[OGL LOG][Proc: 0]p: regenerate_distributed_matrix: 37.76 [ms]
[OGL LOG][Proc: 0]p_matrix: call_update: 38.462 [ms]
[OGL LOG][Proc: 0]p_rhs: call_update: 5.145 [ms]
[OGL LOG][Proc: 0]p: init_precond: 0.057 [ms]
[OGL LOG][StoppingCriterion.H:237] Creating stopping criterion with minIter 942 frequency 9
[OGL LOG][Proc: 0]p: generate_solver: 0.001 [ms]
[OGL LOG][Proc: 0]p: solve: 2563.78 [ms]
[OGL LOG][Proc: 0]p: copy_x_back: 1.461 [ms]
[OGL LOG][lduLduBase.H:330] 
Statistics:
	Time per iteration: 1626 [mu s]
	Time per residual norm calculation: 226.000000 [mu s]
	Time per iteration and DOF: 0.203250 [ns]
	Retrieve results bandwidth 1.368000 [GByte/s]
[OGL LOG][Proc: 0]p: solve_multi_gpu: 2610.08 [ms]
nonehipGKOCG:  Solving for p, Initial residual = 0.84987, Final residual = 9.11492e-05, No Iterations 1576
[INFO] SolveP: 2628.09 [ms]
time step continuity errors : sum local = 1.23155e-08, global = -9.1523e-22, cumulative = -2.26467e-21
[INFO] ContinuityError: 6.826 [ms]
[INFO] CorrectBoundary: 0.267 [ms]
[INFO] PISOStep: 2749.33 [ms]
[INFO] MatrixAssemblyPI: 65.549 [ms]
[INFO] AdjustPhi: 3.51 [ms]
[INFO] ConstrainPressure: 0.008 [ms]
[INFO] MatrixAssemblyPII: 19.296 [ms]
[OGL LOG][Proc: 0]: global_index_init: 0.198 [ms]
[OGL LOG][Proc: 0]p_local_coeffs: call_update: 0 [ms]
[OGL LOG][Proc: 0]p_non_local_coeffs: call_update: 0 [ms]
[OGL LOG][Proc: 0]p: update_local_matrix_data: 13.978 [ms]
[OGL LOG][Proc: 0]p: update_non_local_matrix_data: 0.081 [ms]
[OGL LOG][Proc: 0]p: regenerate_distributed_matrix: 39.537 [ms]
[OGL LOG][Proc: 0]p_matrix: call_update: 40.236 [ms]
[OGL LOG][Proc: 0]p_rhs: call_update: 6.205 [ms]
[OGL LOG][Proc: 0]p: init_precond: 0.048 [ms]
[OGL LOG][StoppingCriterion.H:237] Creating stopping criterion with minIter 945 frequency 9
[OGL LOG][Proc: 0]p: generate_solver: 0.002 [ms]
[OGL LOG][Proc: 0]p: solve: 2556.57 [ms]
[OGL LOG][Proc: 0]p: copy_x_back: 1.427 [ms]
[OGL LOG][lduLduBase.H:330] 
Statistics:
	Time per iteration: 1622 [mu s]
	Time per residual norm calculation: 227.000000 [mu s]
	Time per iteration and DOF: 0.202750 [ns]
	Retrieve results bandwidth 1.401000 [GByte/s]
[OGL LOG][Proc: 0]p: solve_multi_gpu: 2606.58 [ms]
nonehipGKOCG:  Solving for p, Initial residual = 0.816062, Final residual = 8.57728e-05, No Iterations 1576
[INFO] SolveP: 2623.55 [ms]
time step continuity errors : sum local = 1.13358e-08, global = -1.76016e-21, cumulative = -4.02483e-21
[INFO] ContinuityError: 5.311 [ms]
[INFO] CorrectBoundary: 0.163 [ms]
[INFO] PISOStep: 2743.47 [ms]
[INFO] TimeStep: 6042.36 [ms]
ExecutionTime = 22.1 s  ClockTime = 22 s

Time = 0.001

Courant Number mean: 0.0291859 max: 0.467741
[INFO] MatrixAssemblyU: 63.374 [ms]
DILUPBiCGStab:  Solving for Ux, Initial residual = 0.0347121, Final residual = 0.00129448, No Iterations 5
DILUPBiCGStab:  Solving for Uy, Initial residual = 0.129212, Final residual = 0.00499183, No Iterations 5
DILUPBiCGStab:  Solving for Uz, Initial residual = 0.611922, Final residual = 0.0158792, No Iterations 5
[INFO] MomentumPredictor: 480.707 [ms]
[INFO] MatrixAssemblyPI: 66.365 [ms]
[INFO] AdjustPhi: 4.241 [ms]
[INFO] ConstrainPressure: 0.004 [ms]
[INFO] MatrixAssemblyPII: 19.348 [ms]
[OGL LOG][Proc: 0]: global_index_init: 0.284 [ms]
[OGL LOG][Proc: 0]p_local_coeffs: call_update: 0 [ms]
[OGL LOG][Proc: 0]p_non_local_coeffs: call_update: 0 [ms]
[OGL LOG][Proc: 0]p: update_local_matrix_data: 14.198 [ms]
[OGL LOG][Proc: 0]p: update_non_local_matrix_data: 0.063 [ms]
[OGL LOG][Proc: 0]p: regenerate_distributed_matrix: 42.785 [ms]
[OGL LOG][Proc: 0]p_matrix: call_update: 43.419 [ms]
[OGL LOG][Proc: 0]p_rhs: call_update: 4.494 [ms]
[OGL LOG][Proc: 0]p: init_precond: 0.058 [ms]
[OGL LOG][StoppingCriterion.H:237] Creating stopping criterion with minIter 945 frequency 9
[OGL LOG][Proc: 0]p: generate_solver: 0.002 [ms]
[OGL LOG][Proc: 0]p: solve: 1460.78 [ms]
[OGL LOG][Proc: 0]p: copy_x_back: 1.281 [ms]
[OGL LOG][lduLduBase.H:330] 
Statistics:
	Time per iteration: 1544 [mu s]
	Time per residual norm calculation: 225.000000 [mu s]
	Time per iteration and DOF: 0.193000 [ns]
	Retrieve results bandwidth 1.561000 [GByte/s]
[OGL LOG][Proc: 0]p: solve_multi_gpu: 1511.79 [ms]
nonehipGKOCG:  Solving for p, Initial residual = 0.772758, Final residual = 4.54911e-05, No Iterations 946
[INFO] SolveP: 1528.57 [ms]
time step continuity errors : sum local = 6.05602e-09, global = -8.13274e-22, cumulative = -4.83811e-21
[INFO] ContinuityError: 6.601 [ms]
[INFO] CorrectBoundary: 0.267 [ms]
[INFO] PISOStep: 1650.21 [ms]
[INFO] MatrixAssemblyPI: 64.311 [ms]
[INFO] AdjustPhi: 6.609 [ms]
[INFO] ConstrainPressure: 0.007 [ms]
[INFO] MatrixAssemblyPII: 19.691 [ms]
[OGL LOG][Proc: 0]: global_index_init: 0.165 [ms]
[OGL LOG][Proc: 0]p_local_coeffs: call_update: 0 [ms]
[OGL LOG][Proc: 0]p_non_local_coeffs: call_update: 0 [ms]
[OGL LOG][Proc: 0]p: update_local_matrix_data: 14.355 [ms]
[OGL LOG][Proc: 0]p: update_non_local_matrix_data: 0.062 [ms]
[OGL LOG][Proc: 0]p: regenerate_distributed_matrix: 47.158 [ms]
[OGL LOG][Proc: 0]p_matrix: call_update: 47.735 [ms]
[OGL LOG][Proc: 0]p_rhs: call_update: 5.355 [ms]
[OGL LOG][Proc: 0]p: init_precond: 0.058 [ms]
[OGL LOG][StoppingCriterion.H:237] Creating stopping criterion with minIter 567 frequency 7
[OGL LOG][Proc: 0]p: generate_solver: 0.002 [ms]
[OGL LOG][Proc: 0]p: solve: 1263.72 [ms]
[OGL LOG][Proc: 0]p: copy_x_back: 1.01 [ms]
[OGL LOG][lduLduBase.H:330] 
Statistics:
	Time per iteration: 1654 [mu s]
	Time per residual norm calculation: 233.000000 [mu s]
	Time per iteration and DOF: 0.206750 [ns]
	Retrieve results bandwidth 1.980000 [GByte/s]
[OGL LOG][Proc: 0]p: solve_multi_gpu: 1319.31 [ms]
nonehipGKOCG:  Solving for p, Initial residual = 0.709955, Final residual = 8.66154e-05, No Iterations 764
[INFO] SolveP: 1336.61 [ms]
time step continuity errors : sum local = 1.09639e-08, global = 4.37372e-23, cumulative = -4.79437e-21
[INFO] ContinuityError: 7.348 [ms]
[INFO] CorrectBoundary: 1.065 [ms]
[INFO] PISOStep: 1458.66 [ms]
[INFO] TimeStep: 3660.58 [ms]
ExecutionTime = 25.74 s  ClockTime = 26 s

Time = 0.00125

Courant Number mean: 0.0333261 max: 0.472981
[INFO] MatrixAssemblyU: 57.001 [ms]
DILUPBiCGStab:  Solving for Ux, Initial residual = 0.0271464, Final residual = 0.000948546, No Iterations 5
DILUPBiCGStab:  Solving for Uy, Initial residual = 0.081545, Final residual = 0.00370099, No Iterations 5
DILUPBiCGStab:  Solving for Uz, Initial residual = 0.464538, Final residual = 0.0121838, No Iterations 5
[INFO] MomentumPredictor: 464.228 [ms]
[INFO] MatrixAssemblyPI: 66.838 [ms]
[INFO] AdjustPhi: 3.621 [ms]
[INFO] ConstrainPressure: 0.003 [ms]
[INFO] MatrixAssemblyPII: 19.541 [ms]
[OGL LOG][Proc: 0]: global_index_init: 0.331 [ms]
[OGL LOG][Proc: 0]p_local_coeffs: call_update: 0 [ms]
[OGL LOG][Proc: 0]p_non_local_coeffs: call_update: 0 [ms]
[OGL LOG][Proc: 0]p: update_local_matrix_data: 14.869 [ms]
[OGL LOG][Proc: 0]p: update_non_local_matrix_data: 0.083 [ms]
[OGL LOG][Proc: 0]p: regenerate_distributed_matrix: 44.171 [ms]
[OGL LOG][Proc: 0]p_matrix: call_update: 44.88 [ms]
[OGL LOG][Proc: 0]p_rhs: call_update: 5.138 [ms]
[OGL LOG][Proc: 0]p: init_precond: 0.047 [ms]
[OGL LOG][StoppingCriterion.H:237] Creating stopping criterion with minIter 458 frequency 6
[OGL LOG][Proc: 0]p: generate_solver: 0.002 [ms]
[OGL LOG][Proc: 0]p: solve: 1170.48 [ms]
[OGL LOG][Proc: 0]p: copy_x_back: 1.148 [ms]
[OGL LOG][lduLduBase.H:330] 
Statistics:
	Time per iteration: 1571 [mu s]
	Time per residual norm calculation: 223.000000 [mu s]
	Time per iteration and DOF: 0.196375 [ns]
	Retrieve results bandwidth 1.742000 [GByte/s]
[OGL LOG][Proc: 0]p: solve_multi_gpu: 1222.86 [ms]
nonehipGKOCG:  Solving for p, Initial residual = 0.777231, Final residual = 9.21806e-05, No Iterations 745
[INFO] SolveP: 1240.43 [ms]
time step continuity errors : sum local = 9.54756e-09, global = -1.74194e-21, cumulative = -6.53631e-21
[INFO] ContinuityError: 7.405 [ms]
[INFO] CorrectBoundary: 0.313 [ms]
[INFO] PISOStep: 1362.43 [ms]
[INFO] MatrixAssemblyPI: 63.739 [ms]
[INFO] AdjustPhi: 7.57 [ms]
[INFO] ConstrainPressure: 0.003 [ms]
[INFO] MatrixAssemblyPII: 19.581 [ms]
[OGL LOG][Proc: 0]: global_index_init: 0.214 [ms]
[OGL LOG][Proc: 0]p_local_coeffs: call_update: 0 [ms]
[OGL LOG][Proc: 0]p_non_local_coeffs: call_update: 0 [ms]
[OGL LOG][Proc: 0]p: update_local_matrix_data: 13.183 [ms]
[OGL LOG][Proc: 0]p: update_non_local_matrix_data: 0.058 [ms]
[OGL LOG][Proc: 0]p: regenerate_distributed_matrix: 39.139 [ms]
[OGL LOG][Proc: 0]p_matrix: call_update: 39.729 [ms]
[OGL LOG][Proc: 0]p_rhs: call_update: 2.899 [ms]
[OGL LOG][Proc: 0]p: init_precond: 0.059 [ms]
[OGL LOG][StoppingCriterion.H:237] Creating stopping criterion with minIter 447 frequency 6
[OGL LOG][Proc: 0]p: generate_solver: 0.002 [ms]
[OGL LOG][Proc: 0]p: solve: 1214.4 [ms]
[OGL LOG][Proc: 0]p: copy_x_back: 1.324 [ms]
[OGL LOG][lduLduBase.H:330] 
Statistics:
	Time per iteration: 1630 [mu s]
	Time per residual norm calculation: 221.000000 [mu s]
	Time per iteration and DOF: 0.203750 [ns]
	Retrieve results bandwidth 1.510000 [GByte/s]
[OGL LOG][Proc: 0]p: solve_multi_gpu: 1265.12 [ms]
nonehipGKOCG:  Solving for p, Initial residual = 0.726178, Final residual = 8.70932e-05, No Iterations 745
[INFO] SolveP: 1280.86 [ms]
time step continuity errors : sum local = 8.78398e-09, global = -3.66313e-22, cumulative = -6.90262e-21
[INFO] ContinuityError: 5.381 [ms]
[INFO] CorrectBoundary: 0.154 [ms]
[INFO] PISOStep: 1403.19 [ms]
[INFO] TimeStep: 3294.15 [ms]
ExecutionTime = 29.01 s  ClockTime = 29 s

Time = 0.0015

Courant Number mean: 0.0366253 max: 0.475543
[INFO] MatrixAssemblyU: 64.021 [ms]
DILUPBiCGStab:  Solving for Ux, Initial residual = 0.0204492, Final residual = 0.000684038, No Iterations 5
DILUPBiCGStab:  Solving for Uy, Initial residual = 0.0659585, Final residual = 0.00256712, No Iterations 5
DILUPBiCGStab:  Solving for Uz, Initial residual = 0.337326, Final residual = 0.00883018, No Iterations 5
[INFO] MomentumPredictor: 448.71 [ms]
[INFO] MatrixAssemblyPI: 67.336 [ms]
[INFO] AdjustPhi: 3.64 [ms]
[INFO] ConstrainPressure: 0.004 [ms]
[INFO] MatrixAssemblyPII: 19.451 [ms]
[OGL LOG][Proc: 0]: global_index_init: 0.251 [ms]
[OGL LOG][Proc: 0]p_local_coeffs: call_update: 0 [ms]
[OGL LOG][Proc: 0]p_non_local_coeffs: call_update: 0 [ms]
[OGL LOG][Proc: 0]p: update_local_matrix_data: 14.454 [ms]
[OGL LOG][Proc: 0]p: update_non_local_matrix_data: 0.084 [ms]
[OGL LOG][Proc: 0]p: regenerate_distributed_matrix: 36.379 [ms]
[OGL LOG][Proc: 0]p_matrix: call_update: 37.116 [ms]
[OGL LOG][Proc: 0]p_rhs: call_update: 6.544 [ms]
[OGL LOG][Proc: 0]p: init_precond: 0.055 [ms]
[OGL LOG][StoppingCriterion.H:237] Creating stopping criterion with minIter 447 frequency 6
[OGL LOG][Proc: 0]p: generate_solver: 0.002 [ms]
[OGL LOG][Proc: 0]p: solve: 1170.11 [ms]
[OGL LOG][Proc: 0]p: copy_x_back: 1.179 [ms]
[OGL LOG][lduLduBase.H:330] 
Statistics:
	Time per iteration: 1570 [mu s]
	Time per residual norm calculation: 219.000000 [mu s]
	Time per iteration and DOF: 0.196250 [ns]
	Retrieve results bandwidth 1.696000 [GByte/s]
[OGL LOG][Proc: 0]p: solve_multi_gpu: 1216.4 [ms]
nonehipGKOCG:  Solving for p, Initial residual = 0.685915, Final residual = 9.71631e-05, No Iterations 745
[INFO] SolveP: 1233.7 [ms]
time step continuity errors : sum local = 1.01088e-08, global = -2.53293e-21, cumulative = -9.43555e-21
[INFO] ContinuityError: 6.284 [ms]
[INFO] CorrectBoundary: 0.291 [ms]
[INFO] PISOStep: 1355.05 [ms]
[INFO] MatrixAssemblyPI: 62.115 [ms]
[INFO] AdjustPhi: 13.173 [ms]
[INFO] ConstrainPressure: 0.004 [ms]
[INFO] MatrixAssemblyPII: 19.023 [ms]
[OGL LOG][Proc: 0]: global_index_init: 0.121 [ms]
[OGL LOG][Proc: 0]p_local_coeffs: call_update: 0 [ms]
[OGL LOG][Proc: 0]p_non_local_coeffs: call_update: 0 [ms]
[OGL LOG][Proc: 0]p: update_local_matrix_data: 13.451 [ms]
[OGL LOG][Proc: 0]p: update_non_local_matrix_data: 0.063 [ms]
[OGL LOG][Proc: 0]p: regenerate_distributed_matrix: 38.415 [ms]
[OGL LOG][Proc: 0]p_matrix: call_update: 39.123 [ms]
[OGL LOG][Proc: 0]p_rhs: call_update: 4.424 [ms]
[OGL LOG][Proc: 0]p: init_precond: 0.06 [ms]
[OGL LOG][StoppingCriterion.H:237] Creating stopping criterion with minIter 447 frequency 6
[OGL LOG][Proc: 0]p: generate_solver: 0.002 [ms]
[OGL LOG][Proc: 0]p: solve: 1186.28 [ms]
[OGL LOG][Proc: 0]p: copy_x_back: 1.094 [ms]
[OGL LOG][lduLduBase.H:330] 
Statistics:
	Time per iteration: 1592 [mu s]
	Time per residual norm calculation: 223.000000 [mu s]
	Time per iteration and DOF: 0.199000 [ns]
	Retrieve results bandwidth 1.828000 [GByte/s]
[OGL LOG][Proc: 0]p: solve_multi_gpu: 1233.41 [ms]
nonehipGKOCG:  Solving for p, Initial residual = 0.625439, Final residual = 8.00426e-05, No Iterations 745
[INFO] SolveP: 1249.88 [ms]
time step continuity errors : sum local = 7.86081e-09, global = -2.67073e-21, cumulative = -1.21063e-20
[INFO] ContinuityError: 7.434 [ms]
[INFO] CorrectBoundary: 0.245 [ms]
[INFO] PISOStep: 1376.81 [ms]
[INFO] TimeStep: 3251.91 [ms]
ExecutionTime = 32.23 s  ClockTime = 32 s

Time = 0.00175

Courant Number mean: 0.0395403 max: 0.477486
[INFO] MatrixAssemblyU: 60.323 [ms]
DILUPBiCGStab:  Solving for Ux, Initial residual = 0.017458, Final residual = 0.000549162, No Iterations 5
DILUPBiCGStab:  Solving for Uy, Initial residual = 0.0491745, Final residual = 0.00187713, No Iterations 5
DILUPBiCGStab:  Solving for Uz, Initial residual = 0.26311, Final residual = 0.00815829, No Iterations 5
[INFO] MomentumPredictor: 453.232 [ms]
[INFO] MatrixAssemblyPI: 66.364 [ms]
[INFO] AdjustPhi: 4.198 [ms]
[INFO] ConstrainPressure: 0.003 [ms]
[INFO] MatrixAssemblyPII: 19.494 [ms]
[OGL LOG][Proc: 0]: global_index_init: 0.271 [ms]
[OGL LOG][Proc: 0]p_local_coeffs: call_update: 0 [ms]
[OGL LOG][Proc: 0]p_non_local_coeffs: call_update: 0 [ms]
[OGL LOG][Proc: 0]p: update_local_matrix_data: 15.183 [ms]
[OGL LOG][Proc: 0]p: update_non_local_matrix_data: 0.08 [ms]
[OGL LOG][Proc: 0]p: regenerate_distributed_matrix: 39.912 [ms]
[OGL LOG][Proc: 0]p_matrix: call_update: 40.511 [ms]
[OGL LOG][Proc: 0]p_rhs: call_update: 5.482 [ms]
[OGL LOG][Proc: 0]p: init_precond: 0.057 [ms]
[OGL LOG][StoppingCriterion.H:237] Creating stopping criterion with minIter 447 frequency 6
[OGL LOG][Proc: 0]p: generate_solver: 0.001 [ms]
[OGL LOG][Proc: 0]p: solve: 2445.1 [ms]
[OGL LOG][Proc: 0]p: copy_x_back: 1.19 [ms]
[OGL LOG][lduLduBase.H:330] 
Statistics:
	Time per iteration: 1609 [mu s]
	Time per residual norm calculation: 223.000000 [mu s]
	Time per iteration and DOF: 0.201125 [ns]
	Retrieve results bandwidth 1.680000 [GByte/s]
[OGL LOG][Proc: 0]p: solve_multi_gpu: 2492.97 [ms]
nonehipGKOCG:  Solving for p, Initial residual = 0.681218, Final residual = 8.63343e-05, No Iterations 1519
[INFO] SolveP: 2511.57 [ms]
time step continuity errors : sum local = 6.75991e-09, global = -3.63942e-21, cumulative = -1.57457e-20
[INFO] ContinuityError: 6.246 [ms]
[INFO] CorrectBoundary: 0.548 [ms]
[INFO] PISOStep: 2632.52 [ms]
[INFO] MatrixAssemblyPI: 63.803 [ms]
[INFO] AdjustPhi: 4.056 [ms]
[INFO] ConstrainPressure: 0.004 [ms]
[INFO] MatrixAssemblyPII: 18.363 [ms]
[OGL LOG][Proc: 0]: global_index_init: 0.147 [ms]
[OGL LOG][Proc: 0]p_local_coeffs: call_update: 0 [ms]
[OGL LOG][Proc: 0]p_non_local_coeffs: call_update: 0 [ms]
[OGL LOG][Proc: 0]p: update_local_matrix_data: 16.595 [ms]
[OGL LOG][Proc: 0]p: update_non_local_matrix_data: 0.086 [ms]
[OGL LOG][Proc: 0]p: regenerate_distributed_matrix: 43.367 [ms]
[OGL LOG][Proc: 0]p_matrix: call_update: 44.203 [ms]
[OGL LOG][Proc: 0]p_rhs: call_update: 12.226 [ms]
[OGL LOG][Proc: 0]p: init_precond: 0.053 [ms]
[OGL LOG][StoppingCriterion.H:237] Creating stopping criterion with minIter 911 frequency 9
[OGL LOG][Proc: 0]p: generate_solver: 0.002 [ms]
[OGL LOG][Proc: 0]p: solve: 2368.92 [ms]
[OGL LOG][Proc: 0]p: copy_x_back: 1.282 [ms]
[OGL LOG][lduLduBase.H:330] 
Statistics:
	Time per iteration: 1565 [mu s]
	Time per residual norm calculation: 221.000000 [mu s]
	Time per iteration and DOF: 0.195625 [ns]
	Retrieve results bandwidth 1.560000 [GByte/s]
[OGL LOG][Proc: 0]p: solve_multi_gpu: 2432.13 [ms]
nonehipGKOCG:  Solving for p, Initial residual = 0.621999, Final residual = 9.53811e-05, No Iterations 1513
[INFO] SolveP: 2451.22 [ms]
time step continuity errors : sum local = 7.42744e-09, global = -4.46034e-21, cumulative = -2.0206e-20
[INFO] ContinuityError: 11.547 [ms]
[INFO] CorrectBoundary: 0.233 [ms]
[INFO] PISOStep: 2575.21 [ms]
[INFO] TimeStep: 5728.61 [ms]
ExecutionTime = 37.92 s  ClockTime = 38 s

Time = 0.002

Courant Number mean: 0.0420648 max: 0.479193
[INFO] MatrixAssemblyU: 60.514 [ms]
DILUPBiCGStab:  Solving for Ux, Initial residual = 0.0143177, Final residual = 0.000425566, No Iterations 5
DILUPBiCGStab:  Solving for Uy, Initial residual = 0.0418616, Final residual = 0.00146379, No Iterations 5
DILUPBiCGStab:  Solving for Uz, Initial residual = 0.205237, Final residual = 0.00625543, No Iterations 5
[INFO] MomentumPredictor: 468.911 [ms]
[INFO] MatrixAssemblyPI: 67.557 [ms]
[INFO] AdjustPhi: 3.321 [ms]
[INFO] ConstrainPressure: 0.004 [ms]
[INFO] MatrixAssemblyPII: 19.162 [ms]
[OGL LOG][Proc: 0]: global_index_init: 0.271 [ms]
[OGL LOG][Proc: 0]p_local_coeffs: call_update: 0 [ms]
[OGL LOG][Proc: 0]p_non_local_coeffs: call_update: 0 [ms]
[OGL LOG][Proc: 0]p: update_local_matrix_data: 14.865 [ms]
[OGL LOG][Proc: 0]p: update_non_local_matrix_data: 0.058 [ms]
[OGL LOG][Proc: 0]p: regenerate_distributed_matrix: 39.513 [ms]
[OGL LOG][Proc: 0]p_matrix: call_update: 40.069 [ms]
[OGL LOG][Proc: 0]p_rhs: call_update: 4.41 [ms]
[OGL LOG][Proc: 0]p: init_precond: 0.058 [ms]
[OGL LOG][StoppingCriterion.H:237] Creating stopping criterion with minIter 907 frequency 9
[OGL LOG][Proc: 0]p: generate_solver: 0.002 [ms]
[OGL LOG][Proc: 0]p: solve: 2373.16 [ms]
[OGL LOG][Proc: 0]p: copy_x_back: 1.32 [ms]
[OGL LOG][lduLduBase.H:330] 
Statistics:
	Time per iteration: 1559 [mu s]
	Time per residual norm calculation: 224.000000 [mu s]
	Time per iteration and DOF: 0.194875 [ns]
	Retrieve results bandwidth 1.515000 [GByte/s]
[OGL LOG][Proc: 0]p: solve_multi_gpu: 2420.15 [ms]
nonehipGKOCG:  Solving for p, Initial residual = 0.591265, Final residual = 9.34255e-05, No Iterations 1522
[INFO] SolveP: 2438.22 [ms]
time step continuity errors : sum local = 6.97138e-09, global = -4.49207e-21, cumulative = -2.46981e-20
[INFO] ContinuityError: 5.187 [ms]
[INFO] CorrectBoundary: 1.261 [ms]
[INFO] PISOStep: 2559.32 [ms]
[INFO] MatrixAssemblyPI: 62.82 [ms]
[INFO] AdjustPhi: 8.37 [ms]
[INFO] ConstrainPressure: 0.009 [ms]
[INFO] MatrixAssemblyPII: 19.63 [ms]
[OGL LOG][Proc: 0]: global_index_init: 0.146 [ms]
[OGL LOG][Proc: 0]p_local_coeffs: call_update: 0 [ms]
[OGL LOG][Proc: 0]p_non_local_coeffs: call_update: 0 [ms]
[OGL LOG][Proc: 0]p: update_local_matrix_data: 14.529 [ms]
[OGL LOG][Proc: 0]p: update_non_local_matrix_data: 0.064 [ms]
[OGL LOG][Proc: 0]p: regenerate_distributed_matrix: 38.607 [ms]
[OGL LOG][Proc: 0]p_matrix: call_update: 39.197 [ms]
[OGL LOG][Proc: 0]p_rhs: call_update: 8.299 [ms]
[OGL LOG][Proc: 0]p: init_precond: 0.059 [ms]
[OGL LOG][StoppingCriterion.H:237] Creating stopping criterion with minIter 913 frequency 10
[OGL LOG][Proc: 0]p: generate_solver: 0.001 [ms]
[OGL LOG][Proc: 0]p: solve: 2373.33 [ms]
[OGL LOG][Proc: 0]p: copy_x_back: 0.933 [ms]
[OGL LOG][lduLduBase.H:330] 
Statistics:
	Time per iteration: 1560 [mu s]
	Time per residual norm calculation: 221.000000 [mu s]
	Time per iteration and DOF: 0.195000 [ns]
	Retrieve results bandwidth 2.143000 [GByte/s]
[OGL LOG][Proc: 0]p: solve_multi_gpu: 2423.32 [ms]
nonehipGKOCG:  Solving for p, Initial residual = 0.534073, Final residual = 9.0214e-05, No Iterations 1521
[INFO] SolveP: 2441.41 [ms]
time step continuity errors : sum local = 6.71699e-09, global = -3.92725e-21, cumulative = -2.86254e-20
[INFO] ContinuityError: 7.325 [ms]
[INFO] CorrectBoundary: 0.226 [ms]
[INFO] PISOStep: 2562.89 [ms]
[INFO] TimeStep: 5659.01 [ms]
ExecutionTime = 43.54 s  ClockTime = 44 s

Time = 0.00225

Courant Number mean: 0.0443504 max: 0.480341
[INFO] MatrixAssemblyU: 61.41 [ms]
DILUPBiCGStab:  Solving for Ux, Initial residual = 0.0125977, Final residual = 0.000352225, No Iterations 5
DILUPBiCGStab:  Solving for Uy, Initial residual = 0.033738, Final residual = 0.00103744, No Iterations 5
DILUPBiCGStab:  Solving for Uz, Initial residual = 0.165774, Final residual = 0.00585224, No Iterations 5
[INFO] MomentumPredictor: 459.626 [ms]
[INFO] MatrixAssemblyPI: 66.578 [ms]
[INFO] AdjustPhi: 4.644 [ms]
[INFO] ConstrainPressure: 0.003 [ms]
[INFO] MatrixAssemblyPII: 19.473 [ms]
[OGL LOG][Proc: 0]: global_index_init: 0.164 [ms]
[OGL LOG][Proc: 0]p_local_coeffs: call_update: 0 [ms]
[OGL LOG][Proc: 0]p_non_local_coeffs: call_update: 0 [ms]
[OGL LOG][Proc: 0]p: update_local_matrix_data: 14.991 [ms]
[OGL LOG][Proc: 0]p: update_non_local_matrix_data: 0.081 [ms]
[OGL LOG][Proc: 0]p: regenerate_distributed_matrix: 38.129 [ms]
[OGL LOG][Proc: 0]p_matrix: call_update: 38.72 [ms]
[OGL LOG][Proc: 0]p_rhs: call_update: 4.895 [ms]
[OGL LOG][Proc: 0]p: init_precond: 0.054 [ms]
[OGL LOG][StoppingCriterion.H:237] Creating stopping criterion with minIter 912 frequency 9
[OGL LOG][Proc: 0]p: generate_solver: 0.001 [ms]
[OGL LOG][Proc: 0]p: solve: 2327.48 [ms]
[OGL LOG][Proc: 0]p: copy_x_back: 1.135 [ms]
[OGL LOG][lduLduBase.H:330] 
Statistics:
	Time per iteration: 1547 [mu s]
	Time per residual norm calculation: 221.000000 [mu s]
	Time per iteration and DOF: 0.193375 [ns]
	Retrieve results bandwidth 1.762000 [GByte/s]
[OGL LOG][Proc: 0]p: solve_multi_gpu: 2373.35 [ms]
nonehipGKOCG:  Solving for p, Initial residual = 0.577998, Final residual = 9.63288e-05, No Iterations 1504
[INFO] SolveP: 2391.68 [ms]
time step continuity errors : sum local = 6.21309e-09, global = -2.06072e-21, cumulative = -3.06861e-20
[INFO] ContinuityError: 6.34 [ms]
[INFO] CorrectBoundary: 0.246 [ms]
[INFO] PISOStep: 2513.17 [ms]
[INFO] MatrixAssemblyPI: 64.209 [ms]
[INFO] AdjustPhi: 10.328 [ms]
[INFO] ConstrainPressure: 0.008 [ms]
[INFO] MatrixAssemblyPII: 19.643 [ms]
[OGL LOG][Proc: 0]: global_index_init: 0.192 [ms]
[OGL LOG][Proc: 0]p_local_coeffs: call_update: 0 [ms]
[OGL LOG][Proc: 0]p_non_local_coeffs: call_update: 0 [ms]
[OGL LOG][Proc: 0]p: update_local_matrix_data: 14.451 [ms]
[OGL LOG][Proc: 0]p: update_non_local_matrix_data: 0.074 [ms]
[OGL LOG][Proc: 0]p: regenerate_distributed_matrix: 38.268 [ms]
[OGL LOG][Proc: 0]p_matrix: call_update: 38.93 [ms]
[OGL LOG][Proc: 0]p_rhs: call_update: 4.777 [ms]
[OGL LOG][Proc: 0]p: init_precond: 0.066 [ms]
[OGL LOG][StoppingCriterion.H:237] Creating stopping criterion with minIter 902 frequency 9
[OGL LOG][Proc: 0]p: generate_solver: 0.002 [ms]
[OGL LOG][Proc: 0]p: solve: 2383.88 [ms]
[OGL LOG][Proc: 0]p: copy_x_back: 1.447 [ms]
[OGL LOG][lduLduBase.H:330] 
Statistics:
	Time per iteration: 1585 [mu s]
	Time per residual norm calculation: 230.000000 [mu s]
	Time per iteration and DOF: 0.198125 [ns]
	Retrieve results bandwidth 1.382000 [GByte/s]
[OGL LOG][Proc: 0]p: solve_multi_gpu: 2430.15 [ms]
nonehipGKOCG:  Solving for p, Initial residual = 0.517673, Final residual = 9.09759e-05, No Iterations 1504
[INFO] SolveP: 2447.06 [ms]
time step continuity errors : sum local = 5.86432e-09, global = -2.51946e-21, cumulative = -3.32055e-20
[INFO] ContinuityError: 7.389 [ms]
[INFO] CorrectBoundary: 0.598 [ms]
[INFO] PISOStep: 2573.31 [ms]
[INFO] TimeStep: 5614.94 [ms]
ExecutionTime = 49.12 s  ClockTime = 49 s

Time = 0.0025

Courant Number mean: 0.0464048 max: 0.481448
[INFO] MatrixAssemblyU: 57.013 [ms]
DILUPBiCGStab:  Solving for Ux, Initial residual = 0.0108438, Final residual = 0.000285358, No Iterations 5
DILUPBiCGStab:  Solving for Uy, Initial residual = 0.0295422, Final residual = 0.000851975, No Iterations 5
DILUPBiCGStab:  Solving for Uz, Initial residual = 0.134085, Final residual = 0.00480804, No Iterations 5
[INFO] MomentumPredictor: 460.433 [ms]
[INFO] MatrixAssemblyPI: 67.618 [ms]
[INFO] AdjustPhi: 5.611 [ms]
[INFO] ConstrainPressure: 0.005 [ms]
[INFO] MatrixAssemblyPII: 18.487 [ms]
[OGL LOG][Proc: 0]: global_index_init: 0.318 [ms]
[OGL LOG][Proc: 0]p_local_coeffs: call_update: 0 [ms]
[OGL LOG][Proc: 0]p_non_local_coeffs: call_update: 0 [ms]
[OGL LOG][Proc: 0]p: update_local_matrix_data: 14.738 [ms]
[OGL LOG][Proc: 0]p: update_non_local_matrix_data: 0.081 [ms]
[OGL LOG][Proc: 0]p: regenerate_distributed_matrix: 40.239 [ms]
[OGL LOG][Proc: 0]p_matrix: call_update: 40.905 [ms]
[OGL LOG][Proc: 0]p_rhs: call_update: 8.683 [ms]
[OGL LOG][Proc: 0]p: init_precond: 0.045 [ms]
[OGL LOG][StoppingCriterion.H:237] Creating stopping criterion with minIter 902 frequency 10
[OGL LOG][Proc: 0]p: generate_solver: 0.001 [ms]
[OGL LOG][Proc: 0]p: solve: 2333.42 [ms]
[OGL LOG][Proc: 0]p: copy_x_back: 1.304 [ms]
[OGL LOG][lduLduBase.H:330] 
Statistics:
	Time per iteration: 1554 [mu s]
	Time per residual norm calculation: 217.000000 [mu s]
	Time per iteration and DOF: 0.194250 [ns]
	Retrieve results bandwidth 1.533000 [GByte/s]
[OGL LOG][Proc: 0]p: solve_multi_gpu: 2385.53 [ms]
nonehipGKOCG:  Solving for p, Initial residual = 0.501976, Final residual = 9.24753e-05, No Iterations 1501
[INFO] SolveP: 2402.97 [ms]
time step continuity errors : sum local = 5.79442e-09, global = -6.49448e-21, cumulative = -3.97e-20
[INFO] ContinuityError: 11.414 [ms]
[INFO] CorrectBoundary: 0.259 [ms]
[INFO] PISOStep: 2533.69 [ms]
[INFO] MatrixAssemblyPI: 63.89 [ms]
[INFO] AdjustPhi: 9.99 [ms]
[INFO] ConstrainPressure: 0.006 [ms]
[INFO] MatrixAssemblyPII: 19.636 [ms]
[OGL LOG][Proc: 0]: global_index_init: 0.169 [ms]
[OGL LOG][Proc: 0]p_local_coeffs: call_update: 0 [ms]
[OGL LOG][Proc: 0]p_non_local_coeffs: call_update: 0 [ms]
[OGL LOG][Proc: 0]p: update_local_matrix_data: 14.933 [ms]
[OGL LOG][Proc: 0]p: update_non_local_matrix_data: 0.077 [ms]
[OGL LOG][Proc: 0]p: regenerate_distributed_matrix: 38.951 [ms]
[OGL LOG][Proc: 0]p_matrix: call_update: 39.584 [ms]
[OGL LOG][Proc: 0]p_rhs: call_update: 4.782 [ms]
[OGL LOG][Proc: 0]p: init_precond: 0.053 [ms]
[OGL LOG][StoppingCriterion.H:237] Creating stopping criterion with minIter 900 frequency 9
[OGL LOG][Proc: 0]p: generate_solver: 0.002 [ms]
[OGL LOG][Proc: 0]p: solve: 2300.09 [ms]
[OGL LOG][Proc: 0]p: copy_x_back: 1.2 [ms]
[OGL LOG][lduLduBase.H:330] 
Statistics:
	Time per iteration: 1538 [mu s]
	Time per residual norm calculation: 223.000000 [mu s]
	Time per iteration and DOF: 0.192250 [ns]
	Retrieve results bandwidth 1.666000 [GByte/s]
[OGL LOG][Proc: 0]p: solve_multi_gpu: 2346.31 [ms]
nonehipGKOCG:  Solving for p, Initial residual = 0.449528, Final residual = 9.57677e-05, No Iterations 1495
[INFO] SolveP: 2363.75 [ms]
time step continuity errors : sum local = 5.97579e-09, global = -3.43011e-21, cumulative = -4.31301e-20
[INFO] ContinuityError: 5.729 [ms]
[INFO] CorrectBoundary: 0.156 [ms]
[INFO] PISOStep: 2489.41 [ms]
[INFO] TimeStep: 5548.08 [ms]
ExecutionTime = 54.63 s  ClockTime = 55 s

Time = 0.00275

Courant Number mean: 0.0482937 max: 0.48222
[INFO] MatrixAssemblyU: 64.385 [ms]
DILUPBiCGStab:  Solving for Ux, Initial residual = 0.00971438, Final residual = 0.000240586, No Iterations 5
DILUPBiCGStab:  Solving for Uy, Initial residual = 0.0250179, Final residual = 0.000620265, No Iterations 5
DILUPBiCGStab:  Solving for Uz, Initial residual = 0.112181, Final residual = 0.00452519, No Iterations 5
[INFO] MomentumPredictor: 449.405 [ms]
[INFO] MatrixAssemblyPI: 68.513 [ms]
[INFO] AdjustPhi: 5.33 [ms]
[INFO] ConstrainPressure: 0.004 [ms]
[INFO] MatrixAssemblyPII: 19.504 [ms]
[OGL LOG][Proc: 0]: global_index_init: 0.334 [ms]
[OGL LOG][Proc: 0]p_local_coeffs: call_update: 0 [ms]
[OGL LOG][Proc: 0]p_non_local_coeffs: call_update: 0 [ms]
[OGL LOG][Proc: 0]p: update_local_matrix_data: 15.126 [ms]
[OGL LOG][Proc: 0]p: update_non_local_matrix_data: 0.07 [ms]
[OGL LOG][Proc: 0]p: regenerate_distributed_matrix: 38.245 [ms]
[OGL LOG][Proc: 0]p_matrix: call_update: 41.055 [ms]
[OGL LOG][Proc: 0]p_rhs: call_update: 1.742 [ms]
[OGL LOG][Proc: 0]p: init_precond: 0.059 [ms]
[OGL LOG][StoppingCriterion.H:237] Creating stopping criterion with minIter 897 frequency 9
[OGL LOG][Proc: 0]p: generate_solver: 0.002 [ms]
[OGL LOG][Proc: 0]p: solve: 2310.86 [ms]
[OGL LOG][Proc: 0]p: copy_x_back: 1.299 [ms]
[OGL LOG][lduLduBase.H:330] 
Statistics:
	Time per iteration: 1555 [mu s]
	Time per residual norm calculation: 223.000000 [mu s]
	Time per iteration and DOF: 0.194375 [ns]
	Retrieve results bandwidth 1.539000 [GByte/s]
[OGL LOG][Proc: 0]p: solve_multi_gpu: 2356.14 [ms]
nonehipGKOCG:  Solving for p, Initial residual = 0.477345, Final residual = 9.97495e-05, No Iterations 1486
[INFO] SolveP: 2373.91 [ms]
time step continuity errors : sum local = 5.63772e-09, global = -1.80635e-21, cumulative = -4.49365e-20
[INFO] ContinuityError: 6.871 [ms]
[INFO] CorrectBoundary: 0.283 [ms]
[INFO] PISOStep: 2502.41 [ms]
[INFO] MatrixAssemblyPI: 57.506 [ms]
[INFO] AdjustPhi: 11.831 [ms]
[INFO] ConstrainPressure: 0.004 [ms]
[INFO] MatrixAssemblyPII: 19.628 [ms]
[OGL LOG][Proc: 0]: global_index_init: 0.115 [ms]
[OGL LOG][Proc: 0]p_local_coeffs: call_update: 0 [ms]
[OGL LOG][Proc: 0]p_non_local_coeffs: call_update: 0 [ms]
[OGL LOG][Proc: 0]p: update_local_matrix_data: 13.834 [ms]
[OGL LOG][Proc: 0]p: update_non_local_matrix_data: 0.064 [ms]
[OGL LOG][Proc: 0]p: regenerate_distributed_matrix: 38.926 [ms]
[OGL LOG][Proc: 0]p_matrix: call_update: 39.606 [ms]
[OGL LOG][Proc: 0]p_rhs: call_update: 4.175 [ms]
[OGL LOG][Proc: 0]p: init_precond: 0.056 [ms]
[OGL LOG][StoppingCriterion.H:237] Creating stopping criterion with minIter 891 frequency 9
[OGL LOG][Proc: 0]p: generate_solver: 0.001 [ms]
[OGL LOG][Proc: 0]p: solve: 2252.7 [ms]
[OGL LOG][Proc: 0]p: copy_x_back: 0.998 [ms]
[OGL LOG][lduLduBase.H:330] 
Statistics:
	Time per iteration: 1515 [mu s]
	Time per residual norm calculation: 221.000000 [mu s]
	Time per iteration and DOF: 0.189375 [ns]
	Retrieve results bandwidth 2.004000 [GByte/s]
[OGL LOG][Proc: 0]p: solve_multi_gpu: 2299.59 [ms]
nonehipGKOCG:  Solving for p, Initial residual = 0.423483, Final residual = 9.37038e-05, No Iterations 1486
[INFO] SolveP: 2316.32 [ms]
time step continuity errors : sum local = 5.30056e-09, global = -3.25188e-21, cumulative = -4.81883e-20
[INFO] ContinuityError: 6.624 [ms]
[INFO] CorrectBoundary: 0.277 [ms]
[INFO] PISOStep: 2436.14 [ms]
[INFO] TimeStep: 5459.95 [ms]
ExecutionTime = 60.06 s  ClockTime = 60 s

Time = 0.003

Courant Number mean: 0.0500276 max: 0.483011
[INFO] MatrixAssemblyU: 60.506 [ms]
DILUPBiCGStab:  Solving for Ux, Initial residual = 0.00862388, Final residual = 0.000201553, No Iterations 5
DILUPBiCGStab:  Solving for Uy, Initial residual = 0.0223388, Final residual = 0.000512306, No Iterations 5
DILUPBiCGStab:  Solving for Uz, Initial residual = 0.0939305, Final residual = 0.00384399, No Iterations 5
[INFO] MomentumPredictor: 452.653 [ms]
[INFO] MatrixAssemblyPI: 66.479 [ms]
[INFO] AdjustPhi: 5.702 [ms]
[INFO] ConstrainPressure: 0.004 [ms]
[INFO] MatrixAssemblyPII: 19.235 [ms]
[OGL LOG][Proc: 0]: global_index_init: 0.154 [ms]
[OGL LOG][Proc: 0]p_local_coeffs: call_update: 0 [ms]
[OGL LOG][Proc: 0]p_non_local_coeffs: call_update: 0 [ms]
[OGL LOG][Proc: 0]p: update_local_matrix_data: 14.234 [ms]
[OGL LOG][Proc: 0]p: update_non_local_matrix_data: 0.066 [ms]
[OGL LOG][Proc: 0]p: regenerate_distributed_matrix: 38.728 [ms]
[OGL LOG][Proc: 0]p_matrix: call_update: 39.36 [ms]
[OGL LOG][Proc: 0]p_rhs: call_update: 4.814 [ms]
[OGL LOG][Proc: 0]p: init_precond: 0.049 [ms]
[OGL LOG][StoppingCriterion.H:237] Creating stopping criterion with minIter 891 frequency 9
[OGL LOG][Proc: 0]p: generate_solver: 0.001 [ms]
[OGL LOG][Proc: 0]p: solve: 2340.17 [ms]
[OGL LOG][Proc: 0]p: copy_x_back: 1.299 [ms]
[OGL LOG][lduLduBase.H:330] 
Statistics:
	Time per iteration: 1565 [mu s]
	Time per residual norm calculation: 221.000000 [mu s]
	Time per iteration and DOF: 0.195625 [ns]
	Retrieve results bandwidth 1.539000 [GByte/s]
[OGL LOG][Proc: 0]p: solve_multi_gpu: 2389.8 [ms]
nonehipGKOCG:  Solving for p, Initial residual = 0.420471, Final residual = 8.07618e-05, No Iterations 1495
[INFO] SolveP: 2407.16 [ms]
time step continuity errors : sum local = 4.43695e-09, global = -4.93485e-21, cumulative = -5.31232e-20
[INFO] ContinuityError: 6.599 [ms]
[INFO] CorrectBoundary: 0.492 [ms]
[INFO] PISOStep: 2530.08 [ms]
[INFO] MatrixAssemblyPI: 62.502 [ms]
[INFO] AdjustPhi: 5.743 [ms]
[INFO] ConstrainPressure: 0.004 [ms]
[INFO] MatrixAssemblyPII: 19.439 [ms]
[OGL LOG][Proc: 0]: global_index_init: 3.273 [ms]
[OGL LOG][Proc: 0]p_local_coeffs: call_update: 0 [ms]
[OGL LOG][Proc: 0]p_non_local_coeffs: call_update: 0 [ms]
[OGL LOG][Proc: 0]p: update_local_matrix_data: 14.607 [ms]
[OGL LOG][Proc: 0]p: update_non_local_matrix_data: 0.059 [ms]
[OGL LOG][Proc: 0]p: regenerate_distributed_matrix: 44.917 [ms]
[OGL LOG][Proc: 0]p_matrix: call_update: 45.653 [ms]
[OGL LOG][Proc: 0]p_rhs: call_update: 6.12 [ms]
[OGL LOG][Proc: 0]p: init_precond: 0.048 [ms]
[OGL LOG][StoppingCriterion.H:237] Creating stopping criterion with minIter 897 frequency 9
[OGL LOG][Proc: 0]p: generate_solver: 0.001 [ms]
[OGL LOG][Proc: 0]p: solve: 2317.33 [ms]
[OGL LOG][Proc: 0]p: copy_x_back: 1.248 [ms]
[OGL LOG][lduLduBase.H:330] 
Statistics:
	Time per iteration: 1559 [mu s]
	Time per residual norm calculation: 231.000000 [mu s]
	Time per iteration and DOF: 0.194875 [ns]
	Retrieve results bandwidth 1.602000 [GByte/s]
[OGL LOG][Proc: 0]p: solve_multi_gpu: 2371.52 [ms]
nonehipGKOCG:  Solving for p, Initial residual = 0.37412, Final residual = 9.79737e-05, No Iterations 1486
[INFO] SolveP: 2391.75 [ms]
time step continuity errors : sum local = 5.35919e-09, global = -3.37952e-21, cumulative = -5.65027e-20
[INFO] ContinuityError: 7.122 [ms]
[INFO] CorrectBoundary: 0.823 [ms]
[INFO] PISOStep: 2512.59 [ms]
[INFO] TimeStep: 5563.04 [ms]
ExecutionTime = 65.58 s  ClockTime = 66 s

Time = 0.00325

Courant Number mean: 0.0516386 max: 0.483576
[INFO] MatrixAssemblyU: 54.33 [ms]
DILUPBiCGStab:  Solving for Ux, Initial residual = 0.00782734, Final residual = 0.000172167, No Iterations 5
DILUPBiCGStab:  Solving for Uy, Initial residual = 0.0195563, Final residual = 0.000402575, No Iterations 5
DILUPBiCGStab:  Solving for Uz, Initial residual = 0.0802334, Final residual = 0.00357624, No Iterations 5
[INFO] MomentumPredictor: 461.02 [ms]
[INFO] MatrixAssemblyPI: 65.205 [ms]
[INFO] AdjustPhi: 11.16 [ms]
[INFO] ConstrainPressure: 0.003 [ms]
[INFO] MatrixAssemblyPII: 19.554 [ms]
[OGL LOG][Proc: 0]: global_index_init: 0.283 [ms]
[OGL LOG][Proc: 0]p_local_coeffs: call_update: 0 [ms]
[OGL LOG][Proc: 0]p_non_local_coeffs: call_update: 0 [ms]
[OGL LOG][Proc: 0]p: update_local_matrix_data: 14.584 [ms]
[OGL LOG][Proc: 0]p: update_non_local_matrix_data: 0.108 [ms]
[OGL LOG][Proc: 0]p: regenerate_distributed_matrix: 50.565 [ms]
[OGL LOG][Proc: 0]p_matrix: call_update: 51.268 [ms]
[OGL LOG][Proc: 0]p_rhs: call_update: 5.275 [ms]
[OGL LOG][Proc: 0]p: init_precond: 0.048 [ms]
[OGL LOG][StoppingCriterion.H:237] Creating stopping criterion with minIter 891 frequency 9
[OGL LOG][Proc: 0]p: generate_solver: 0.001 [ms]
[OGL LOG][Proc: 0]p: solve: 2315 [ms]
[OGL LOG][Proc: 0]p: copy_x_back: 1.292 [ms]
[OGL LOG][lduLduBase.H:330] 
Statistics:
	Time per iteration: 1557 [mu s]
	Time per residual norm calculation: 221.000000 [mu s]
	Time per iteration and DOF: 0.194625 [ns]
	Retrieve results bandwidth 1.547000 [GByte/s]
[OGL LOG][Proc: 0]p: solve_multi_gpu: 2377.95 [ms]
nonehipGKOCG:  Solving for p, Initial residual = 0.389658, Final residual = 9.59029e-05, No Iterations 1486
[INFO] SolveP: 2395.3 [ms]
time step continuity errors : sum local = 4.9186e-09, global = 5.4316e-23, cumulative = -5.64484e-20
[INFO] ContinuityError: 6.684 [ms]
[INFO] CorrectBoundary: 0.226 [ms]
[INFO] PISOStep: 2523.12 [ms]
[INFO] MatrixAssemblyPI: 64.59 [ms]
[INFO] AdjustPhi: 4.088 [ms]
[INFO] ConstrainPressure: 0.007 [ms]
[INFO] MatrixAssemblyPII: 19.601 [ms]
[OGL LOG][Proc: 0]: global_index_init: 0.232 [ms]
[OGL LOG][Proc: 0]p_local_coeffs: call_update: 0 [ms]
[OGL LOG][Proc: 0]p_non_local_coeffs: call_update: 0 [ms]
[OGL LOG][Proc: 0]p: update_local_matrix_data: 15.16 [ms]
[OGL LOG][Proc: 0]p: update_non_local_matrix_data: 0.092 [ms]
[OGL LOG][Proc: 0]p: regenerate_distributed_matrix: 37.165 [ms]
[OGL LOG][Proc: 0]p_matrix: call_update: 37.744 [ms]
[OGL LOG][Proc: 0]p_rhs: call_update: 15.391 [ms]
[OGL LOG][Proc: 0]p: init_precond: 0.058 [ms]
[OGL LOG][StoppingCriterion.H:237] Creating stopping criterion with minIter 891 frequency 9
[OGL LOG][Proc: 0]p: generate_solver: 0.002 [ms]
[OGL LOG][Proc: 0]p: solve: 2303.45 [ms]
[OGL LOG][Proc: 0]p: copy_x_back: 1.498 [ms]
[OGL LOG][lduLduBase.H:330] 
Statistics:
	Time per iteration: 1550 [mu s]
	Time per residual norm calculation: 223.000000 [mu s]
	Time per iteration and DOF: 0.193750 [ns]
	Retrieve results bandwidth 1.335000 [GByte/s]
[OGL LOG][Proc: 0]p: solve_multi_gpu: 2364.53 [ms]
nonehipGKOCG:  Solving for p, Initial residual = 0.343629, Final residual = 8.96273e-05, No Iterations 1486
[INFO] SolveP: 2382.27 [ms]
time step continuity errors : sum local = 4.60195e-09, global = -2.84098e-21, cumulative = -5.92894e-20
[INFO] ContinuityError: 5.501 [ms]
[INFO] CorrectBoundary: 0.168 [ms]
[INFO] PISOStep: 2502.04 [ms]
[INFO] TimeStep: 5547.7 [ms]
ExecutionTime = 71.1 s  ClockTime = 72 s

Time = 0.0035

Courant Number mean: 0.0531349 max: 0.484172
[INFO] MatrixAssemblyU: 63.165 [ms]
DILUPBiCGStab:  Solving for Ux, Initial residual = 0.00709397, Final residual = 0.000147607, No Iterations 5
DILUPBiCGStab:  Solving for Uy, Initial residual = 0.0177267, Final residual = 0.00033438, No Iterations 5
DILUPBiCGStab:  Solving for Uz, Initial residual = 0.0691481, Final residual = 0.00311108, No Iterations 5
[INFO] MomentumPredictor: 449.765 [ms]
[INFO] MatrixAssemblyPI: 66.885 [ms]
[INFO] AdjustPhi: 4.01 [ms]
[INFO] ConstrainPressure: 0.003 [ms]
[INFO] MatrixAssemblyPII: 19.613 [ms]
[OGL LOG][Proc: 0]: global_index_init: 0.274 [ms]
[OGL LOG][Proc: 0]p_local_coeffs: call_update: 0 [ms]
[OGL LOG][Proc: 0]p_non_local_coeffs: call_update: 0 [ms]
[OGL LOG][Proc: 0]p: update_local_matrix_data: 13.624 [ms]
[OGL LOG][Proc: 0]p: update_non_local_matrix_data: 0.061 [ms]
[OGL LOG][Proc: 0]p: regenerate_distributed_matrix: 36.923 [ms]
[OGL LOG][Proc: 0]p_matrix: call_update: 37.536 [ms]
[OGL LOG][Proc: 0]p_rhs: call_update: 6.634 [ms]
[OGL LOG][Proc: 0]p: init_precond: 0.052 [ms]
[OGL LOG][StoppingCriterion.H:237] Creating stopping criterion with minIter 891 frequency 9
[OGL LOG][Proc: 0]p: generate_solver: 0.001 [ms]
[OGL LOG][Proc: 0]p: solve: 2223.13 [ms]
[OGL LOG][Proc: 0]p: copy_x_back: 1.252 [ms]
[OGL LOG][lduLduBase.H:330] 
Statistics:
	Time per iteration: 1533 [mu s]
	Time per residual norm calculation: 230.000000 [mu s]
	Time per iteration and DOF: 0.191625 [ns]
	Retrieve results bandwidth 1.597000 [GByte/s]
[OGL LOG][Proc: 0]p: solve_multi_gpu: 2271.65 [ms]
nonehipGKOCG:  Solving for p, Initial residual = 0.347752, Final residual = 9.84532e-05, No Iterations 1450
[INFO] SolveP: 2288.11 [ms]
time step continuity errors : sum local = 4.88608e-09, global = -4.30042e-21, cumulative = -6.35898e-20
[INFO] ContinuityError: 6.216 [ms]
[INFO] CorrectBoundary: 0.281 [ms]
[INFO] PISOStep: 2409.32 [ms]
[INFO] MatrixAssemblyPI: 63.981 [ms]
[INFO] AdjustPhi: 7.349 [ms]
[INFO] ConstrainPressure: 0.005 [ms]
[INFO] MatrixAssemblyPII: 19.547 [ms]
[OGL LOG][Proc: 0]: global_index_init: 0.056 [ms]
[OGL LOG][Proc: 0]p_local_coeffs: call_update: 0 [ms]
[OGL LOG][Proc: 0]p_non_local_coeffs: call_update: 0 [ms]
[OGL LOG][Proc: 0]p: update_local_matrix_data: 14.618 [ms]
[OGL LOG][Proc: 0]p: update_non_local_matrix_data: 0.079 [ms]
[OGL LOG][Proc: 0]p: regenerate_distributed_matrix: 37.631 [ms]
[OGL LOG][Proc: 0]p_matrix: call_update: 38.292 [ms]
[OGL LOG][Proc: 0]p_rhs: call_update: 4.173 [ms]
[OGL LOG][Proc: 0]p: init_precond: 0.049 [ms]
[OGL LOG][StoppingCriterion.H:237] Creating stopping criterion with minIter 870 frequency 9
[OGL LOG][Proc: 0]p: generate_solver: 0.001 [ms]
[OGL LOG][Proc: 0]p: solve: 2271.98 [ms]
[OGL LOG][Proc: 0]p: copy_x_back: 0.976 [ms]
[OGL LOG][lduLduBase.H:330] 
Statistics:
	Time per iteration: 1528 [mu s]
	Time per residual norm calculation: 222.000000 [mu s]
	Time per iteration and DOF: 0.191000 [ns]
	Retrieve results bandwidth 2.049000 [GByte/s]
[OGL LOG][Proc: 0]p: solve_multi_gpu: 2316.92 [ms]
nonehipGKOCG:  Solving for p, Initial residual = 0.308315, Final residual = 8.62156e-05, No Iterations 1486
[INFO] SolveP: 2334.97 [ms]
time step continuity errors : sum local = 4.26218e-09, global = -5.40622e-22, cumulative = -6.41304e-20
[INFO] ContinuityError: 7.061 [ms]
[INFO] CorrectBoundary: 0.307 [ms]
[INFO] PISOStep: 2456.99 [ms]
[INFO] TimeStep: 5386.61 [ms]
ExecutionTime = 76.45 s  ClockTime = 77 s

Time = 0.00375

Courant Number mean: 0.054538 max: 0.484612
[INFO] MatrixAssemblyU: 60.719 [ms]
DILUPBiCGStab:  Solving for Ux, Initial residual = 0.00650475, Final residual = 0.000127377, No Iterations 5
DILUPBiCGStab:  Solving for Uy, Initial residual = 0.0158799, Final residual = 0.000287386, No Iterations 5
DILUPBiCGStab:  Solving for Uz, Initial residual = 0.0599459, Final residual = 0.00284928, No Iterations 5
[INFO] MomentumPredictor: 448.069 [ms]
[INFO] MatrixAssemblyPI: 67.193 [ms]
[INFO] AdjustPhi: 3.448 [ms]
[INFO] ConstrainPressure: 0.004 [ms]
[INFO] MatrixAssemblyPII: 19.417 [ms]
[OGL LOG][Proc: 0]: global_index_init: 0.299 [ms]
[OGL LOG][Proc: 0]p_local_coeffs: call_update: 0 [ms]
[OGL LOG][Proc: 0]p_non_local_coeffs: call_update: 0 [ms]
[OGL LOG][Proc: 0]p: update_local_matrix_data: 14.731 [ms]
[OGL LOG][Proc: 0]p: update_non_local_matrix_data: 0.241 [ms]
[OGL LOG][Proc: 0]p: regenerate_distributed_matrix: 60.098 [ms]
[OGL LOG][Proc: 0]p_matrix: call_update: 60.751 [ms]
[OGL LOG][Proc: 0]p_rhs: call_update: 3.972 [ms]
[OGL LOG][Proc: 0]p: init_precond: 0.06 [ms]
[OGL LOG][StoppingCriterion.H:237] Creating stopping criterion with minIter 891 frequency 9
[OGL LOG][Proc: 0]p: generate_solver: 0.002 [ms]
[OGL LOG][Proc: 0]p: solve: 1384.84 [ms]
[OGL LOG][Proc: 0]p: copy_x_back: 1.305 [ms]
[OGL LOG][lduLduBase.H:330] 
Statistics:
	Time per iteration: 1552 [mu s]
	Time per residual norm calculation: 230.000000 [mu s]
	Time per iteration and DOF: 0.194000 [ns]
	Retrieve results bandwidth 1.532000 [GByte/s]
[OGL LOG][Proc: 0]p: solve_multi_gpu: 1452.56 [ms]
nonehipGKOCG:  Solving for p, Initial residual = 0.315028, Final residual = 9.04979e-05, No Iterations 892
[INFO] SolveP: 1470.8 [ms]
time step continuity errors : sum local = 4.53269e-09, global = -5.22292e-21, cumulative = -6.93533e-20
[INFO] ContinuityError: 6.525 [ms]
[INFO] CorrectBoundary: 0.32 [ms]
[INFO] PISOStep: 1591.79 [ms]
[INFO] MatrixAssemblyPI: 65.394 [ms]
[INFO] AdjustPhi: 3.225 [ms]
[INFO] ConstrainPressure: 0.004 [ms]
[INFO] MatrixAssemblyPII: 19.697 [ms]
[OGL LOG][Proc: 0]: global_index_init: 0.127 [ms]
[OGL LOG][Proc: 0]p_local_coeffs: call_update: 0 [ms]
[OGL LOG][Proc: 0]p_non_local_coeffs: call_update: 0 [ms]
[OGL LOG][Proc: 0]p: update_local_matrix_data: 17.504 [ms]
[OGL LOG][Proc: 0]p: update_non_local_matrix_data: 0.098 [ms]
[OGL LOG][Proc: 0]p: regenerate_distributed_matrix: 52.472 [ms]
[OGL LOG][Proc: 0]p_matrix: call_update: 53.09 [ms]
[OGL LOG][Proc: 0]p_rhs: call_update: 1.186 [ms]
[OGL LOG][Proc: 0]p: init_precond: 0.059 [ms]
[OGL LOG][StoppingCriterion.H:237] Creating stopping criterion with minIter 535 frequency 7
[OGL LOG][Proc: 0]p: generate_solver: 0.002 [ms]
[OGL LOG][Proc: 0]p: solve: 1088.96 [ms]
[OGL LOG][Proc: 0]p: copy_x_back: 1.291 [ms]
[OGL LOG][lduLduBase.H:330] 
Statistics:
	Time per iteration: 1585 [mu s]
	Time per residual norm calculation: 224.000000 [mu s]
	Time per iteration and DOF: 0.198125 [ns]
	Retrieve results bandwidth 1.549000 [GByte/s]
[OGL LOG][Proc: 0]p: solve_multi_gpu: 1148.82 [ms]
nonehipGKOCG:  Solving for p, Initial residual = 0.27713, Final residual = 9.89262e-05, No Iterations 687
[INFO] SolveP: 1168.86 [ms]
time step continuity errors : sum local = 4.78802e-09, global = -4.34133e-21, cumulative = -7.36947e-20
[INFO] ContinuityError: 7.174 [ms]
[INFO] CorrectBoundary: 0.251 [ms]
[INFO] PISOStep: 1289.08 [ms]
[INFO] TimeStep: 3397.19 [ms]
ExecutionTime = 79.82 s  ClockTime = 80 s

Time = 0.004

Courant Number mean: 0.0558523 max: 0.485075
[INFO] MatrixAssemblyU: 60.487 [ms]
DILUPBiCGStab:  Solving for Ux, Initial residual = 0.0059856, Final residual = 0.000111184, No Iterations 5
DILUPBiCGStab:  Solving for Uy, Initial residual = 0.0145657, Final residual = 0.000243779, No Iterations 5
DILUPBiCGStab:  Solving for Uz, Initial residual = 0.0529431, Final residual = 0.00250616, No Iterations 5
[INFO] MomentumPredictor: 471.205 [ms]
[INFO] MatrixAssemblyPI: 66.639 [ms]
[INFO] AdjustPhi: 4.094 [ms]
[INFO] ConstrainPressure: 0.005 [ms]
[INFO] MatrixAssemblyPII: 19.397 [ms]
[OGL LOG][Proc: 0]: global_index_init: 0.396 [ms]
[OGL LOG][Proc: 0]p_local_coeffs: call_update: 0 [ms]
[OGL LOG][Proc: 0]p_non_local_coeffs: call_update: 0 [ms]
[OGL LOG][Proc: 0]p: update_local_matrix_data: 14.885 [ms]
[OGL LOG][Proc: 0]p: update_non_local_matrix_data: 0.078 [ms]
[OGL LOG][Proc: 0]p: regenerate_distributed_matrix: 41.442 [ms]
[OGL LOG][Proc: 0]p_matrix: call_update: 42.03 [ms]
[OGL LOG][Proc: 0]p_rhs: call_update: 3.417 [ms]
[OGL LOG][Proc: 0]p: init_precond: 0.056 [ms]
[OGL LOG][StoppingCriterion.H:237] Creating stopping criterion with minIter 412 frequency 6
[OGL LOG][Proc: 0]p: generate_solver: 0.001 [ms]
[OGL LOG][Proc: 0]p: solve: 1168.43 [ms]
[OGL LOG][Proc: 0]p: copy_x_back: 1.156 [ms]
[OGL LOG][lduLduBase.H:330] 
Statistics:
	Time per iteration: 1581 [mu s]
	Time per residual norm calculation: 225.000000 [mu s]
	Time per iteration and DOF: 0.197625 [ns]
	Retrieve results bandwidth 1.730000 [GByte/s]
[OGL LOG][Proc: 0]p: solve_multi_gpu: 1216.36 [ms]
nonehipGKOCG:  Solving for p, Initial residual = 0.284285, Final residual = 9.54518e-05, No Iterations 739
[INFO] SolveP: 1233.99 [ms]
time step continuity errors : sum local = 4.92484e-09, global = -3.00835e-21, cumulative = -7.6703e-20
[INFO] ContinuityError: 6.111 [ms]
[INFO] CorrectBoundary: 0.613 [ms]
[INFO] PISOStep: 1354.82 [ms]
[INFO] MatrixAssemblyPI: 62.938 [ms]
[INFO] AdjustPhi: 8.571 [ms]
[INFO] ConstrainPressure: 0.009 [ms]
[INFO] MatrixAssemblyPII: 18.295 [ms]
[OGL LOG][Proc: 0]: global_index_init: 0.228 [ms]
[OGL LOG][Proc: 0]p_local_coeffs: call_update: 0 [ms]
[OGL LOG][Proc: 0]p_non_local_coeffs: call_update: 0 [ms]
[OGL LOG][Proc: 0]p: update_local_matrix_data: 14.605 [ms]
[OGL LOG][Proc: 0]p: update_non_local_matrix_data: 0.078 [ms]
[OGL LOG][Proc: 0]p: regenerate_distributed_matrix: 35.004 [ms]
[OGL LOG][Proc: 0]p_matrix: call_update: 35.769 [ms]
[OGL LOG][Proc: 0]p_rhs: call_update: 5.505 [ms]
[OGL LOG][Proc: 0]p: init_precond: 0.052 [ms]
[OGL LOG][StoppingCriterion.H:237] Creating stopping criterion with minIter 443 frequency 6
[OGL LOG][Proc: 0]p: generate_solver: 0.002 [ms]
[OGL LOG][Proc: 0]p: solve: 1125.74 [ms]
[OGL LOG][Proc: 0]p: copy_x_back: 1.104 [ms]
[OGL LOG][lduLduBase.H:330] 
Statistics:
	Time per iteration: 1587 [mu s]
	Time per residual norm calculation: 222.000000 [mu s]
	Time per iteration and DOF: 0.198375 [ns]
	Retrieve results bandwidth 1.811000 [GByte/s]
[OGL LOG][Proc: 0]p: solve_multi_gpu: 1169.58 [ms]
nonehipGKOCG:  Solving for p, Initial residual = 0.251306, Final residual = 9.9372e-05, No Iterations 709
[INFO] SolveP: 1186.8 [ms]
time step continuity errors : sum local = 4.69809e-09, global = -4.26042e-21, cumulative = -8.09634e-20
[INFO] ContinuityError: 7.713 [ms]
[INFO] CorrectBoundary: 0.255 [ms]
[INFO] PISOStep: 1309.92 [ms]
[INFO] TimeStep: 3203.7 [ms]
ExecutionTime = 83 s  ClockTime = 84 s

Time = 0.00425

Courant Number mean: 0.0570919 max: 0.485433
[INFO] MatrixAssemblyU: 59.867 [ms]
DILUPBiCGStab:  Solving for Ux, Initial residual = 0.00552822, Final residual = 9.68031e-05, No Iterations 5
DILUPBiCGStab:  Solving for Uy, Initial residual = 0.0133003, Final residual = 0.000222806, No Iterations 5
DILUPBiCGStab:  Solving for Uz, Initial residual = 0.0473481, Final residual = 0.00230579, No Iterations 5
[INFO] MomentumPredictor: 474.392 [ms]
[INFO] MatrixAssemblyPI: 66.827 [ms]
[INFO] AdjustPhi: 3.36 [ms]
[INFO] ConstrainPressure: 0.004 [ms]
[INFO] MatrixAssemblyPII: 19.525 [ms]
[OGL LOG][Proc: 0]: global_index_init: 0.265 [ms]
[OGL LOG][Proc: 0]p_local_coeffs: call_update: 0 [ms]
[OGL LOG][Proc: 0]p_non_local_coeffs: call_update: 0 [ms]
[OGL LOG][Proc: 0]p: update_local_matrix_data: 14.93 [ms]
[OGL LOG][Proc: 0]p: update_non_local_matrix_data: 0.081 [ms]
[OGL LOG][Proc: 0]p: regenerate_distributed_matrix: 37.274 [ms]
[OGL LOG][Proc: 0]p_matrix: call_update: 37.92 [ms]
[OGL LOG][Proc: 0]p_rhs: call_update: 4.725 [ms]
[OGL LOG][Proc: 0]p: init_precond: 0.058 [ms]
[OGL LOG][StoppingCriterion.H:237] Creating stopping criterion with minIter 425 frequency 6
[OGL LOG][Proc: 0]p: generate_solver: 0.001 [ms]
[OGL LOG][Proc: 0]p: solve: 2321.38 [ms]
[OGL LOG][Proc: 0]p: copy_x_back: 1.176 [ms]
[OGL LOG][lduLduBase.H:330] 
Statistics:
	Time per iteration: 1565 [mu s]
	Time per residual norm calculation: 222.000000 [mu s]
	Time per iteration and DOF: 0.195625 [ns]
	Retrieve results bandwidth 1.700000 [GByte/s]
[OGL LOG][Proc: 0]p: solve_multi_gpu: 2366.49 [ms]
nonehipGKOCG:  Solving for p, Initial residual = 0.253875, Final residual = 8.50473e-05, No Iterations 1483
[INFO] SolveP: 2383.86 [ms]
time step continuity errors : sum local = 3.80962e-09, global = -2.03351e-21, cumulative = -8.29969e-20
[INFO] ContinuityError: 7.764 [ms]
[INFO] CorrectBoundary: 0.692 [ms]
[INFO] PISOStep: 2504.95 [ms]
[INFO] MatrixAssemblyPI: 69.69 [ms]
[INFO] AdjustPhi: 2.955 [ms]
[INFO] ConstrainPressure: 0.011 [ms]
[INFO] MatrixAssemblyPII: 20.371 [ms]
[OGL LOG][Proc: 0]: global_index_init: 0.199 [ms]
[OGL LOG][Proc: 0]p_local_coeffs: call_update: 0 [ms]
[OGL LOG][Proc: 0]p_non_local_coeffs: call_update: 0 [ms]
[OGL LOG][Proc: 0]p: update_local_matrix_data: 13.92 [ms]
[OGL LOG][Proc: 0]p: update_non_local_matrix_data: 0.058 [ms]
[OGL LOG][Proc: 0]p: regenerate_distributed_matrix: 39.226 [ms]
[OGL LOG][Proc: 0]p_matrix: call_update: 39.846 [ms]
[OGL LOG][Proc: 0]p_rhs: call_update: 4.039 [ms]
[OGL LOG][Proc: 0]p: init_precond: 0.053 [ms]
[OGL LOG][StoppingCriterion.H:237] Creating stopping criterion with minIter 889 frequency 9
[OGL LOG][Proc: 0]p: generate_solver: 0.002 [ms]
[OGL LOG][Proc: 0]p: solve: 2331.95 [ms]
[OGL LOG][Proc: 0]p: copy_x_back: 1.396 [ms]
[OGL LOG][lduLduBase.H:330] 
Statistics:
	Time per iteration: 1569 [mu s]
	Time per residual norm calculation: 235.000000 [mu s]
	Time per iteration and DOF: 0.196125 [ns]
	Retrieve results bandwidth 1.432000 [GByte/s]
[OGL LOG][Proc: 0]p: solve_multi_gpu: 2379.47 [ms]
nonehipGKOCG:  Solving for p, Initial residual = 0.222874, Final residual = 7.04815e-05, No Iterations 1486
[INFO] SolveP: 2396.05 [ms]
time step continuity errors : sum local = 3.15972e-09, global = -1.70279e-21, cumulative = -8.46997e-20
[INFO] ContinuityError: 6.737 [ms]
[INFO] CorrectBoundary: 0.387 [ms]
[INFO] PISOStep: 2521.66 [ms]
[INFO] TimeStep: 5568.23 [ms]
ExecutionTime = 88.53 s  ClockTime = 89 s

Time = 0.0045

Courant Number mean: 0.0582616 max: 0.485805
[INFO] MatrixAssemblyU: 63.288 [ms]
DILUPBiCGStab:  Solving for Ux, Initial residual = 0.00514614, Final residual = 8.57936e-05, No Iterations 5
DILUPBiCGStab:  Solving for Uy, Initial residual = 0.0123134, Final residual = 0.000193181, No Iterations 5
DILUPBiCGStab:  Solving for Uz, Initial residual = 0.0425113, Final residual = 0.00198736, No Iterations 5
[INFO] MomentumPredictor: 450.573 [ms]
[INFO] MatrixAssemblyPI: 66.874 [ms]
[INFO] AdjustPhi: 4.016 [ms]
[INFO] ConstrainPressure: 0.004 [ms]
[INFO] MatrixAssemblyPII: 19.399 [ms]
[OGL LOG][Proc: 0]: global_index_init: 0.392 [ms]
[OGL LOG][Proc: 0]p_local_coeffs: call_update: 0 [ms]
[OGL LOG][Proc: 0]p_non_local_coeffs: call_update: 0 [ms]
[OGL LOG][Proc: 0]p: update_local_matrix_data: 17.881 [ms]
[OGL LOG][Proc: 0]p: update_non_local_matrix_data: 0.085 [ms]
[OGL LOG][Proc: 0]p: regenerate_distributed_matrix: 55.104 [ms]
[OGL LOG][Proc: 0]p_matrix: call_update: 55.649 [ms]
[OGL LOG][Proc: 0]p_rhs: call_update: 3.558 [ms]
[OGL LOG][Proc: 0]p: init_precond: 0.049 [ms]
[OGL LOG][StoppingCriterion.H:237] Creating stopping criterion with minIter 891 frequency 9
[OGL LOG][Proc: 0]p: generate_solver: 0.002 [ms]
[OGL LOG][Proc: 0]p: solve: 2294.6 [ms]
[OGL LOG][Proc: 0]p: copy_x_back: 1.26 [ms]
[OGL LOG][lduLduBase.H:330] 
Statistics:
	Time per iteration: 1544 [mu s]
	Time per residual norm calculation: 227.000000 [mu s]
	Time per iteration and DOF: 0.193000 [ns]
	Retrieve results bandwidth 1.587000 [GByte/s]
[OGL LOG][Proc: 0]p: solve_multi_gpu: 2356.43 [ms]
nonehipGKOCG:  Solving for p, Initial residual = 0.230584, Final residual = 6.98603e-05, No Iterations 1486
[INFO] SolveP: 2376.7 [ms]
time step continuity errors : sum local = 3.01577e-09, global = -2.89574e-21, cumulative = -8.75955e-20
[INFO] ContinuityError: 6.408 [ms]
[INFO] CorrectBoundary: 0.247 [ms]
[INFO] PISOStep: 2497.7 [ms]
[INFO] MatrixAssemblyPI: 65.007 [ms]
[INFO] AdjustPhi: 4.187 [ms]
[INFO] ConstrainPressure: 0.006 [ms]
[INFO] MatrixAssemblyPII: 19.436 [ms]
[OGL LOG][Proc: 0]: global_index_init: 0.282 [ms]
[OGL LOG][Proc: 0]p_local_coeffs: call_update: 0 [ms]
[OGL LOG][Proc: 0]p_non_local_coeffs: call_update: 0 [ms]
[OGL LOG][Proc: 0]p: update_local_matrix_data: 18.152 [ms]
[OGL LOG][Proc: 0]p: update_non_local_matrix_data: 0.062 [ms]
[OGL LOG][Proc: 0]p: regenerate_distributed_matrix: 40.5 [ms]
[OGL LOG][Proc: 0]p_matrix: call_update: 41.085 [ms]
[OGL LOG][Proc: 0]p_rhs: call_update: 3.159 [ms]
[OGL LOG][Proc: 0]p: init_precond: 0.059 [ms]
[OGL LOG][StoppingCriterion.H:237] Creating stopping criterion with minIter 891 frequency 9
[OGL LOG][Proc: 0]p: generate_solver: 0.002 [ms]
[OGL LOG][Proc: 0]p: solve: 2292.25 [ms]
[OGL LOG][Proc: 0]p: copy_x_back: 1.253 [ms]
[OGL LOG][lduLduBase.H:330] 
Statistics:
	Time per iteration: 1551 [mu s]
	Time per residual norm calculation: 220.000000 [mu s]
	Time per iteration and DOF: 0.193875 [ns]
	Retrieve results bandwidth 1.596000 [GByte/s]
[OGL LOG][Proc: 0]p: solve_multi_gpu: 2338.48 [ms]
nonehipGKOCG:  Solving for p, Initial residual = 0.203277, Final residual = 9.48661e-05, No Iterations 1477
[INFO] SolveP: 2359.62 [ms]
time step continuity errors : sum local = 4.08588e-09, global = -5.01983e-21, cumulative = -9.26153e-20
[INFO] ContinuityError: 6.944 [ms]
[INFO] CorrectBoundary: 0.308 [ms]
[INFO] PISOStep: 2479.8 [ms]
[INFO] TimeStep: 5498.79 [ms]
ExecutionTime = 94 s  ClockTime = 95 s

Time = 0.00475

Courant Number mean: 0.0593699 max: 0.486103
[INFO] MatrixAssemblyU: 60.576 [ms]
DILUPBiCGStab:  Solving for Ux, Initial residual = 0.00479072, Final residual = 7.55421e-05, No Iterations 5
DILUPBiCGStab:  Solving for Uy, Initial residual = 0.0113421, Final residual = 0.000180237, No Iterations 5
DILUPBiCGStab:  Solving for Uz, Initial residual = 0.0371552, Final residual = 0.00173635, No Iterations 5
[INFO] MomentumPredictor: 458.076 [ms]
[INFO] MatrixAssemblyPI: 66.215 [ms]
[INFO] AdjustPhi: 4.676 [ms]
[INFO] ConstrainPressure: 0.003 [ms]
[INFO] MatrixAssemblyPII: 19.447 [ms]
[OGL LOG][Proc: 0]: global_index_init: 0.272 [ms]
[OGL LOG][Proc: 0]p_local_coeffs: call_update: 0 [ms]
[OGL LOG][Proc: 0]p_non_local_coeffs: call_update: 0 [ms]
[OGL LOG][Proc: 0]p: update_local_matrix_data: 14.747 [ms]
[OGL LOG][Proc: 0]p: update_non_local_matrix_data: 0.09 [ms]
[OGL LOG][Proc: 0]p: regenerate_distributed_matrix: 36.908 [ms]
[OGL LOG][Proc: 0]p_matrix: call_update: 37.512 [ms]
[OGL LOG][Proc: 0]p_rhs: call_update: 5.397 [ms]
[OGL LOG][Proc: 0]p: init_precond: 0.05 [ms]
[OGL LOG][StoppingCriterion.H:237] Creating stopping criterion with minIter 886 frequency 9
[OGL LOG][Proc: 0]p: generate_solver: 0.002 [ms]
[OGL LOG][Proc: 0]p: solve: 2291.45 [ms]
[OGL LOG][Proc: 0]p: copy_x_back: 1.132 [ms]
[OGL LOG][lduLduBase.H:330] 
Statistics:
	Time per iteration: 1551 [mu s]
	Time per residual norm calculation: 223.000000 [mu s]
	Time per iteration and DOF: 0.193875 [ns]
	Retrieve results bandwidth 1.766000 [GByte/s]
[OGL LOG][Proc: 0]p: solve_multi_gpu: 2337.02 [ms]
nonehipGKOCG:  Solving for p, Initial residual = 0.204264, Final residual = 8.28701e-05, No Iterations 1477
[INFO] SolveP: 2354.43 [ms]
time step continuity errors : sum local = 3.53875e-09, global = -4.6206e-21, cumulative = -9.72359e-20
[INFO] ContinuityError: 7.687 [ms]
[INFO] CorrectBoundary: 0.558 [ms]
[INFO] PISOStep: 2476.55 [ms]
[INFO] MatrixAssemblyPI: 64.783 [ms]
[INFO] AdjustPhi: 3.731 [ms]
[INFO] ConstrainPressure: 0.012 [ms]
[INFO] MatrixAssemblyPII: 19.645 [ms]
[OGL LOG][Proc: 0]: global_index_init: 0.046 [ms]
[OGL LOG][Proc: 0]p_local_coeffs: call_update: 0 [ms]
[OGL LOG][Proc: 0]p_non_local_coeffs: call_update: 0 [ms]
[OGL LOG][Proc: 0]p: update_local_matrix_data: 14.218 [ms]
[OGL LOG][Proc: 0]p: update_non_local_matrix_data: 0.063 [ms]
[OGL LOG][Proc: 0]p: regenerate_distributed_matrix: 37.826 [ms]
[OGL LOG][Proc: 0]p_matrix: call_update: 38.445 [ms]
[OGL LOG][Proc: 0]p_rhs: call_update: 4.623 [ms]
[OGL LOG][Proc: 0]p: init_precond: 0.045 [ms]
[OGL LOG][StoppingCriterion.H:237] Creating stopping criterion with minIter 886 frequency 9
[OGL LOG][Proc: 0]p: generate_solver: 0.002 [ms]
[OGL LOG][Proc: 0]p: solve: 2326.51 [ms]
[OGL LOG][Proc: 0]p: copy_x_back: 1.262 [ms]
[OGL LOG][lduLduBase.H:330] 
Statistics:
	Time per iteration: 1575 [mu s]
	Time per residual norm calculation: 225.000000 [mu s]
	Time per iteration and DOF: 0.196875 [ns]
	Retrieve results bandwidth 1.584000 [GByte/s]
[OGL LOG][Proc: 0]p: solve_multi_gpu: 2372.77 [ms]
nonehipGKOCG:  Solving for p, Initial residual = 0.17907, Final residual = 7.58243e-05, No Iterations 1477
[INFO] SolveP: 2389.47 [ms]
time step continuity errors : sum local = 3.23918e-09, global = -5.23182e-21, cumulative = -1.02468e-19
[INFO] ContinuityError: 6.758 [ms]
[INFO] CorrectBoundary: 0.559 [ms]
[INFO] PISOStep: 2509.53 [ms]
[INFO] TimeStep: 5511.93 [ms]
ExecutionTime = 99.47 s  ClockTime = 100 s

Time = 0.005

Courant Number mean: 0.060421 max: 0.486409
[INFO] MatrixAssemblyU: 56.264 [ms]
DILUPBiCGStab:  Solving for Ux, Initial residual = 0.00448644, Final residual = 6.78486e-05, No Iterations 5
DILUPBiCGStab:  Solving for Uy, Initial residual = 0.0105976, Final residual = 0.000158961, No Iterations 5
DILUPBiCGStab:  Solving for Uz, Initial residual = 0.0337061, Final residual = 0.00151783, No Iterations 5
[INFO] MomentumPredictor: 476.661 [ms]
[INFO] MatrixAssemblyPI: 65.886 [ms]
[INFO] AdjustPhi: 4.56 [ms]
[INFO] ConstrainPressure: 0.004 [ms]
[INFO] MatrixAssemblyPII: 19.656 [ms]
[OGL LOG][Proc: 0]: global_index_init: 0.274 [ms]
[OGL LOG][Proc: 0]p_local_coeffs: call_update: 0 [ms]
[OGL LOG][Proc: 0]p_non_local_coeffs: call_update: 0 [ms]
[OGL LOG][Proc: 0]p: update_local_matrix_data: 14.755 [ms]
[OGL LOG][Proc: 0]p: update_non_local_matrix_data: 0.086 [ms]
[OGL LOG][Proc: 0]p: regenerate_distributed_matrix: 38.767 [ms]
[OGL LOG][Proc: 0]p_matrix: call_update: 39.417 [ms]
[OGL LOG][Proc: 0]p_rhs: call_update: 5.295 [ms]
[OGL LOG][Proc: 0]p: init_precond: 0.056 [ms]
[OGL LOG][StoppingCriterion.H:237] Creating stopping criterion with minIter 886 frequency 9
[OGL LOG][Proc: 0]p: generate_solver: 0.002 [ms]
[OGL LOG][Proc: 0]p: solve: 2277.74 [ms]
[OGL LOG][Proc: 0]p: copy_x_back: 1.26 [ms]
[OGL LOG][lduLduBase.H:330] 
Statistics:
	Time per iteration: 1542 [mu s]
	Time per residual norm calculation: 225.000000 [mu s]
	Time per iteration and DOF: 0.192750 [ns]
	Retrieve results bandwidth 1.587000 [GByte/s]
[OGL LOG][Proc: 0]p: solve_multi_gpu: 2325.13 [ms]
nonehipGKOCG:  Solving for p, Initial residual = 0.185667, Final residual = 7.54409e-05, No Iterations 1477
[INFO] SolveP: 2342.39 [ms]
time step continuity errors : sum local = 3.11219e-09, global = -1.35142e-21, cumulative = -1.03819e-19
[INFO] ContinuityError: 7.55 [ms]
[INFO] CorrectBoundary: 0.39 [ms]
[INFO] PISOStep: 2463.59 [ms]
[INFO] MatrixAssemblyPI: 64.743 [ms]
[INFO] AdjustPhi: 4.308 [ms]
[INFO] ConstrainPressure: 0.005 [ms]
[INFO] MatrixAssemblyPII: 19.389 [ms]
[OGL LOG][Proc: 0]: global_index_init: 0.209 [ms]
[OGL LOG][Proc: 0]p_local_coeffs: call_update: 0 [ms]
[OGL LOG][Proc: 0]p_non_local_coeffs: call_update: 0 [ms]
[OGL LOG][Proc: 0]p: update_local_matrix_data: 14.603 [ms]
[OGL LOG][Proc: 0]p: update_non_local_matrix_data: 0.074 [ms]
[OGL LOG][Proc: 0]p: regenerate_distributed_matrix: 46.45 [ms]
[OGL LOG][Proc: 0]p_matrix: call_update: 47.042 [ms]
[OGL LOG][Proc: 0]p_rhs: call_update: 4.232 [ms]
[OGL LOG][Proc: 0]p: init_precond: 0.06 [ms]
[OGL LOG][StoppingCriterion.H:237] Creating stopping criterion with minIter 886 frequency 9
[OGL LOG][Proc: 0]p: generate_solver: 0.002 [ms]
[OGL LOG][Proc: 0]p: solve: 2308.93 [ms]
[OGL LOG][Proc: 0]p: copy_x_back: 1.398 [ms]
[OGL LOG][lduLduBase.H:330] 
Statistics:
	Time per iteration: 1572 [mu s]
	Time per residual norm calculation: 407.000000 [mu s]
	Time per iteration and DOF: 0.196500 [ns]
	Retrieve results bandwidth 1.430000 [GByte/s]
[OGL LOG][Proc: 0]p: solve_multi_gpu: 2363.17 [ms]
nonehipGKOCG:  Solving for p, Initial residual = 0.163355, Final residual = 9.84263e-05, No Iterations 1468
[INFO] SolveP: 2380.37 [ms]
time step continuity errors : sum local = 4.05374e-09, global = -5.06092e-21, cumulative = -1.0888e-19
[INFO] ContinuityError: 5.657 [ms]
[INFO] CorrectBoundary: 0.329 [ms]
[INFO] PISOStep: 2500.55 [ms]
[INFO] TimeStep: 5504.31 [ms]
ExecutionTime = 104.95 s  ClockTime = 106 s

End

Finalising parallel run
