/*---------------------------------------------------------------------------*\
| =========                 |                                                 |
| \\      /  F ield         | OpenFOAM: The Open Source CFD Toolbox           |
|  \\    /   O peration     | Version:  2306                                  |
|   \\  /    A nd           | Website:  www.openfoam.com                      |
|    \\/     M anipulation  |                                                 |
\*---------------------------------------------------------------------------*/
Build  : a6e826bd55-20230630 OPENFOAM=2306 version=v2306
Arch   : "LSB;label=32;scalar=64"
Exec   : icoFoam -parallel -case /tmp/lidDrivenCavity/workspace/95ddebb02aa760e7ce7d6d621b228b40/case
Date   : Jan 09 2024
Time   : 22:36:46
Host   : nla-gpu2.ianm.kit.edu
PID    : 402222
I/O    : uncollated
Case   : /tmp/lidDrivenCavity/workspace/95ddebb02aa760e7ce7d6d621b228b40/case
nProcs : 8
Hosts  :
(
    (nla-gpu2.ianm.kit.edu 8)
)
Pstream initialized with:
    floatTransfer      : false
    nProcsSimpleSum    : 0
    nonBlockingExchange: 0 (tuning: 0)
    exchange algorithm : -1
    commsType          : nonBlocking
    polling iterations : 0
trapFpe: Floating point exception trapping enabled (FOAM_SIGFPE).
fileModificationChecking : Monitoring run-time modified files using timeStampMaster (fileModificationSkew 5, maxFileModificationPolls 20)
allowSystemOperations : Allowing user-supplied system call operations

// * * * * * * * * * * * * * * * * * * * * * * * * * * * * * * * * * * * * * //
Create time

--> FOAM Warning : 
    From void* Foam::dlLibraryTable::openLibrary(const Foam::fileName&, bool)
    in file db/dynamicLibrary/dlLibraryTable/dlLibraryTable.C at line 188
    Could not load "libpetscFoam.so"
libpetscFoam.so: cannot open shared object file: No such file or directory
Create mesh for time = 0


PISO: Operating solver in PISO mode

Reading transportProperties

Reading field p

Reading field U

Reading/calculating face flux field phi


Starting time loop

Time = 0.000166

Courant Number mean: 8.14055e-18 max: 3.11001e-14
[INFO] MatrixAssemblyU: 353.209 [ms]
DILUPBiCGStab:  Solving for Ux, Initial residual = 1, Final residual = 0.0159896, No Iterations 5
DILUPBiCGStab:  Solving for Uy:  solution singularity
DILUPBiCGStab:  Solving for Uz:  solution singularity
[INFO] MomentumPredictor: 1582.59 [ms]
[INFO] MatrixAssemblyPI: 352.445 [ms]
[INFO] AdjustPhi: 20.896 [ms]
[INFO] ConstrainPressure: 0.013 [ms]
[INFO] MatrixAssemblyPII: 99.184 [ms]
nonePCG:  Solving for p, Initial residual = 1, Final residual = 9.82344e-05, No Iterations 2430
[INFO] SolveP: 111131 [ms]
time step continuity errors : sum local = 3.97604e-09, global = 2.15512e-21, cumulative = 2.15512e-21
[INFO] ContinuityError: 47.112 [ms]
[INFO] CorrectBoundary: 0.975 [ms]
[INFO] PISOStep: 111764 [ms]
[INFO] MatrixAssemblyPI: 336.462 [ms]
[INFO] AdjustPhi: 20.097 [ms]
[INFO] ConstrainPressure: 0.004 [ms]
[INFO] MatrixAssemblyPII: 99.687 [ms]
nonePCG:  Solving for p, Initial residual = 0.809676, Final residual = 9.80752e-05, No Iterations 2416
[INFO] SolveP: 109204 [ms]
time step continuity errors : sum local = 4.84397e-09, global = 4.19581e-22, cumulative = 2.5747e-21
[INFO] ContinuityError: 47.823 [ms]
[INFO] CorrectBoundary: 1.486 [ms]
[INFO] PISOStep: 109821 [ms]
[INFO] TimeStep: 223572 [ms]
ExecutionTime = 224.24 s  ClockTime = 226 s

Time = 0.000332

Courant Number mean: 0.0128497 max: 0.426563
[INFO] MatrixAssemblyU: 262.448 [ms]
DILUPBiCGStab:  Solving for Ux, Initial residual = 0.116942, Final residual = 0.00923014, No Iterations 5
DILUPBiCGStab:  Solving for Uy, Initial residual = 0.459876, Final residual = 0.0300233, No Iterations 5
DILUPBiCGStab:  Solving for Uz, Initial residual = 0.995323, Final residual = 0.0718333, No Iterations 5
[INFO] MomentumPredictor: 2968.08 [ms]
[INFO] MatrixAssemblyPI: 343.749 [ms]
[INFO] AdjustPhi: 18.366 [ms]
[INFO] ConstrainPressure: 0.005 [ms]
[INFO] MatrixAssemblyPII: 98.433 [ms]
nonePCG:  Solving for p, Initial residual = 0.878211, Final residual = 9.87436e-05, No Iterations 2380
[INFO] SolveP: 107953 [ms]
time step continuity errors : sum local = 9.38075e-09, global = -6.73039e-22, cumulative = 1.90166e-21
[INFO] ContinuityError: 47.666 [ms]
[INFO] CorrectBoundary: 1.19 [ms]
[INFO] PISOStep: 108578 [ms]
[INFO] MatrixAssemblyPI: 337.452 [ms]
[INFO] AdjustPhi: 19.919 [ms]
[INFO] ConstrainPressure: 0.004 [ms]
[INFO] MatrixAssemblyPII: 98.907 [ms]
nonePCG:  Solving for p, Initial residual = 0.826379, Final residual = 9.90106e-05, No Iterations 2376
[INFO] SolveP: 107385 [ms]
time step continuity errors : sum local = 9.57983e-09, global = 7.88115e-22, cumulative = 2.68978e-21
[INFO] ContinuityError: 49.476 [ms]
[INFO] CorrectBoundary: 1.171 [ms]
[INFO] PISOStep: 108008 [ms]
[INFO] TimeStep: 219861 [ms]
ExecutionTime = 442.8 s  ClockTime = 446 s

Time = 0.000498

Courant Number mean: 0.0198261 max: 0.491805
[INFO] MatrixAssemblyU: 261.573 [ms]
DILUPBiCGStab:  Solving for Ux, Initial residual = 0.0544583, Final residual = 0.00348872, No Iterations 5
DILUPBiCGStab:  Solving for Uy, Initial residual = 0.226377, Final residual = 0.0156762, No Iterations 5
DILUPBiCGStab:  Solving for Uz, Initial residual = 0.85496, Final residual = 0.0552657, No Iterations 5
[INFO] MomentumPredictor: 2969.42 [ms]
[INFO] MatrixAssemblyPI: 344.215 [ms]
[INFO] AdjustPhi: 20.041 [ms]
[INFO] ConstrainPressure: 0.004 [ms]
[INFO] MatrixAssemblyPII: 98.737 [ms]
nonePCG:  Solving for p, Initial residual = 0.913759, Final residual = 9.85169e-05, No Iterations 1154
[INFO] SolveP: 52607.1 [ms]
time step continuity errors : sum local = 1.07584e-08, global = 5.00365e-22, cumulative = 3.19014e-21
[INFO] ContinuityError: 49.908 [ms]
[INFO] CorrectBoundary: 1.112 [ms]
[INFO] PISOStep: 53234.2 [ms]
[INFO] MatrixAssemblyPI: 338.465 [ms]
[INFO] AdjustPhi: 20.4 [ms]
[INFO] ConstrainPressure: 0.004 [ms]
[INFO] MatrixAssemblyPII: 98.916 [ms]
nonePCG:  Solving for p, Initial residual = 0.882699, Final residual = 9.95988e-05, No Iterations 1150
[INFO] SolveP: 52367.6 [ms]
time step continuity errors : sum local = 1.03944e-08, global = 1.51133e-22, cumulative = 3.34128e-21
[INFO] ContinuityError: 47.282 [ms]
[INFO] CorrectBoundary: 0.972 [ms]
[INFO] PISOStep: 52986.9 [ms]
[INFO] TimeStep: 109500 [ms]
ExecutionTime = 551.58 s  ClockTime = 555 s

Time = 0.000664

Courant Number mean: 0.0239197 max: 0.47201
[INFO] MatrixAssemblyU: 261.907 [ms]
DILUPBiCGStab:  Solving for Ux, Initial residual = 0.0384983, Final residual = 0.00279685, No Iterations 5
DILUPBiCGStab:  Solving for Uy, Initial residual = 0.174095, Final residual = 0.0125984, No Iterations 5
DILUPBiCGStab:  Solving for Uz, Initial residual = 0.730708, Final residual = 0.0388502, No Iterations 5
[INFO] MomentumPredictor: 2969.5 [ms]
[INFO] MatrixAssemblyPI: 342.279 [ms]
[INFO] AdjustPhi: 20.667 [ms]
[INFO] ConstrainPressure: 0.004 [ms]
[INFO] MatrixAssemblyPII: 98.408 [ms]
nonePCG:  Solving for p, Initial residual = 0.890301, Final residual = 9.95338e-05, No Iterations 1295
[INFO] SolveP: 59047 [ms]
time step continuity errors : sum local = 1.19009e-08, global = 2.94603e-22, cumulative = 3.63588e-21
[INFO] ContinuityError: 48.54 [ms]
[INFO] CorrectBoundary: 1.068 [ms]
[INFO] PISOStep: 59670 [ms]
[INFO] MatrixAssemblyPI: 342.374 [ms]
[INFO] AdjustPhi: 18.947 [ms]
[INFO] ConstrainPressure: 0.004 [ms]
[INFO] MatrixAssemblyPII: 99.286 [ms]
nonePCG:  Solving for p, Initial residual = 0.83026, Final residual = 9.97055e-05, No Iterations 1155
[INFO] SolveP: 52466 [ms]
time step continuity errors : sum local = 1.15361e-08, global = 1.8404e-21, cumulative = 5.47628e-21
[INFO] ContinuityError: 50.365 [ms]
[INFO] CorrectBoundary: 0.874 [ms]
[INFO] PISOStep: 53096.5 [ms]
[INFO] TimeStep: 116042 [ms]
ExecutionTime = 666.94 s  ClockTime = 671 s

Time = 0.00083

Courant Number mean: 0.0274473 max: 0.504973
[INFO] MatrixAssemblyU: 261.891 [ms]
DILUPBiCGStab:  Solving for Ux, Initial residual = 0.0323997, Final residual = 0.00238113, No Iterations 5
DILUPBiCGStab:  Solving for Uy, Initial residual = 0.129649, Final residual = 0.0105525, No Iterations 5
DILUPBiCGStab:  Solving for Uz, Initial residual = 0.676359, Final residual = 0.0332292, No Iterations 5
[INFO] MomentumPredictor: 2955.59 [ms]
[INFO] MatrixAssemblyPI: 343.66 [ms]
[INFO] AdjustPhi: 20.002 [ms]
[INFO] ConstrainPressure: 0.004 [ms]
[INFO] MatrixAssemblyPII: 98.46 [ms]
nonePCG:  Solving for p, Initial residual = 0.910495, Final residual = 9.99427e-05, No Iterations 2375
[INFO] SolveP: 107975 [ms]
time step continuity errors : sum local = 1.10228e-08, global = 3.38387e-22, cumulative = 5.81467e-21
[INFO] ContinuityError: 48.734 [ms]
[INFO] CorrectBoundary: 1.115 [ms]
[INFO] PISOStep: 108602 [ms]
[INFO] MatrixAssemblyPI: 336.63 [ms]
[INFO] AdjustPhi: 21.19 [ms]
[INFO] ConstrainPressure: 0.005 [ms]
[INFO] MatrixAssemblyPII: 99.044 [ms]
nonePCG:  Solving for p, Initial residual = 0.872711, Final residual = 9.95818e-05, No Iterations 2373
[INFO] SolveP: 107969 [ms]
time step continuity errors : sum local = 1.08419e-08, global = 1.71443e-21, cumulative = 7.5291e-21
[INFO] ContinuityError: 48.486 [ms]
[INFO] CorrectBoundary: 0.991 [ms]
[INFO] PISOStep: 108589 [ms]
[INFO] TimeStep: 220452 [ms]
ExecutionTime = 886.11 s  ClockTime = 892 s

Time = 0.000996

Courant Number mean: 0.0301893 max: 0.478379
[INFO] MatrixAssemblyU: 262.596 [ms]
DILUPBiCGStab:  Solving for Ux, Initial residual = 0.0270645, Final residual = 0.0021372, No Iterations 5
DILUPBiCGStab:  Solving for Uy, Initial residual = 0.111902, Final residual = 0.00833951, No Iterations 5
DILUPBiCGStab:  Solving for Uz, Initial residual = 0.579751, Final residual = 0.0255716, No Iterations 5
[INFO] MomentumPredictor: 2971.98 [ms]
[INFO] MatrixAssemblyPI: 343.388 [ms]
[INFO] AdjustPhi: 19.068 [ms]
[INFO] ConstrainPressure: 0.005 [ms]
[INFO] MatrixAssemblyPII: 98.902 [ms]
nonePCG:  Solving for p, Initial residual = 0.887872, Final residual = 9.99368e-05, No Iterations 2372
[INFO] SolveP: 107977 [ms]
time step continuity errors : sum local = 1.12463e-08, global = -1.09995e-22, cumulative = 7.41911e-21
[INFO] ContinuityError: 47.828 [ms]
[INFO] CorrectBoundary: 1.105 [ms]
[INFO] PISOStep: 108600 [ms]
[INFO] MatrixAssemblyPI: 339.78 [ms]
[INFO] AdjustPhi: 22.117 [ms]
[INFO] ConstrainPressure: 0.004 [ms]
[INFO] MatrixAssemblyPII: 99.057 [ms]
nonePCG:  Solving for p, Initial residual = 0.824763, Final residual = 9.98375e-05, No Iterations 2369
[INFO] SolveP: 108039 [ms]
time step continuity errors : sum local = 1.14063e-08, global = 9.87627e-22, cumulative = 8.40674e-21
[INFO] ContinuityError: 48.346 [ms]
[INFO] CorrectBoundary: 1.207 [ms]
[INFO] PISOStep: 108662 [ms]
[INFO] TimeStep: 220544 [ms]
ExecutionTime = 1105.23 s  ClockTime = 1112 s

Time = 0.001162

Courant Number mean: 0.0326683 max: 0.511865
[INFO] MatrixAssemblyU: 263.298 [ms]
DILUPBiCGStab:  Solving for Ux, Initial residual = 0.0245518, Final residual = 0.00196824, No Iterations 5
DILUPBiCGStab:  Solving for Uy, Initial residual = 0.0982971, Final residual = 0.00769247, No Iterations 5
DILUPBiCGStab:  Solving for Uz, Initial residual = 0.553273, Final residual = 0.0228137, No Iterations 5
[INFO] MomentumPredictor: 2979.23 [ms]
[INFO] MatrixAssemblyPI: 346.076 [ms]
[INFO] AdjustPhi: 19.074 [ms]
[INFO] ConstrainPressure: 0.003 [ms]
[INFO] MatrixAssemblyPII: 98.943 [ms]
nonePCG:  Solving for p, Initial residual = 0.905824, Final residual = 9.93408e-05, No Iterations 2290
[INFO] SolveP: 104548 [ms]
time step continuity errors : sum local = 1.09008e-08, global = 6.03881e-22, cumulative = 9.01062e-21
[INFO] ContinuityError: 50.664 [ms]
[INFO] CorrectBoundary: 0.908 [ms]
[INFO] PISOStep: 105176 [ms]
[INFO] MatrixAssemblyPI: 339.166 [ms]
[INFO] AdjustPhi: 20.034 [ms]
[INFO] ConstrainPressure: 0.004 [ms]
[INFO] MatrixAssemblyPII: 99.32 [ms]
nonePCG:  Solving for p, Initial residual = 0.860988, Final residual = 9.88216e-05, No Iterations 2291
[INFO] SolveP: 104414 [ms]
time step continuity errors : sum local = 1.07253e-08, global = 1.11902e-21, cumulative = 1.01296e-20
[INFO] ContinuityError: 49.669 [ms]
[INFO] CorrectBoundary: 1.341 [ms]
[INFO] PISOStep: 105039 [ms]
[INFO] TimeStep: 213502 [ms]
ExecutionTime = 1317.36 s  ClockTime = 1326 s

Time = 0.001328

Courant Number mean: 0.034753 max: 0.481308
[INFO] MatrixAssemblyU: 262.329 [ms]
DILUPBiCGStab:  Solving for Ux, Initial residual = 0.0221229, Final residual = 0.00183354, No Iterations 5
DILUPBiCGStab:  Solving for Uy, Initial residual = 0.0870764, Final residual = 0.00645291, No Iterations 5
DILUPBiCGStab:  Solving for Uz, Initial residual = 0.510117, Final residual = 0.0204683, No Iterations 5
[INFO] MomentumPredictor: 2962.34 [ms]
[INFO] MatrixAssemblyPI: 344.273 [ms]
[INFO] AdjustPhi: 19.835 [ms]
[INFO] ConstrainPressure: 0.003 [ms]
[INFO] MatrixAssemblyPII: 98.363 [ms]
nonePCG:  Solving for p, Initial residual = 0.883753, Final residual = 9.95001e-05, No Iterations 2310
[INFO] SolveP: 105128 [ms]
time step continuity errors : sum local = 1.10888e-08, global = 1.34167e-22, cumulative = 1.02638e-20
[INFO] ContinuityError: 48.344 [ms]
[INFO] CorrectBoundary: 4.789 [ms]
[INFO] PISOStep: 105755 [ms]
[INFO] MatrixAssemblyPI: 340.789 [ms]
[INFO] AdjustPhi: 21.127 [ms]
[INFO] ConstrainPressure: 0.004 [ms]
[INFO] MatrixAssemblyPII: 99.404 [ms]
nonePCG:  Solving for p, Initial residual = 0.817909, Final residual = 9.8898e-05, No Iterations 2301
[INFO] SolveP: 104544 [ms]
time step continuity errors : sum local = 1.11738e-08, global = 3.60714e-22, cumulative = 1.06245e-20
[INFO] ContinuityError: 47.729 [ms]
[INFO] CorrectBoundary: 1.042 [ms]
[INFO] PISOStep: 105170 [ms]
[INFO] TimeStep: 214194 [ms]
ExecutionTime = 1530.3 s  ClockTime = 1540 s

Time = 0.001494

Courant Number mean: 0.0367021 max: 0.518002
[INFO] MatrixAssemblyU: 261.558 [ms]
DILUPBiCGStab:  Solving for Ux, Initial residual = 0.0205477, Final residual = 0.00171318, No Iterations 5
DILUPBiCGStab:  Solving for Uy, Initial residual = 0.0819388, Final residual = 0.00611195, No Iterations 5
DILUPBiCGStab:  Solving for Uz, Initial residual = 0.506094, Final residual = 0.0192312, No Iterations 5
[INFO] MomentumPredictor: 2967.36 [ms]
[INFO] MatrixAssemblyPI: 343.077 [ms]
[INFO] AdjustPhi: 21.231 [ms]
[INFO] ConstrainPressure: 0.003 [ms]
[INFO] MatrixAssemblyPII: 98.433 [ms]
nonePCG:  Solving for p, Initial residual = 0.901649, Final residual = 9.9114e-05, No Iterations 2091
[INFO] SolveP: 94747.7 [ms]
time step continuity errors : sum local = 1.08178e-08, global = 5.81757e-22, cumulative = 1.12063e-20
[INFO] ContinuityError: 50.706 [ms]
[INFO] CorrectBoundary: 1.04 [ms]
[INFO] PISOStep: 95375.1 [ms]
[INFO] MatrixAssemblyPI: 335.932 [ms]
[INFO] AdjustPhi: 19.954 [ms]
[INFO] ConstrainPressure: 0.004 [ms]
[INFO] MatrixAssemblyPII: 99.351 [ms]
nonePCG:  Solving for p, Initial residual = 0.85176, Final residual = 9.76707e-05, No Iterations 2081
[INFO] SolveP: 95148.5 [ms]
time step continuity errors : sum local = 1.05558e-08, global = 7.67711e-22, cumulative = 1.1974e-20
[INFO] ContinuityError: 50.413 [ms]
[INFO] CorrectBoundary: 0.946 [ms]
[INFO] PISOStep: 95769.1 [ms]
[INFO] TimeStep: 194417 [ms]
ExecutionTime = 1723.59 s  ClockTime = 1734 s

Time = 0.00166

Courant Number mean: 0.0383957 max: 0.483672
[INFO] MatrixAssemblyU: 262.655 [ms]
DILUPBiCGStab:  Solving for Ux, Initial residual = 0.0193393, Final residual = 0.00162672, No Iterations 5
DILUPBiCGStab:  Solving for Uy, Initial residual = 0.0736171, Final residual = 0.00529595, No Iterations 5
DILUPBiCGStab:  Solving for Uz, Initial residual = 0.485034, Final residual = 0.0184753, No Iterations 5
[INFO] MomentumPredictor: 2966.13 [ms]
[INFO] MatrixAssemblyPI: 343.131 [ms]
[INFO] AdjustPhi: 19.139 [ms]
[INFO] ConstrainPressure: 0.004 [ms]
[INFO] MatrixAssemblyPII: 98.925 [ms]
nonePCG:  Solving for p, Initial residual = 0.882647, Final residual = 9.94273e-05, No Iterations 2298
[INFO] SolveP: 104502 [ms]
time step continuity errors : sum local = 1.12002e-08, global = 1.63823e-21, cumulative = 1.36122e-20
[INFO] ContinuityError: 50.649 [ms]
[INFO] CorrectBoundary: 0.993 [ms]
[INFO] PISOStep: 105127 [ms]
[INFO] MatrixAssemblyPI: 337.152 [ms]
[INFO] AdjustPhi: 19.674 [ms]
[INFO] ConstrainPressure: 0.003 [ms]
[INFO] MatrixAssemblyPII: 99.321 [ms]
nonePCG:  Solving for p, Initial residual = 0.813519, Final residual = 9.74232e-05, No Iterations 2296
[INFO] SolveP: 104684 [ms]
time step continuity errors : sum local = 1.11122e-08, global = 7.5259e-22, cumulative = 1.43648e-20
[INFO] ContinuityError: 49.891 [ms]
[INFO] CorrectBoundary: 1.008 [ms]
[INFO] PISOStep: 105303 [ms]
[INFO] TimeStep: 213703 [ms]
ExecutionTime = 1935.9 s  ClockTime = 1948 s

Time = 0.001826

Courant Number mean: 0.0400178 max: 0.524624
[INFO] MatrixAssemblyU: 263.255 [ms]
DILUPBiCGStab:  Solving for Ux, Initial residual = 0.0181679, Final residual = 0.00152144, No Iterations 5
DILUPBiCGStab:  Solving for Uy, Initial residual = 0.0719962, Final residual = 0.0051159, No Iterations 5
DILUPBiCGStab:  Solving for Uz, Initial residual = 0.486109, Final residual = 0.0172525, No Iterations 5
[INFO] MomentumPredictor: 2958.33 [ms]
[INFO] MatrixAssemblyPI: 344.391 [ms]
[INFO] AdjustPhi: 18.768 [ms]
[INFO] ConstrainPressure: 0.004 [ms]
[INFO] MatrixAssemblyPII: 99.136 [ms]
nonePCG:  Solving for p, Initial residual = 0.901648, Final residual = 9.8301e-05, No Iterations 2295
[INFO] SolveP: 104866 [ms]
time step continuity errors : sum local = 1.1012e-08, global = 2.56636e-21, cumulative = 1.69312e-20
[INFO] ContinuityError: 46.926 [ms]
[INFO] CorrectBoundary: 4.42 [ms]
[INFO] PISOStep: 105492 [ms]
[INFO] MatrixAssemblyPI: 336.774 [ms]
[INFO] AdjustPhi: 19.181 [ms]
[INFO] ConstrainPressure: 0.003 [ms]
[INFO] MatrixAssemblyPII: 99.41 [ms]
nonePCG:  Solving for p, Initial residual = 0.847158, Final residual = 9.94775e-05, No Iterations 2291
[INFO] SolveP: 104228 [ms]
time step continuity errors : sum local = 1.10502e-08, global = 1.00591e-21, cumulative = 1.79371e-20
[INFO] ContinuityError: 47.4 [ms]
[INFO] CorrectBoundary: 2.456 [ms]
[INFO] PISOStep: 104846 [ms]
[INFO] TimeStep: 213607 [ms]
ExecutionTime = 2148.13 s  ClockTime = 2162 s

Time = 0.001992

Courant Number mean: 0.0414491 max: 0.486754
[INFO] MatrixAssemblyU: 266.616 [ms]
DILUPBiCGStab:  Solving for Ux, Initial residual = 0.0175751, Final residual = 0.0014694, No Iterations 5
DILUPBiCGStab:  Solving for Uy, Initial residual = 0.065524, Final residual = 0.00449848, No Iterations 5
DILUPBiCGStab:  Solving for Uz, Initial residual = 0.471072, Final residual = 0.0165807, No Iterations 5
[INFO] MomentumPredictor: 2953.59 [ms]
[INFO] MatrixAssemblyPI: 342.589 [ms]
[INFO] AdjustPhi: 29.91 [ms]
[INFO] ConstrainPressure: 0.004 [ms]
[INFO] MatrixAssemblyPII: 98.645 [ms]
nonePCG:  Solving for p, Initial residual = 0.884164, Final residual = 9.89604e-05, No Iterations 2204
[INFO] SolveP: 99731.4 [ms]
time step continuity errors : sum local = 1.1523e-08, global = 7.6061e-22, cumulative = 1.86977e-20
[INFO] ContinuityError: 48.272 [ms]
[INFO] CorrectBoundary: 0.94 [ms]
[INFO] PISOStep: 100363 [ms]
[INFO] MatrixAssemblyPI: 341.138 [ms]
[INFO] AdjustPhi: 22.823 [ms]
[INFO] ConstrainPressure: 0.004 [ms]
[INFO] MatrixAssemblyPII: 99.364 [ms]
nonePCG:  Solving for p, Initial residual = 0.813621, Final residual = 9.97689e-05, No Iterations 2216
[INFO] SolveP: 100627 [ms]
time step continuity errors : sum local = 1.17468e-08, global = 5.98914e-22, cumulative = 1.92966e-20
[INFO] ContinuityError: 47.448 [ms]
[INFO] CorrectBoundary: 0.88 [ms]
[INFO] PISOStep: 101254 [ms]
[INFO] TimeStep: 204883 [ms]
ExecutionTime = 2351.81 s  ClockTime = 2366 s

Time = 0.002158

Courant Number mean: 0.0428475 max: 0.532249
[INFO] MatrixAssemblyU: 262.083 [ms]
DILUPBiCGStab:  Solving for Ux, Initial residual = 0.0166424, Final residual = 0.00136959, No Iterations 5
DILUPBiCGStab:  Solving for Uy, Initial residual = 0.0655704, Final residual = 0.00442788, No Iterations 5
DILUPBiCGStab:  Solving for Uz, Initial residual = 0.479109, Final residual = 0.0163706, No Iterations 5
[INFO] MomentumPredictor: 2962.71 [ms]
[INFO] MatrixAssemblyPI: 343.49 [ms]
[INFO] AdjustPhi: 20.062 [ms]
[INFO] ConstrainPressure: 0.004 [ms]
[INFO] MatrixAssemblyPII: 99.511 [ms]
nonePCG:  Solving for p, Initial residual = 0.902378, Final residual = 9.71609e-05, No Iterations 2293
[INFO] SolveP: 104334 [ms]
time step continuity errors : sum local = 1.13129e-08, global = 2.29195e-22, cumulative = 1.95258e-20
[INFO] ContinuityError: 49.123 [ms]
[INFO] CorrectBoundary: 0.889 [ms]
[INFO] PISOStep: 104959 [ms]
[INFO] MatrixAssemblyPI: 337.063 [ms]
[INFO] AdjustPhi: 23.348 [ms]
[INFO] ConstrainPressure: 0.004 [ms]
[INFO] MatrixAssemblyPII: 98.925 [ms]
nonePCG:  Solving for p, Initial residual = 0.84428, Final residual = 9.77487e-05, No Iterations 2291
[INFO] SolveP: 104847 [ms]
time step continuity errors : sum local = 1.13018e-08, global = 1.21783e-21, cumulative = 2.07436e-20
[INFO] ContinuityError: 50.585 [ms]
[INFO] CorrectBoundary: 0.923 [ms]
[INFO] PISOStep: 105470 [ms]
[INFO] TimeStep: 213699 [ms]
ExecutionTime = 2564.28 s  ClockTime = 2580 s

Time = 0.002324

Courant Number mean: 0.0440892 max: 0.48979
[INFO] MatrixAssemblyU: 262.487 [ms]
DILUPBiCGStab:  Solving for Ux, Initial residual = 0.016407, Final residual = 0.00134431, No Iterations 5
DILUPBiCGStab:  Solving for Uy, Initial residual = 0.0604387, Final residual = 0.00392988, No Iterations 5
DILUPBiCGStab:  Solving for Uz, Initial residual = 0.469343, Final residual = 0.0157707, No Iterations 5
[INFO] MomentumPredictor: 2964.81 [ms]
[INFO] MatrixAssemblyPI: 343.337 [ms]
[INFO] AdjustPhi: 19.677 [ms]
[INFO] ConstrainPressure: 0.004 [ms]
[INFO] MatrixAssemblyPII: 98.893 [ms]
nonePCG:  Solving for p, Initial residual = 0.886501, Final residual = 9.9739e-05, No Iterations 2294
[INFO] SolveP: 104332 [ms]
time step continuity errors : sum local = 1.20893e-08, global = -9.18746e-22, cumulative = 1.98249e-20
[INFO] ContinuityError: 47.012 [ms]
[INFO] CorrectBoundary: 1.218 [ms]
[INFO] PISOStep: 104955 [ms]
[INFO] MatrixAssemblyPI: 337.003 [ms]
[INFO] AdjustPhi: 20.476 [ms]
[INFO] ConstrainPressure: 0.003 [ms]
[INFO] MatrixAssemblyPII: 98.91 [ms]
nonePCG:  Solving for p, Initial residual = 0.814789, Final residual = 9.7198e-05, No Iterations 2292
[INFO] SolveP: 104572 [ms]
time step continuity errors : sum local = 1.18964e-08, global = -9.73765e-22, cumulative = 1.88511e-20
[INFO] ContinuityError: 48.356 [ms]
[INFO] CorrectBoundary: 1.103 [ms]
[INFO] PISOStep: 105190 [ms]
[INFO] TimeStep: 213417 [ms]
ExecutionTime = 2776.32 s  ClockTime = 2794 s

Time = 0.00249

Courant Number mean: 0.0453248 max: 0.540991
[INFO] MatrixAssemblyU: 263.142 [ms]
DILUPBiCGStab:  Solving for Ux, Initial residual = 0.0156592, Final residual = 0.00124705, No Iterations 5
DILUPBiCGStab:  Solving for Uy, Initial residual = 0.0613192, Final residual = 0.0039275, No Iterations 5
DILUPBiCGStab:  Solving for Uz, Initial residual = 0.480123, Final residual = 0.015756, No Iterations 5
[INFO] MomentumPredictor: 2966.69 [ms]
[INFO] MatrixAssemblyPI: 344.181 [ms]
[INFO] AdjustPhi: 19.255 [ms]
[INFO] ConstrainPressure: 0.004 [ms]
[INFO] MatrixAssemblyPII: 98.925 [ms]
nonePCG:  Solving for p, Initial residual = 0.903213, Final residual = 9.60224e-05, No Iterations 2292
[INFO] SolveP: 104616 [ms]
time step continuity errors : sum local = 1.16836e-08, global = 7.75045e-22, cumulative = 1.96262e-20
[INFO] ContinuityError: 47.06 [ms]
[INFO] CorrectBoundary: 1.066 [ms]
[INFO] PISOStep: 105239 [ms]
[INFO] MatrixAssemblyPI: 337.293 [ms]
[INFO] AdjustPhi: 19.465 [ms]
[INFO] ConstrainPressure: 0.004 [ms]
[INFO] MatrixAssemblyPII: 99.058 [ms]
nonePCG:  Solving for p, Initial residual = 0.842128, Final residual = 9.88017e-05, No Iterations 2289
[INFO] SolveP: 104536 [ms]
time step continuity errors : sum local = 1.19539e-08, global = 5.00403e-22, cumulative = 2.01266e-20
[INFO] ContinuityError: 47.767 [ms]
[INFO] CorrectBoundary: 0.889 [ms]
[INFO] PISOStep: 105154 [ms]
[INFO] TimeStep: 213667 [ms]
ExecutionTime = 2988.62 s  ClockTime = 3007 s

Time = 0.002656

Courant Number mean: 0.0464224 max: 0.492863
[INFO] MatrixAssemblyU: 261.733 [ms]
DILUPBiCGStab:  Solving for Ux, Initial residual = 0.0156463, Final residual = 0.00124142, No Iterations 5
DILUPBiCGStab:  Solving for Uy, Initial residual = 0.0572895, Final residual = 0.00351466, No Iterations 5
DILUPBiCGStab:  Solving for Uz, Initial residual = 0.474109, Final residual = 0.0154066, No Iterations 5
[INFO] MomentumPredictor: 2970.34 [ms]
[INFO] MatrixAssemblyPI: 342.632 [ms]
[INFO] AdjustPhi: 20.643 [ms]
[INFO] ConstrainPressure: 0.004 [ms]
[INFO] MatrixAssemblyPII: 98.77 [ms]
nonePCG:  Solving for p, Initial residual = 0.889509, Final residual = 9.76852e-05, No Iterations 2295
[INFO] SolveP: 104232 [ms]
time step continuity errors : sum local = 1.23644e-08, global = 2.3156e-21, cumulative = 2.24422e-20
[INFO] ContinuityError: 47.823 [ms]
[INFO] CorrectBoundary: 1.402 [ms]
[INFO] PISOStep: 104854 [ms]
[INFO] MatrixAssemblyPI: 340.087 [ms]
[INFO] AdjustPhi: 17.97 [ms]
[INFO] ConstrainPressure: 0.004 [ms]
[INFO] MatrixAssemblyPII: 99.226 [ms]
nonePCG:  Solving for p, Initial residual = 0.816841, Final residual = 9.93577e-05, No Iterations 2291
[INFO] SolveP: 104435 [ms]
time step continuity errors : sum local = 1.26827e-08, global = 1.3471e-21, cumulative = 2.37893e-20
[INFO] ContinuityError: 47.268 [ms]
[INFO] CorrectBoundary: 0.882 [ms]
[INFO] PISOStep: 105058 [ms]
[INFO] TimeStep: 213189 [ms]
ExecutionTime = 3200.55 s  ClockTime = 3220 s

Time = 0.002822

Courant Number mean: 0.0475332 max: 0.551146
[INFO] MatrixAssemblyU: 261.722 [ms]
DILUPBiCGStab:  Solving for Ux, Initial residual = 0.0150695, Final residual = 0.00114941, No Iterations 5
DILUPBiCGStab:  Solving for Uy, Initial residual = 0.0586249, Final residual = 0.00355394, No Iterations 5
DILUPBiCGStab:  Solving for Uz, Initial residual = 0.485632, Final residual = 0.0154586, No Iterations 5
[INFO] MomentumPredictor: 2962.82 [ms]
[INFO] MatrixAssemblyPI: 343.215 [ms]
[INFO] AdjustPhi: 19.114 [ms]
[INFO] ConstrainPressure: 0.003 [ms]
[INFO] MatrixAssemblyPII: 98.561 [ms]
nonePCG:  Solving for p, Initial residual = 0.904764, Final residual = 9.98774e-05, No Iterations 2290
[INFO] SolveP: 103983 [ms]
time step continuity errors : sum local = 1.27467e-08, global = 1.18611e-21, cumulative = 2.49754e-20
[INFO] ContinuityError: 47.894 [ms]
[INFO] CorrectBoundary: 1.024 [ms]
[INFO] PISOStep: 104604 [ms]
[INFO] MatrixAssemblyPI: 337.011 [ms]
[INFO] AdjustPhi: 20.938 [ms]
[INFO] ConstrainPressure: 0.004 [ms]
[INFO] MatrixAssemblyPII: 99.273 [ms]
nonePCG:  Solving for p, Initial residual = 0.840598, Final residual = 9.75943e-05, No Iterations 2289
[INFO] SolveP: 104327 [ms]
time step continuity errors : sum local = 1.24003e-08, global = 8.73227e-22, cumulative = 2.58486e-20
[INFO] ContinuityError: 48.289 [ms]
[INFO] CorrectBoundary: 0.925 [ms]
[INFO] PISOStep: 104946 [ms]
[INFO] TimeStep: 212819 [ms]
ExecutionTime = 3412.12 s  ClockTime = 3433 s

Time = 0.002988

Courant Number mean: 0.0485163 max: 0.496214
[INFO] MatrixAssemblyU: 262.137 [ms]
DILUPBiCGStab:  Solving for Ux, Initial residual = 0.0151953, Final residual = 0.00115571, No Iterations 5
DILUPBiCGStab:  Solving for Uy, Initial residual = 0.0555403, Final residual = 0.00320621, No Iterations 5
DILUPBiCGStab:  Solving for Uz, Initial residual = 0.481983, Final residual = 0.0152246, No Iterations 5
[INFO] MomentumPredictor: 2963.1 [ms]
[INFO] MatrixAssemblyPI: 343.251 [ms]
[INFO] AdjustPhi: 19.668 [ms]
[INFO] ConstrainPressure: 0.004 [ms]
[INFO] MatrixAssemblyPII: 99 [ms]
nonePCG:  Solving for p, Initial residual = 0.894236, Final residual = 9.90605e-05, No Iterations 2295
[INFO] SolveP: 104424 [ms]
time step continuity errors : sum local = 1.31482e-08, global = 8.10574e-22, cumulative = 2.66592e-20
[INFO] ContinuityError: 46.895 [ms]
[INFO] CorrectBoundary: 1.465 [ms]
[INFO] PISOStep: 105047 [ms]
[INFO] MatrixAssemblyPI: 337.342 [ms]
[INFO] AdjustPhi: 23.359 [ms]
[INFO] ConstrainPressure: 0.004 [ms]
[INFO] MatrixAssemblyPII: 99.762 [ms]
nonePCG:  Solving for p, Initial residual = 0.82013, Final residual = 9.74859e-05, No Iterations 2292
[INFO] SolveP: 104653 [ms]
time step continuity errors : sum local = 1.30347e-08, global = 4.36849e-22, cumulative = 2.7096e-20
[INFO] ContinuityError: 47.064 [ms]
[INFO] CorrectBoundary: 1.239 [ms]
[INFO] PISOStep: 105274 [ms]
[INFO] TimeStep: 213593 [ms]
ExecutionTime = 3624.34 s  ClockTime = 3647 s

Time = 0.003154

Courant Number mean: 0.0495292 max: 0.562887
[INFO] MatrixAssemblyU: 262.919 [ms]
DILUPBiCGStab:  Solving for Ux, Initial residual = 0.0147924, Final residual = 0.00107265, No Iterations 5
DILUPBiCGStab:  Solving for Uy, Initial residual = 0.0571508, Final residual = 0.00327106, No Iterations 5
DILUPBiCGStab:  Solving for Uz, Initial residual = 0.493722, Final residual = 0.0153135, No Iterations 5
[INFO] MomentumPredictor: 2959.28 [ms]
[INFO] MatrixAssemblyPI: 343.949 [ms]
[INFO] AdjustPhi: 18.815 [ms]
[INFO] ConstrainPressure: 0.004 [ms]
[INFO] MatrixAssemblyPII: 98.701 [ms]
nonePCG:  Solving for p, Initial residual = 0.907502, Final residual = 9.7653e-05, No Iterations 2295
[INFO] SolveP: 104712 [ms]
time step continuity errors : sum local = 1.31402e-08, global = 1.53541e-22, cumulative = 2.72496e-20
[INFO] ContinuityError: 46.773 [ms]
[INFO] CorrectBoundary: 1.086 [ms]
[INFO] PISOStep: 105335 [ms]
[INFO] MatrixAssemblyPI: 337.279 [ms]
[INFO] AdjustPhi: 21.723 [ms]
[INFO] ConstrainPressure: 0.003 [ms]
[INFO] MatrixAssemblyPII: 99.215 [ms]
nonePCG:  Solving for p, Initial residual = 0.840512, Final residual = 9.82936e-05, No Iterations 2292
[INFO] SolveP: 104819 [ms]
time step continuity errors : sum local = 1.31824e-08, global = 1.14795e-21, cumulative = 2.83975e-20
[INFO] ContinuityError: 48.003 [ms]
[INFO] CorrectBoundary: 0.953 [ms]
[INFO] PISOStep: 105439 [ms]
[INFO] TimeStep: 214041 [ms]
ExecutionTime = 3837 s  ClockTime = 3861 s

Time = 0.00332

Courant Number mean: 0.0504191 max: 0.499826
[INFO] MatrixAssemblyU: 262.486 [ms]
DILUPBiCGStab:  Solving for Ux, Initial residual = 0.0150213, Final residual = 0.00108489, No Iterations 5
DILUPBiCGStab:  Solving for Uy, Initial residual = 0.0548406, Final residual = 0.00297807, No Iterations 5
DILUPBiCGStab:  Solving for Uz, Initial residual = 0.491914, Final residual = 0.0151562, No Iterations 5
[INFO] MomentumPredictor: 2959.86 [ms]
[INFO] MatrixAssemblyPI: 342.458 [ms]
[INFO] AdjustPhi: 21.268 [ms]
[INFO] ConstrainPressure: 0.004 [ms]
[INFO] MatrixAssemblyPII: 98.491 [ms]
nonePCG:  Solving for p, Initial residual = 0.899815, Final residual = 9.76217e-05, No Iterations 2296
[INFO] SolveP: 104295 [ms]
time step continuity errors : sum local = 1.36516e-08, global = -5.50153e-22, cumulative = 2.78474e-20
[INFO] ContinuityError: 49.799 [ms]
[INFO] CorrectBoundary: 0.98 [ms]
[INFO] PISOStep: 104920 [ms]
[INFO] MatrixAssemblyPI: 340.396 [ms]
[INFO] AdjustPhi: 20.467 [ms]
[INFO] ConstrainPressure: 0.004 [ms]
[INFO] MatrixAssemblyPII: 99.4 [ms]
nonePCG:  Solving for p, Initial residual = 0.824778, Final residual = 9.98899e-05, No Iterations 2292
[INFO] SolveP: 104457 [ms]
time step continuity errors : sum local = 1.4059e-08, global = 1.20118e-21, cumulative = 2.90485e-20
[INFO] ContinuityError: 47.401 [ms]
[INFO] CorrectBoundary: 0.877 [ms]
[INFO] PISOStep: 105081 [ms]
[INFO] TimeStep: 213268 [ms]
ExecutionTime = 4049.02 s  ClockTime = 4074 s

End

Finalising parallel run
