/*---------------------------------------------------------------------------*\
| =========                 |                                                 |
| \\      /  F ield         | OpenFOAM: The Open Source CFD Toolbox           |
|  \\    /   O peration     | Version:  v2106                                 |
|   \\  /    A nd           | Website:  www.openfoam.com                      |
|    \\/     M anipulation  |                                                 |
\*---------------------------------------------------------------------------*/
Build  : f815a12bba-20210902 OPENFOAM=2106
Arch   : "LSB;label=32;scalar=64"
Exec   : icoFoam -parallel -case /home/greole/data/code/exasim_project/micro_benchmarks/LidDrivenCavity3D/workspace/4b4111b4e79dac6580d9b464e40894b4/case
Date   : Mar 26 2023
Time   : 08:48:07
Host   : nla-gpu2.ianm.kit.edu
PID    : 108823
I/O    : uncollated
Case   : /home/greole/data/code/exasim_project/micro_benchmarks/LidDrivenCavity3D/workspace/4b4111b4e79dac6580d9b464e40894b4/case
nProcs : 8
Hosts  :
(
    (nla-gpu2.ianm.kit.edu 8)
)
Pstream initialized with:
    floatTransfer      : 0
    nProcsSimpleSum    : 0
    commsType          : nonBlocking
    polling iterations : 0
trapFpe: Floating point exception trapping enabled (FOAM_SIGFPE).
fileModificationChecking : Monitoring run-time modified files using timeStampMaster (fileModificationSkew 5, maxFileModificationPolls 20)
allowSystemOperations : Allowing user-supplied system call operations

// * * * * * * * * * * * * * * * * * * * * * * * * * * * * * * * * * * * * * //
Create time

--> FOAM Warning : 
    From void* Foam::dlLibraryTable::openLibrary(const Foam::fileName&, bool)
    in file db/dynamicLibrary/dlLibraryTable/dlLibraryTable.C at line 188
    Could not load "libpetscFoam.so"
libpetscFoam.so: cannot open shared object file: No such file or directory
--> FOAM Warning : 
    From virtual void Foam::Time::readDict()
    in file db/Time/TimeIO.C at line 411
    Reading "/home/greole/data/code/exasim_project/micro_benchmarks/LidDrivenCavity3D/workspace/4b4111b4e79dac6580d9b464e40894b4/case/system/controlDict" at line 17 to 47
    Disabled binary format compression (inefficient/ineffective)
Create mesh for time = 0


PISO: Operating solver in PISO mode

Reading transportProperties

Reading field p

Reading field U

Reading/calculating face flux field phi


Starting time loop

Time = 0.0005

Courant Number mean: 8.62851e-18 max: 8.67362e-15
[INFO] MatrixAssemblyU: 29.704 [ms]
DILUPBiCGStab:  Solving for Ux, Initial residual = 1, Final residual = 0.0025649, No Iterations 5
DILUPBiCGStab:  Solving for Uy:  solution singularity
DILUPBiCGStab:  Solving for Uz:  solution singularity
linear solve U 96.464 [ms]
[INFO] MomentumPredictor: 110.529 [ms]
[INFO] MatrixAssemblyPI: 33.473 [ms]
[INFO] AdjustPhi: 1.801 [ms]
[INFO] ConstrainPressure: 0.005 [ms]
[INFO] MatrixAssemblyPII: 11.265 [ms]
nonePCG:  Solving for p, Initial residual = 1, Final residual = 9.98826e-05, No Iterations 792
linear solve p 1346.3 [ms]
[INFO] SolveP: 1346.33 [ms]
time step continuity errors : sum local = 2.14463e-08, global = -2.0899e-21, cumulative = -2.0899e-21
[INFO] ContinuityError: 5.958 [ms]
[INFO] CorrectBoundary: 0.284 [ms]
[INFO] PISOStep: 1414.78 [ms]
[INFO] MatrixAssemblyPI: 30.684 [ms]
[INFO] AdjustPhi: 2.04 [ms]
[INFO] ConstrainPressure: 0.002 [ms]
[INFO] MatrixAssemblyPII: 9.798 [ms]
nonePCG:  Solving for p, Initial residual = 0.731052, Final residual = 9.84585e-05, No Iterations 781
linear solve p 1329.87 [ms]
[INFO] SolveP: 1329.91 [ms]
time step continuity errors : sum local = 2.79169e-08, global = -4.57941e-22, cumulative = -2.54785e-21
[INFO] ContinuityError: 3.474 [ms]
[INFO] CorrectBoundary: 0.859 [ms]
[INFO] PISOStep: 1391.12 [ms]
[INFO] TimeStep: 2952.57 [ms]
ExecutionTime = 3.23 s  ClockTime = 3 s

Time = 0.001

Courant Number mean: 0.0215341 max: 0.377097
[INFO] MatrixAssemblyU: 24.051 [ms]
DILUPBiCGStab:  Solving for Ux, Initial residual = 0.150351, Final residual = 0.00113128, No Iterations 5
DILUPBiCGStab:  Solving for Uy, Initial residual = 0.368162, Final residual = 0.00224404, No Iterations 5
DILUPBiCGStab:  Solving for Uz, Initial residual = 0.988636, Final residual = 0.00605697, No Iterations 5
linear solve U 167.657 [ms]
[INFO] MomentumPredictor: 180.171 [ms]
[INFO] MatrixAssemblyPI: 26.551 [ms]
[INFO] AdjustPhi: 5.239 [ms]
[INFO] ConstrainPressure: 0.002 [ms]
[INFO] MatrixAssemblyPII: 11.089 [ms]
nonePCG:  Solving for p, Initial residual = 0.690613, Final residual = 9.96119e-05, No Iterations 775
linear solve p 1319.21 [ms]
[INFO] SolveP: 1319.23 [ms]
time step continuity errors : sum local = 3.16059e-08, global = -4.18618e-22, cumulative = -2.96646e-21
[INFO] ContinuityError: 3.669 [ms]
[INFO] CorrectBoundary: 2.547 [ms]
[INFO] PISOStep: 1380.84 [ms]
[INFO] MatrixAssemblyPI: 24.787 [ms]
[INFO] AdjustPhi: 2.73 [ms]
[INFO] ConstrainPressure: 0.002 [ms]
[INFO] MatrixAssemblyPII: 6.417 [ms]
nonePCG:  Solving for p, Initial residual = 0.619789, Final residual = 9.38652e-05, No Iterations 774
linear solve p 1310.66 [ms]
[INFO] SolveP: 1310.69 [ms]
time step continuity errors : sum local = 3.03763e-08, global = -5.63422e-21, cumulative = -8.60069e-21
[INFO] ContinuityError: 4.17 [ms]
[INFO] CorrectBoundary: 0.463 [ms]
[INFO] PISOStep: 1364.89 [ms]
[INFO] TimeStep: 2957.03 [ms]
ExecutionTime = 6.16 s  ClockTime = 6 s

Time = 0.0015

Courant Number mean: 0.0324926 max: 0.441243
[INFO] MatrixAssemblyU: 24.42 [ms]
DILUPBiCGStab:  Solving for Ux, Initial residual = 0.0531066, Final residual = 0.000326426, No Iterations 5
DILUPBiCGStab:  Solving for Uy, Initial residual = 0.124681, Final residual = 0.000558081, No Iterations 5
DILUPBiCGStab:  Solving for Uz, Initial residual = 0.575611, Final residual = 0.00312185, No Iterations 5
linear solve U 164.268 [ms]
[INFO] MomentumPredictor: 177.654 [ms]
[INFO] MatrixAssemblyPI: 27.069 [ms]
[INFO] AdjustPhi: 1.74 [ms]
[INFO] ConstrainPressure: 0.002 [ms]
[INFO] MatrixAssemblyPII: 8.85 [ms]
nonePCG:  Solving for p, Initial residual = 0.632554, Final residual = 9.49399e-05, No Iterations 768
linear solve p 1292.29 [ms]
[INFO] SolveP: 1292.32 [ms]
time step continuity errors : sum local = 2.17491e-08, global = 1.1183e-21, cumulative = -7.48239e-21
[INFO] ContinuityError: 4.466 [ms]
[INFO] CorrectBoundary: 0.435 [ms]
[INFO] PISOStep: 1348.53 [ms]
[INFO] MatrixAssemblyPI: 23.634 [ms]
[INFO] AdjustPhi: 4.756 [ms]
[INFO] ConstrainPressure: 0.002 [ms]
[INFO] MatrixAssemblyPII: 9.258 [ms]
nonePCG:  Solving for p, Initial residual = 0.579979, Final residual = 9.65592e-05, No Iterations 766
linear solve p 1294.35 [ms]
[INFO] SolveP: 1294.38 [ms]
time step continuity errors : sum local = 2.15334e-08, global = -4.21367e-21, cumulative = -1.16961e-20
[INFO] ContinuityError: 3.385 [ms]
[INFO] CorrectBoundary: 0.557 [ms]
[INFO] PISOStep: 1347.96 [ms]
[INFO] TimeStep: 2903.18 [ms]
ExecutionTime = 9.03 s  ClockTime = 9 s

Time = 0.002

Courant Number mean: 0.0388942 max: 0.452946
[INFO] MatrixAssemblyU: 24.229 [ms]
DILUPBiCGStab:  Solving for Ux, Initial residual = 0.0318966, Final residual = 0.000167513, No Iterations 5
DILUPBiCGStab:  Solving for Uy, Initial residual = 0.0813679, Final residual = 0.000384959, No Iterations 5
DILUPBiCGStab:  Solving for Uz, Initial residual = 0.273902, Final residual = 0.00118151, No Iterations 5
linear solve U 171.658 [ms]
[INFO] MomentumPredictor: 180.228 [ms]
[INFO] MatrixAssemblyPI: 25.131 [ms]
[INFO] AdjustPhi: 3.225 [ms]
[INFO] ConstrainPressure: 0.003 [ms]
[INFO] MatrixAssemblyPII: 8.348 [ms]
nonePCG:  Solving for p, Initial residual = 0.412426, Final residual = 9.98038e-05, No Iterations 761
linear solve p 1282.13 [ms]
[INFO] SolveP: 1282.16 [ms]
time step continuity errors : sum local = 1.9517e-08, global = 2.40957e-21, cumulative = -9.28649e-21
[INFO] ContinuityError: 3.901 [ms]
[INFO] CorrectBoundary: 0.603 [ms]
[INFO] PISOStep: 1335.4 [ms]
[INFO] MatrixAssemblyPI: 25.367 [ms]
[INFO] AdjustPhi: 2.236 [ms]
[INFO] ConstrainPressure: 0.002 [ms]
[INFO] MatrixAssemblyPII: 8.487 [ms]
nonePCG:  Solving for p, Initial residual = 0.350546, Final residual = 9.97449e-05, No Iterations 757
linear solve p 1272.08 [ms]
[INFO] SolveP: 1272.11 [ms]
time step continuity errors : sum local = 1.97004e-08, global = -5.88396e-21, cumulative = -1.51704e-20
[INFO] ContinuityError: 4.232 [ms]
[INFO] CorrectBoundary: 0.206 [ms]
[INFO] PISOStep: 1324.38 [ms]
[INFO] TimeStep: 2867.97 [ms]
ExecutionTime = 11.87 s  ClockTime = 12 s

Time = 0.0025

Courant Number mean: 0.043947 max: 0.459623
[INFO] MatrixAssemblyU: 20.714 [ms]
DILUPBiCGStab:  Solving for Ux, Initial residual = 0.0235042, Final residual = 0.000104802, No Iterations 5
DILUPBiCGStab:  Solving for Uy, Initial residual = 0.0515221, Final residual = 0.00023504, No Iterations 5
DILUPBiCGStab:  Solving for Uz, Initial residual = 0.0979986, Final residual = 0.000478143, No Iterations 5
linear solve U 166.595 [ms]
[INFO] MomentumPredictor: 180.34 [ms]
[INFO] MatrixAssemblyPI: 22.301 [ms]
[INFO] AdjustPhi: 5.781 [ms]
[INFO] ConstrainPressure: 0.002 [ms]
[INFO] MatrixAssemblyPII: 8.481 [ms]
nonePCG:  Solving for p, Initial residual = 0.314826, Final residual = 9.77301e-05, No Iterations 728
linear solve p 1228.5 [ms]
[INFO] SolveP: 1228.53 [ms]
time step continuity errors : sum local = 1.57829e-08, global = 4.87448e-21, cumulative = -1.0296e-20
[INFO] ContinuityError: 3.419 [ms]
[INFO] CorrectBoundary: 0.205 [ms]
[INFO] PISOStep: 1280.42 [ms]
[INFO] MatrixAssemblyPI: 25.254 [ms]
[INFO] AdjustPhi: 3.511 [ms]
[INFO] ConstrainPressure: 0.002 [ms]
[INFO] MatrixAssemblyPII: 5.148 [ms]
nonePCG:  Solving for p, Initial residual = 0.269326, Final residual = 9.96288e-05, No Iterations 724
linear solve p 1200.35 [ms]
[INFO] SolveP: 1200.39 [ms]
time step continuity errors : sum local = 1.59706e-08, global = 4.96948e-21, cumulative = -5.32647e-21
[INFO] ContinuityError: 4.954 [ms]
[INFO] CorrectBoundary: 1.145 [ms]
[INFO] PISOStep: 1256.44 [ms]
[INFO] TimeStep: 2743.31 [ms]
ExecutionTime = 14.59 s  ClockTime = 15 s

Time = 0.003

Courant Number mean: 0.047987 max: 0.463866
[INFO] MatrixAssemblyU: 23.954 [ms]
DILUPBiCGStab:  Solving for Ux, Initial residual = 0.0178878, Final residual = 7.93736e-05, No Iterations 5
DILUPBiCGStab:  Solving for Uy, Initial residual = 0.0401304, Final residual = 0.000115985, No Iterations 5
DILUPBiCGStab:  Solving for Uz, Initial residual = 0.0851911, Final residual = 0.000399696, No Iterations 5
linear solve U 168.01 [ms]
[INFO] MomentumPredictor: 180.241 [ms]
[INFO] MatrixAssemblyPI: 22.617 [ms]
[INFO] AdjustPhi: 5.84 [ms]
[INFO] ConstrainPressure: 0.002 [ms]
[INFO] MatrixAssemblyPII: 8.728 [ms]
nonePCG:  Solving for p, Initial residual = 0.19689, Final residual = 9.84664e-05, No Iterations 347
linear solve p 580.075 [ms]
[INFO] SolveP: 580.1 [ms]
time step continuity errors : sum local = 1.73325e-08, global = -3.20543e-21, cumulative = -8.5319e-21
[INFO] ContinuityError: 2.062 [ms]
[INFO] CorrectBoundary: 0.079 [ms]
[INFO] PISOStep: 630.768 [ms]
[INFO] MatrixAssemblyPI: 24.853 [ms]
[INFO] AdjustPhi: 1.516 [ms]
[INFO] ConstrainPressure: 0.001 [ms]
[INFO] MatrixAssemblyPII: 8.292 [ms]
nonePCG:  Solving for p, Initial residual = 0.163669, Final residual = 9.92958e-05, No Iterations 344
linear solve p 579.321 [ms]
[INFO] SolveP: 579.344 [ms]
time step continuity errors : sum local = 1.60902e-08, global = 3.4724e-21, cumulative = -5.0595e-21
[INFO] ContinuityError: 2.228 [ms]
[INFO] CorrectBoundary: 0.432 [ms]
[INFO] PISOStep: 627.119 [ms]
[INFO] TimeStep: 1465.16 [ms]
ExecutionTime = 16.05 s  ClockTime = 16 s

Time = 0.0035

Courant Number mean: 0.051396 max: 0.466746
[INFO] MatrixAssemblyU: 24.089 [ms]
DILUPBiCGStab:  Solving for Ux, Initial residual = 0.0146272, Final residual = 5.75161e-05, No Iterations 5
DILUPBiCGStab:  Solving for Uy, Initial residual = 0.0317932, Final residual = 9.94329e-05, No Iterations 5
DILUPBiCGStab:  Solving for Uz, Initial residual = 0.0575224, Final residual = 0.000249864, No Iterations 5
linear solve U 162.768 [ms]
[INFO] MomentumPredictor: 176.307 [ms]
[INFO] MatrixAssemblyPI: 24.99 [ms]
[INFO] AdjustPhi: 4.5 [ms]
[INFO] ConstrainPressure: 0.002 [ms]
[INFO] MatrixAssemblyPII: 8.091 [ms]
nonePCG:  Solving for p, Initial residual = 0.139698, Final residual = 9.87843e-05, No Iterations 334
linear solve p 573.874 [ms]
[INFO] SolveP: 573.898 [ms]
time step continuity errors : sum local = 1.48515e-08, global = -4.26432e-21, cumulative = -9.32382e-21
[INFO] ContinuityError: 3.315 [ms]
[INFO] CorrectBoundary: 0.405 [ms]
[INFO] PISOStep: 625.979 [ms]
[INFO] MatrixAssemblyPI: 23.741 [ms]
[INFO] AdjustPhi: 4.891 [ms]
[INFO] ConstrainPressure: 0.002 [ms]
[INFO] MatrixAssemblyPII: 8.039 [ms]
nonePCG:  Solving for p, Initial residual = 0.116789, Final residual = 9.77418e-05, No Iterations 329
linear solve p 556.84 [ms]
[INFO] SolveP: 556.863 [ms]
time step continuity errors : sum local = 1.44766e-08, global = -1.87305e-21, cumulative = -1.11969e-20
[INFO] ContinuityError: 2.283 [ms]
[INFO] CorrectBoundary: 0.205 [ms]
[INFO] PISOStep: 607.804 [ms]
[INFO] TimeStep: 1437.2 [ms]
ExecutionTime = 17.47 s  ClockTime = 18 s

Time = 0.004

Courant Number mean: 0.0543347 max: 0.468955
[INFO] MatrixAssemblyU: 26.063 [ms]
DILUPBiCGStab:  Solving for Ux, Initial residual = 0.0122808, Final residual = 4.51269e-05, No Iterations 5
DILUPBiCGStab:  Solving for Uy, Initial residual = 0.0265199, Final residual = 6.3875e-05, No Iterations 5
DILUPBiCGStab:  Solving for Uz, Initial residual = 0.0511913, Final residual = 0.000170451, No Iterations 5
linear solve U 164.568 [ms]
[INFO] MomentumPredictor: 174.237 [ms]
[INFO] MatrixAssemblyPI: 25.772 [ms]
[INFO] AdjustPhi: 2.413 [ms]
[INFO] ConstrainPressure: 0.002 [ms]
[INFO] MatrixAssemblyPII: 8.427 [ms]
nonePCG:  Solving for p, Initial residual = 0.0909217, Final residual = 9.93065e-05, No Iterations 345
linear solve p 576.323 [ms]
[INFO] SolveP: 576.346 [ms]
time step continuity errors : sum local = 1.68165e-08, global = -3.84928e-21, cumulative = -1.50462e-20
[INFO] ContinuityError: 2.077 [ms]
[INFO] CorrectBoundary: 0.134 [ms]
[INFO] PISOStep: 625.613 [ms]
[INFO] MatrixAssemblyPI: 26.283 [ms]
[INFO] AdjustPhi: 2.319 [ms]
[INFO] ConstrainPressure: 0.002 [ms]
[INFO] MatrixAssemblyPII: 8.079 [ms]
nonePCG:  Solving for p, Initial residual = 0.0751903, Final residual = 9.68397e-05, No Iterations 321
linear solve p 545.089 [ms]
[INFO] SolveP: 545.115 [ms]
time step continuity errors : sum local = 1.48929e-08, global = -2.3158e-21, cumulative = -1.7362e-20
[INFO] ContinuityError: 3.565 [ms]
[INFO] CorrectBoundary: 0.908 [ms]
[INFO] PISOStep: 595.947 [ms]
[INFO] TimeStep: 1425.78 [ms]
ExecutionTime = 18.89 s  ClockTime = 19 s

Time = 0.0045

Courant Number mean: 0.0569118 max: 0.470657
[INFO] MatrixAssemblyU: 20.87 [ms]
DILUPBiCGStab:  Solving for Ux, Initial residual = 0.0105233, Final residual = 3.57193e-05, No Iterations 5
DILUPBiCGStab:  Solving for Uy, Initial residual = 0.0227016, Final residual = 5.88618e-05, No Iterations 5
DILUPBiCGStab:  Solving for Uz, Initial residual = 0.0430332, Final residual = 0.000132895, No Iterations 5
linear solve U 166.068 [ms]
[INFO] MomentumPredictor: 180.507 [ms]
[INFO] MatrixAssemblyPI: 25.636 [ms]
[INFO] AdjustPhi: 1.508 [ms]
[INFO] ConstrainPressure: 0.002 [ms]
[INFO] MatrixAssemblyPII: 7.879 [ms]
nonePCG:  Solving for p, Initial residual = 0.0669871, Final residual = 9.76549e-05, No Iterations 335
linear solve p 559.202 [ms]
[INFO] SolveP: 559.226 [ms]
time step continuity errors : sum local = 1.5188e-08, global = -7.41981e-22, cumulative = -1.81039e-20
[INFO] ContinuityError: 3.48 [ms]
[INFO] CorrectBoundary: 0.124 [ms]
[INFO] PISOStep: 608.839 [ms]
[INFO] MatrixAssemblyPI: 23.997 [ms]
[INFO] AdjustPhi: 2.524 [ms]
[INFO] ConstrainPressure: 0.002 [ms]
[INFO] MatrixAssemblyPII: 8.499 [ms]
nonePCG:  Solving for p, Initial residual = 0.0558661, Final residual = 9.82254e-05, No Iterations 323
linear solve p 549.974 [ms]
[INFO] SolveP: 549.996 [ms]
time step continuity errors : sum local = 1.42282e-08, global = 2.83828e-21, cumulative = -1.52657e-20
[INFO] ContinuityError: 2.265 [ms]
[INFO] CorrectBoundary: 0.119 [ms]
[INFO] PISOStep: 597.967 [ms]
[INFO] TimeStep: 1411.88 [ms]
ExecutionTime = 20.29 s  ClockTime = 20 s

Time = 0.005

Courant Number mean: 0.0592067 max: 0.472051
[INFO] MatrixAssemblyU: 24.075 [ms]
DILUPBiCGStab:  Solving for Ux, Initial residual = 0.00922205, Final residual = 3.00791e-05, No Iterations 5
DILUPBiCGStab:  Solving for Uy, Initial residual = 0.0197292, Final residual = 4.41646e-05, No Iterations 5
DILUPBiCGStab:  Solving for Uz, Initial residual = 0.038906, Final residual = 0.000108035, No Iterations 5
linear solve U 164.419 [ms]
[INFO] MomentumPredictor: 176.121 [ms]
[INFO] MatrixAssemblyPI: 26.26 [ms]
[INFO] AdjustPhi: 1.165 [ms]
[INFO] ConstrainPressure: 0.002 [ms]
[INFO] MatrixAssemblyPII: 8.353 [ms]
nonePCG:  Solving for p, Initial residual = 0.0447316, Final residual = 9.98384e-05, No Iterations 697
linear solve p 1169.12 [ms]
[INFO] SolveP: 1169.14 [ms]
time step continuity errors : sum local = 1.41236e-08, global = 5.03209e-21, cumulative = -1.02336e-20
[INFO] ContinuityError: 5.541 [ms]
[INFO] CorrectBoundary: 0.235 [ms]
[INFO] PISOStep: 1221.66 [ms]
[INFO] MatrixAssemblyPI: 24.305 [ms]
[INFO] AdjustPhi: 2.663 [ms]
[INFO] ConstrainPressure: 0.002 [ms]
[INFO] MatrixAssemblyPII: 8.345 [ms]
nonePCG:  Solving for p, Initial residual = 0.0377472, Final residual = 9.88532e-05, No Iterations 694
linear solve p 1155.51 [ms]
[INFO] SolveP: 1155.54 [ms]
time step continuity errors : sum local = 1.39906e-08, global = 1.39444e-21, cumulative = -8.83914e-21
[INFO] ContinuityError: 2.881 [ms]
[INFO] CorrectBoundary: 0.481 [ms]
[INFO] PISOStep: 1204.48 [ms]
[INFO] TimeStep: 2629.25 [ms]
ExecutionTime = 22.9 s  ClockTime = 23 s

Time = 0.0055

Courant Number mean: 0.0612663 max: 0.473199
[INFO] MatrixAssemblyU: 24.039 [ms]
DILUPBiCGStab:  Solving for Ux, Initial residual = 0.00813993, Final residual = 2.52042e-05, No Iterations 5
DILUPBiCGStab:  Solving for Uy, Initial residual = 0.0174515, Final residual = 3.9344e-05, No Iterations 5
DILUPBiCGStab:  Solving for Uz, Initial residual = 0.0339067, Final residual = 8.2666e-05, No Iterations 5
linear solve U 163.276 [ms]
[INFO] MomentumPredictor: 176.597 [ms]
[INFO] MatrixAssemblyPI: 26.108 [ms]
[INFO] AdjustPhi: 1.558 [ms]
[INFO] ConstrainPressure: 0.001 [ms]
[INFO] MatrixAssemblyPII: 7.877 [ms]
nonePCG:  Solving for p, Initial residual = 0.0351616, Final residual = 9.87676e-05, No Iterations 313
linear solve p 521.733 [ms]
[INFO] SolveP: 521.756 [ms]
time step continuity errors : sum local = 1.43049e-08, global = -2.02788e-21, cumulative = -1.0867e-20
[INFO] ContinuityError: 2.137 [ms]
[INFO] CorrectBoundary: 0.307 [ms]
[INFO] PISOStep: 572.054 [ms]
[INFO] MatrixAssemblyPI: 24.546 [ms]
[INFO] AdjustPhi: 1.344 [ms]
[INFO] ConstrainPressure: 0.002 [ms]
[INFO] MatrixAssemblyPII: 7.128 [ms]
nonePCG:  Solving for p, Initial residual = 0.0298694, Final residual = 9.68839e-05, No Iterations 311
linear solve p 521.47 [ms]
[INFO] SolveP: 521.494 [ms]
time step continuity errors : sum local = 1.38427e-08, global = 1.33989e-21, cumulative = -9.52713e-21
[INFO] ContinuityError: 2.692 [ms]
[INFO] CorrectBoundary: 0.381 [ms]
[INFO] PISOStep: 571.736 [ms]
[INFO] TimeStep: 1348.64 [ms]
ExecutionTime = 24.23 s  ClockTime = 24 s

Time = 0.006

Courant Number mean: 0.0631375 max: 0.474175
[INFO] MatrixAssemblyU: 20.771 [ms]
DILUPBiCGStab:  Solving for Ux, Initial residual = 0.00728456, Final residual = 2.20608e-05, No Iterations 5
DILUPBiCGStab:  Solving for Uy, Initial residual = 0.015581, Final residual = 3.38733e-05, No Iterations 5
DILUPBiCGStab:  Solving for Uz, Initial residual = 0.0305958, Final residual = 6.98502e-05, No Iterations 5
linear solve U 163.776 [ms]
[INFO] MomentumPredictor: 179.871 [ms]
[INFO] MatrixAssemblyPI: 25.424 [ms]
[INFO] AdjustPhi: 1.818 [ms]
[INFO] ConstrainPressure: 0.002 [ms]
[INFO] MatrixAssemblyPII: 8.22 [ms]
nonePCG:  Solving for p, Initial residual = 0.0250689, Final residual = 9.51891e-05, No Iterations 311
linear solve p 517.841 [ms]
[INFO] SolveP: 517.864 [ms]
time step continuity errors : sum local = 1.44846e-08, global = 9.69352e-21, cumulative = 1.66393e-22
[INFO] ContinuityError: 2.116 [ms]
[INFO] CorrectBoundary: 0.073 [ms]
[INFO] PISOStep: 567.143 [ms]
[INFO] MatrixAssemblyPI: 24.666 [ms]
[INFO] AdjustPhi: 1.842 [ms]
[INFO] ConstrainPressure: 0.002 [ms]
[INFO] MatrixAssemblyPII: 7.107 [ms]
nonePCG:  Solving for p, Initial residual = 0.021876, Final residual = 9.77436e-05, No Iterations 305
linear solve p 516.535 [ms]
[INFO] SolveP: 516.563 [ms]
time step continuity errors : sum local = 1.39898e-08, global = 8.49411e-22, cumulative = 1.0158e-21
[INFO] ContinuityError: 2.321 [ms]
[INFO] CorrectBoundary: 0.176 [ms]
[INFO] PISOStep: 565.77 [ms]
[INFO] TimeStep: 1336.65 [ms]
ExecutionTime = 25.55 s  ClockTime = 26 s

Time = 0.0065

Courant Number mean: 0.0648411 max: 0.475011
[INFO] MatrixAssemblyU: 26.542 [ms]
DILUPBiCGStab:  Solving for Ux, Initial residual = 0.00655461, Final residual = 1.91827e-05, No Iterations 5
DILUPBiCGStab:  Solving for Uy, Initial residual = 0.0140643, Final residual = 3.05476e-05, No Iterations 5
DILUPBiCGStab:  Solving for Uz, Initial residual = 0.0277705, Final residual = 6.50722e-05, No Iterations 5
linear solve U 164.136 [ms]
[INFO] MomentumPredictor: 173.775 [ms]
[INFO] MatrixAssemblyPI: 26.508 [ms]
[INFO] AdjustPhi: 0.9 [ms]
[INFO] ConstrainPressure: 0.002 [ms]
[INFO] MatrixAssemblyPII: 8.265 [ms]
nonePCG:  Solving for p, Initial residual = 0.0207442, Final residual = 9.52421e-05, No Iterations 312
linear solve p 524.193 [ms]
[INFO] SolveP: 524.215 [ms]
time step continuity errors : sum local = 1.42862e-08, global = -2.97682e-22, cumulative = 7.18122e-22
[INFO] ContinuityError: 2.054 [ms]
[INFO] CorrectBoundary: 0.159 [ms]
[INFO] PISOStep: 572.979 [ms]
[INFO] MatrixAssemblyPI: 24.361 [ms]
[INFO] AdjustPhi: 1.368 [ms]
[INFO] ConstrainPressure: 0.002 [ms]
[INFO] MatrixAssemblyPII: 8.014 [ms]
nonePCG:  Solving for p, Initial residual = 0.0182539, Final residual = 9.97461e-05, No Iterations 307
linear solve p 513.918 [ms]
[INFO] SolveP: 513.939 [ms]
time step continuity errors : sum local = 1.42867e-08, global = 2.51191e-21, cumulative = 3.23004e-21
[INFO] ContinuityError: 2.2 [ms]
[INFO] CorrectBoundary: 0.127 [ms]
[INFO] PISOStep: 559.782 [ms]
[INFO] TimeStep: 1336.03 [ms]
ExecutionTime = 26.88 s  ClockTime = 27 s

Time = 0.007

Courant Number mean: 0.0664084 max: 0.47574
[INFO] MatrixAssemblyU: 24.07 [ms]
DILUPBiCGStab:  Solving for Ux, Initial residual = 0.00596104, Final residual = 1.71634e-05, No Iterations 5
DILUPBiCGStab:  Solving for Uy, Initial residual = 0.0127587, Final residual = 2.74969e-05, No Iterations 5
DILUPBiCGStab:  Solving for Uz, Initial residual = 0.0257049, Final residual = 5.95742e-05, No Iterations 5
linear solve U 165.573 [ms]
[INFO] MomentumPredictor: 176.477 [ms]
[INFO] MatrixAssemblyPI: 26.213 [ms]
[INFO] AdjustPhi: 1 [ms]
[INFO] ConstrainPressure: 0.002 [ms]
[INFO] MatrixAssemblyPII: 8.233 [ms]
nonePCG:  Solving for p, Initial residual = 0.0162457, Final residual = 9.88921e-05, No Iterations 317
linear solve p 526.811 [ms]
[INFO] SolveP: 526.832 [ms]
time step continuity errors : sum local = 1.5676e-08, global = 4.67254e-22, cumulative = 3.69729e-21
[INFO] ContinuityError: 3.595 [ms]
[INFO] CorrectBoundary: 0.377 [ms]
[INFO] PISOStep: 576.521 [ms]
[INFO] MatrixAssemblyPI: 25.181 [ms]
[INFO] AdjustPhi: 1.63 [ms]
[INFO] ConstrainPressure: 0.002 [ms]
[INFO] MatrixAssemblyPII: 8.107 [ms]
nonePCG:  Solving for p, Initial residual = 0.0147002, Final residual = 9.83756e-05, No Iterations 307
linear solve p 520.117 [ms]
[INFO] SolveP: 520.141 [ms]
time step continuity errors : sum local = 1.42942e-08, global = -2.71093e-21, cumulative = 9.86361e-22
[INFO] ContinuityError: 3.538 [ms]
[INFO] CorrectBoundary: 1.006 [ms]
[INFO] PISOStep: 569.529 [ms]
[INFO] TimeStep: 1349.54 [ms]
ExecutionTime = 28.22 s  ClockTime = 28 s

Time = 0.0075

Courant Number mean: 0.067855 max: 0.476379
[INFO] MatrixAssemblyU: 23.865 [ms]
DILUPBiCGStab:  Solving for Ux, Initial residual = 0.00543299, Final residual = 1.52915e-05, No Iterations 5
DILUPBiCGStab:  Solving for Uy, Initial residual = 0.0116832, Final residual = 2.51015e-05, No Iterations 5
DILUPBiCGStab:  Solving for Uz, Initial residual = 0.0236606, Final residual = 6.06867e-05, No Iterations 5
linear solve U 165.409 [ms]
[INFO] MomentumPredictor: 176.068 [ms]
[INFO] MatrixAssemblyPI: 24.773 [ms]
[INFO] AdjustPhi: 2.513 [ms]
[INFO] ConstrainPressure: 0.002 [ms]
[INFO] MatrixAssemblyPII: 8.147 [ms]
nonePCG:  Solving for p, Initial residual = 0.0141962, Final residual = 9.93457e-05, No Iterations 318
linear solve p 530.549 [ms]
[INFO] SolveP: 530.57 [ms]
time step continuity errors : sum local = 1.57804e-08, global = 5.62069e-21, cumulative = 6.60705e-21
[INFO] ContinuityError: 2.077 [ms]
[INFO] CorrectBoundary: 0.23 [ms]
[INFO] PISOStep: 577.963 [ms]
[INFO] MatrixAssemblyPI: 25.987 [ms]
[INFO] AdjustPhi: 1.706 [ms]
[INFO] ConstrainPressure: 0.002 [ms]
[INFO] MatrixAssemblyPII: 8.278 [ms]
nonePCG:  Solving for p, Initial residual = 0.0129303, Final residual = 9.70526e-05, No Iterations 307
linear solve p 519.619 [ms]
[INFO] SolveP: 519.642 [ms]
time step continuity errors : sum local = 1.41293e-08, global = 6.22195e-22, cumulative = 7.22925e-21
[INFO] ContinuityError: 2.224 [ms]
[INFO] CorrectBoundary: 0.422 [ms]
[INFO] PISOStep: 569.32 [ms]
[INFO] TimeStep: 1350.83 [ms]
ExecutionTime = 29.56 s  ClockTime = 30 s

Time = 0.008

Courant Number mean: 0.0691917 max: 0.476947
[INFO] MatrixAssemblyU: 24.074 [ms]
DILUPBiCGStab:  Solving for Ux, Initial residual = 0.00499903, Final residual = 1.38582e-05, No Iterations 5
DILUPBiCGStab:  Solving for Uy, Initial residual = 0.0107149, Final residual = 2.31377e-05, No Iterations 5
DILUPBiCGStab:  Solving for Uz, Initial residual = 0.0222632, Final residual = 6.03551e-05, No Iterations 5
linear solve U 164.951 [ms]
[INFO] MomentumPredictor: 176.753 [ms]
[INFO] MatrixAssemblyPI: 26.232 [ms]
[INFO] AdjustPhi: 0.837 [ms]
[INFO] ConstrainPressure: 0.002 [ms]
[INFO] MatrixAssemblyPII: 8.312 [ms]
nonePCG:  Solving for p, Initial residual = 0.01219, Final residual = 9.99345e-05, No Iterations 688
linear solve p 1157.34 [ms]
[INFO] SolveP: 1157.37 [ms]
time step continuity errors : sum local = 1.39746e-08, global = -5.94161e-22, cumulative = 6.63509e-21
[INFO] ContinuityError: 3.794 [ms]
[INFO] CorrectBoundary: 0.512 [ms]
[INFO] PISOStep: 1207.34 [ms]
[INFO] MatrixAssemblyPI: 25.847 [ms]
[INFO] AdjustPhi: 1.784 [ms]
[INFO] ConstrainPressure: 0.002 [ms]
[INFO] MatrixAssemblyPII: 8.428 [ms]
nonePCG:  Solving for p, Initial residual = 0.0113212, Final residual = 9.94492e-05, No Iterations 686
linear solve p 1138.65 [ms]
[INFO] SolveP: 1138.68 [ms]
time step continuity errors : sum local = 1.39125e-08, global = 5.7602e-21, cumulative = 1.23953e-20
[INFO] ContinuityError: 2.181 [ms]
[INFO] CorrectBoundary: 0.27 [ms]
[INFO] PISOStep: 1188.84 [ms]
[INFO] TimeStep: 2599.95 [ms]
ExecutionTime = 32.14 s  ClockTime = 32 s

Time = 0.0085

Courant Number mean: 0.0704369 max: 0.477456
[INFO] MatrixAssemblyU: 24.104 [ms]
DILUPBiCGStab:  Solving for Ux, Initial residual = 0.00460168, Final residual = 1.25375e-05, No Iterations 5
DILUPBiCGStab:  Solving for Uy, Initial residual = 0.00989311, Final residual = 2.11674e-05, No Iterations 5
DILUPBiCGStab:  Solving for Uz, Initial residual = 0.0202017, Final residual = 4.47392e-05, No Iterations 5
linear solve U 166.747 [ms]
[INFO] MomentumPredictor: 178.524 [ms]
[INFO] MatrixAssemblyPI: 25.05 [ms]
[INFO] AdjustPhi: 2.032 [ms]
[INFO] ConstrainPressure: 0.002 [ms]
[INFO] MatrixAssemblyPII: 8.267 [ms]
nonePCG:  Solving for p, Initial residual = 0.0109648, Final residual = 9.98175e-05, No Iterations 296
linear solve p 494.085 [ms]
[INFO] SolveP: 494.111 [ms]
time step continuity errors : sum local = 1.47676e-08, global = -3.19581e-21, cumulative = 9.19948e-21
[INFO] ContinuityError: 3.062 [ms]
[INFO] CorrectBoundary: 0.475 [ms]
[INFO] PISOStep: 542.592 [ms]
[INFO] MatrixAssemblyPI: 23.906 [ms]
[INFO] AdjustPhi: 4.019 [ms]
[INFO] ConstrainPressure: 0.003 [ms]
[INFO] MatrixAssemblyPII: 8.079 [ms]
nonePCG:  Solving for p, Initial residual = 0.0102391, Final residual = 9.97378e-05, No Iterations 291
linear solve p 487.118 [ms]
[INFO] SolveP: 487.141 [ms]
time step continuity errors : sum local = 1.4268e-08, global = 1.07748e-20, cumulative = 1.99743e-20
[INFO] ContinuityError: 2.376 [ms]
[INFO] CorrectBoundary: 0.133 [ms]
[INFO] PISOStep: 536.697 [ms]
[INFO] TimeStep: 1284.97 [ms]
ExecutionTime = 33.41 s  ClockTime = 34 s

Time = 0.009

Courant Number mean: 0.0715996 max: 0.477912
[INFO] MatrixAssemblyU: 24.014 [ms]
DILUPBiCGStab:  Solving for Ux, Initial residual = 0.00425721, Final residual = 1.14198e-05, No Iterations 5
DILUPBiCGStab:  Solving for Uy, Initial residual = 0.00916531, Final residual = 1.94948e-05, No Iterations 5
DILUPBiCGStab:  Solving for Uz, Initial residual = 0.0186955, Final residual = 4.20844e-05, No Iterations 5
linear solve U 164.497 [ms]
[INFO] MomentumPredictor: 176.872 [ms]
[INFO] MatrixAssemblyPI: 25.388 [ms]
[INFO] AdjustPhi: 1.763 [ms]
[INFO] ConstrainPressure: 0.002 [ms]
[INFO] MatrixAssemblyPII: 8.177 [ms]
nonePCG:  Solving for p, Initial residual = 0.00968082, Final residual = 9.78697e-05, No Iterations 297
linear solve p 495.082 [ms]
[INFO] SolveP: 495.104 [ms]
time step continuity errors : sum local = 1.49074e-08, global = 1.15565e-20, cumulative = 3.15308e-20
[INFO] ContinuityError: 2.035 [ms]
[INFO] CorrectBoundary: 0.664 [ms]
[INFO] PISOStep: 544.245 [ms]
[INFO] MatrixAssemblyPI: 26.418 [ms]
[INFO] AdjustPhi: 1.601 [ms]
[INFO] ConstrainPressure: 0.002 [ms]
[INFO] MatrixAssemblyPII: 8.246 [ms]
nonePCG:  Solving for p, Initial residual = 0.00911534, Final residual = 9.90115e-05, No Iterations 289
linear solve p 493.46 [ms]
[INFO] SolveP: 493.484 [ms]
time step continuity errors : sum local = 1.41368e-08, global = 6.19015e-21, cumulative = 3.77209e-20
[INFO] ContinuityError: 3.378 [ms]
[INFO] CorrectBoundary: 0.966 [ms]
[INFO] PISOStep: 543.299 [ms]
[INFO] TimeStep: 1291.39 [ms]
ExecutionTime = 34.69 s  ClockTime = 35 s

Time = 0.0095

Courant Number mean: 0.0726862 max: 0.478326
[INFO] MatrixAssemblyU: 23.736 [ms]
DILUPBiCGStab:  Solving for Ux, Initial residual = 0.00394835, Final residual = 1.04545e-05, No Iterations 5
DILUPBiCGStab:  Solving for Uy, Initial residual = 0.00853349, Final residual = 1.80816e-05, No Iterations 5
DILUPBiCGStab:  Solving for Uz, Initial residual = 0.0175062, Final residual = 4.30323e-05, No Iterations 5
linear solve U 164.144 [ms]
[INFO] MomentumPredictor: 175.934 [ms]
[INFO] MatrixAssemblyPI: 25.707 [ms]
[INFO] AdjustPhi: 1.338 [ms]
[INFO] ConstrainPressure: 0.002 [ms]
[INFO] MatrixAssemblyPII: 8.246 [ms]
nonePCG:  Solving for p, Initial residual = 0.00880226, Final residual = 9.85049e-05, No Iterations 306
linear solve p 513.076 [ms]
[INFO] SolveP: 513.098 [ms]
time step continuity errors : sum local = 1.52844e-08, global = -9.34342e-21, cumulative = 2.83775e-20
[INFO] ContinuityError: 2.845 [ms]
[INFO] CorrectBoundary: 0.353 [ms]
[INFO] PISOStep: 561.76 [ms]
[INFO] MatrixAssemblyPI: 25.238 [ms]
[INFO] AdjustPhi: 1.236 [ms]
[INFO] ConstrainPressure: 0.003 [ms]
[INFO] MatrixAssemblyPII: 8.016 [ms]
nonePCG:  Solving for p, Initial residual = 0.00832491, Final residual = 9.37895e-05, No Iterations 298
linear solve p 498.795 [ms]
[INFO] SolveP: 498.818 [ms]
time step continuity errors : sum local = 1.36258e-08, global = 1.45687e-21, cumulative = 2.98344e-20
[INFO] ContinuityError: 2.188 [ms]
[INFO] CorrectBoundary: 0.274 [ms]
[INFO] PISOStep: 545.849 [ms]
[INFO] TimeStep: 1310.26 [ms]
ExecutionTime = 35.99 s  ClockTime = 36 s

Time = 0.01

Courant Number mean: 0.0737032 max: 0.478701
[INFO] MatrixAssemblyU: 24.154 [ms]
DILUPBiCGStab:  Solving for Ux, Initial residual = 0.00368389, Final residual = 9.61854e-06, No Iterations 5
DILUPBiCGStab:  Solving for Uy, Initial residual = 0.00794789, Final residual = 1.69685e-05, No Iterations 5
DILUPBiCGStab:  Solving for Uz, Initial residual = 0.0166568, Final residual = 4.33779e-05, No Iterations 5
linear solve U 171.172 [ms]
[INFO] MomentumPredictor: 181.014 [ms]
[INFO] MatrixAssemblyPI: 24.96 [ms]
[INFO] AdjustPhi: 2.799 [ms]
[INFO] ConstrainPressure: 0.002 [ms]
[INFO] MatrixAssemblyPII: 7.999 [ms]
nonePCG:  Solving for p, Initial residual = 0.00834915, Final residual = 9.86068e-05, No Iterations 332
linear solve p 554.113 [ms]
[INFO] SolveP: 554.136 [ms]
time step continuity errors : sum local = 1.59878e-08, global = -1.80491e-21, cumulative = 2.80295e-20
[INFO] ContinuityError: 2.093 [ms]
[INFO] CorrectBoundary: 0.597 [ms]
[INFO] PISOStep: 602.526 [ms]
[INFO] MatrixAssemblyPI: 24.832 [ms]
[INFO] AdjustPhi: 1.178 [ms]
[INFO] ConstrainPressure: 0.001 [ms]
[INFO] MatrixAssemblyPII: 8.269 [ms]
nonePCG:  Solving for p, Initial residual = 0.0079156, Final residual = 9.98042e-05, No Iterations 296
linear solve p 500.084 [ms]
[INFO] SolveP: 500.108 [ms]
time step continuity errors : sum local = 1.45582e-08, global = -6.42967e-21, cumulative = 2.15998e-20
[INFO] ContinuityError: 2.151 [ms]
[INFO] CorrectBoundary: 0.536 [ms]
[INFO] PISOStep: 546.778 [ms]
[INFO] TimeStep: 1357.44 [ms]
ExecutionTime = 37.34 s  ClockTime = 38 s

End

Finalising parallel run
