/*---------------------------------------------------------------------------*\
| =========                 |                                                 |
| \\      /  F ield         | OpenFOAM: The Open Source CFD Toolbox           |
|  \\    /   O peration     | Version:  2306                                  |
|   \\  /    A nd           | Website:  www.openfoam.com                      |
|    \\/     M anipulation  |                                                 |
\*---------------------------------------------------------------------------*/
Build  : a6e826bd55-20230630 OPENFOAM=2306 version=v2306
Arch   : "LSB;label=32;scalar=64"
Exec   : icoFoam -parallel -case /tmp/lidDrivenCavity3D/workspace/7fd80652ac216134f6ed7cb81d85ec69/case
Date   : Dec 05 2023
Time   : 17:06:56
Host   : nla-gpu2.ianm.kit.edu
PID    : 3925120
I/O    : uncollated
Case   : /tmp/lidDrivenCavity3D/workspace/7fd80652ac216134f6ed7cb81d85ec69/case
nProcs : 32
Hosts  :
(
    (nla-gpu2.ianm.kit.edu 32)
)
Pstream initialized with:
    floatTransfer      : false
    nProcsSimpleSum    : 0
    nonBlockingExchange: 0 (tuning: 0)
    exchange algorithm : -1
    commsType          : nonBlocking
    polling iterations : 0
trapFpe: Floating point exception trapping enabled (FOAM_SIGFPE).
fileModificationChecking : Monitoring run-time modified files using timeStampMaster (fileModificationSkew 5, maxFileModificationPolls 20)
allowSystemOperations : Allowing user-supplied system call operations

// * * * * * * * * * * * * * * * * * * * * * * * * * * * * * * * * * * * * * //
Create time

--> FOAM Warning : 
    From void* Foam::dlLibraryTable::openLibrary(const Foam::fileName&, bool)
    in file db/dynamicLibrary/dlLibraryTable/dlLibraryTable.C at line 188
    Could not load "libpetscFoam.so"
libpetscFoam.so: cannot open shared object file: No such file or directory
Create mesh for time = 0


PISO: Operating solver in PISO mode

Reading transportProperties

Reading field p

Reading field U

Reading/calculating face flux field phi


Starting time loop

Time = 0.00025

Courant Number mean: 8.24341e-18 max: 2.08167e-14
momentum setup 70.39 [ms]
DILUPBiCGStab:  Solving for Ux, Initial residual = 1, Final residual = 0.00994539, No Iterations 5
DILUPBiCGStab:  Solving for Uy:  solution singularity
DILUPBiCGStab:  Solving for Uz:  solution singularity
piso setup 72.48 [ms]
 correctNonOrthogonal 
 setRef 
 startSolve 
GAMG:  Solving for p, Initial residual = 1, Final residual = 8.79905e-05, No Iterations 26
piso step 1062.16 [ms]
 contErrors 
time step continuity errors : sum local = 6.75507e-09, global = -2.17957e-21, cumulative = -2.17957e-21
piso setup 68.616 [ms]
 correctNonOrthogonal 
 setRef 
 startSolve 
GAMG:  Solving for p, Initial residual = 0.7864, Final residual = 9.82108e-05, No Iterations 25
piso step 890.211 [ms]
 contErrors 
time step continuity errors : sum local = 9.45513e-09, global = 4.72333e-22, cumulative = -1.70724e-21
ExecutionTime = 3.03 s  ClockTime = 3 s

Time = 0.0005

Courant Number mean: 0.015946 max: 0.41255
momentum setup 61.076 [ms]
DILUPBiCGStab:  Solving for Ux, Initial residual = 0.129576, Final residual = 0.00567065, No Iterations 5
DILUPBiCGStab:  Solving for Uy, Initial residual = 0.426969, Final residual = 0.0150071, No Iterations 5
DILUPBiCGStab:  Solving for Uz, Initial residual = 0.985483, Final residual = 0.0384296, No Iterations 5
piso setup 70.572 [ms]
 correctNonOrthogonal 
 setRef 
 startSolve 
GAMG:  Solving for p, Initial residual = 0.827636, Final residual = 8.71656e-05, No Iterations 23
piso step 846.552 [ms]
 contErrors 
time step continuity errors : sum local = 1.31017e-08, global = 1.20257e-21, cumulative = -5.04671e-22
piso setup 68.13 [ms]
 correctNonOrthogonal 
 setRef 
 startSolve 
GAMG:  Solving for p, Initial residual = 0.770591, Final residual = 8.99577e-05, No Iterations 26
piso step 923.775 [ms]
 contErrors 
time step continuity errors : sum local = 1.36955e-08, global = -2.1424e-22, cumulative = -7.1891e-22
ExecutionTime = 5.49 s  ClockTime = 5 s

Time = 0.00075

Courant Number mean: 0.0243229 max: 0.472083
momentum setup 60.742 [ms]
DILUPBiCGStab:  Solving for Ux, Initial residual = 0.054777, Final residual = 0.00194191, No Iterations 5
DILUPBiCGStab:  Solving for Uy, Initial residual = 0.182459, Final residual = 0.007977, No Iterations 5
DILUPBiCGStab:  Solving for Uz, Initial residual = 0.817174, Final residual = 0.031079, No Iterations 5
piso setup 71.258 [ms]
 correctNonOrthogonal 
 setRef 
 startSolve 
GAMG:  Solving for p, Initial residual = 0.850043, Final residual = 9.02415e-05, No Iterations 25
piso step 882.149 [ms]
 contErrors 
time step continuity errors : sum local = 1.22395e-08, global = 8.0526e-22, cumulative = 8.63499e-23
piso setup 68.686 [ms]
 correctNonOrthogonal 
 setRef 
 startSolve 
GAMG:  Solving for p, Initial residual = 0.816316, Final residual = 9.29767e-05, No Iterations 23
piso step 820.16 [ms]
 contErrors 
time step continuity errors : sum local = 1.23398e-08, global = 8.12627e-22, cumulative = 8.98977e-22
ExecutionTime = 7.9 s  ClockTime = 8 s

Time = 0.001

Courant Number mean: 0.0291871 max: 0.467785
momentum setup 60.653 [ms]
DILUPBiCGStab:  Solving for Ux, Initial residual = 0.0347161, Final residual = 0.00129461, No Iterations 5
DILUPBiCGStab:  Solving for Uy, Initial residual = 0.129217, Final residual = 0.00499179, No Iterations 5
DILUPBiCGStab:  Solving for Uz, Initial residual = 0.660425, Final residual = 0.0232318, No Iterations 5
piso setup 70.254 [ms]
 correctNonOrthogonal 
 setRef 
 startSolve 
GAMG:  Solving for p, Initial residual = 0.773183, Final residual = 9.08688e-05, No Iterations 32
piso step 1158.62 [ms]
 contErrors 
time step continuity errors : sum local = 1.12531e-08, global = -1.8913e-21, cumulative = -9.92319e-22
piso setup 66.985 [ms]
 correctNonOrthogonal 
 setRef 
 startSolve 
GAMG:  Solving for p, Initial residual = 0.710365, Final residual = 6.41438e-05, No Iterations 29
piso step 1027.62 [ms]
 contErrors 
time step continuity errors : sum local = 8.04004e-09, global = -8.98809e-22, cumulative = -1.89113e-21
ExecutionTime = 10.77 s  ClockTime = 11 s

Time = 0.00125

Courant Number mean: 0.0333277 max: 0.472992
momentum setup 60.536 [ms]
DILUPBiCGStab:  Solving for Ux, Initial residual = 0.0271536, Final residual = 0.000948761, No Iterations 5
DILUPBiCGStab:  Solving for Uy, Initial residual = 0.081504, Final residual = 0.00369928, No Iterations 5
DILUPBiCGStab:  Solving for Uz, Initial residual = 0.565332, Final residual = 0.0245793, No Iterations 5
piso setup 70.58 [ms]
 correctNonOrthogonal 
 setRef 
 startSolve 
GAMG:  Solving for p, Initial residual = 0.777541, Final residual = 7.63984e-05, No Iterations 24
piso step 851.032 [ms]
 contErrors 
time step continuity errors : sum local = 7.81497e-09, global = -6.86444e-22, cumulative = -2.57757e-21
piso setup 68.393 [ms]
 correctNonOrthogonal 
 setRef 
 startSolve 
GAMG:  Solving for p, Initial residual = 0.726628, Final residual = 6.93014e-05, No Iterations 27
piso step 974.023 [ms]
 contErrors 
time step continuity errors : sum local = 6.96323e-09, global = -2.53978e-21, cumulative = -5.11735e-21
ExecutionTime = 13.28 s  ClockTime = 13 s

Time = 0.0015

Courant Number mean: 0.0366263 max: 0.475589
momentum setup 60.204 [ms]
DILUPBiCGStab:  Solving for Ux, Initial residual = 0.0204471, Final residual = 0.000683912, No Iterations 5
DILUPBiCGStab:  Solving for Uy, Initial residual = 0.0659706, Final residual = 0.00256821, No Iterations 5
DILUPBiCGStab:  Solving for Uz, Initial residual = 0.405895, Final residual = 0.0152122, No Iterations 5
piso setup 70.422 [ms]
 correctNonOrthogonal 
 setRef 
 startSolve 
GAMG:  Solving for p, Initial residual = 0.686159, Final residual = 6.82035e-05, No Iterations 29
piso step 1019.08 [ms]
 contErrors 
time step continuity errors : sum local = 6.41279e-09, global = -2.12557e-21, cumulative = -7.24292e-21
piso setup 68.438 [ms]
 correctNonOrthogonal 
 setRef 
 startSolve 
GAMG:  Solving for p, Initial residual = 0.625698, Final residual = 9.43631e-05, No Iterations 26
piso step 918.347 [ms]
 contErrors 
time step continuity errors : sum local = 8.90363e-09, global = -2.35878e-21, cumulative = -9.60171e-21
ExecutionTime = 15.89 s  ClockTime = 16 s

Time = 0.00175

Courant Number mean: 0.0395408 max: 0.47752
momentum setup 60.941 [ms]
DILUPBiCGStab:  Solving for Ux, Initial residual = 0.0174684, Final residual = 0.000549686, No Iterations 5
DILUPBiCGStab:  Solving for Uy, Initial residual = 0.0490901, Final residual = 0.00187538, No Iterations 5
DILUPBiCGStab:  Solving for Uz, Initial residual = 0.3387, Final residual = 0.0164886, No Iterations 5
piso setup 70.866 [ms]
 correctNonOrthogonal 
 setRef 
 startSolve 
GAMG:  Solving for p, Initial residual = 0.681586, Final residual = 9.36955e-05, No Iterations 23
piso step 818.428 [ms]
 contErrors 
time step continuity errors : sum local = 7.36953e-09, global = -3.17061e-21, cumulative = -1.27723e-20
piso setup 71.371 [ms]
 correctNonOrthogonal 
 setRef 
 startSolve 
GAMG:  Solving for p, Initial residual = 0.622554, Final residual = 7.47387e-05, No Iterations 21
piso step 767.657 [ms]
 contErrors 
time step continuity errors : sum local = 5.85862e-09, global = -1.56495e-21, cumulative = -1.43373e-20
ExecutionTime = 18.17 s  ClockTime = 18 s

Time = 0.002

Courant Number mean: 0.0420654 max: 0.479227
momentum setup 59.847 [ms]
DILUPBiCGStab:  Solving for Ux, Initial residual = 0.0143129, Final residual = 0.000425416, No Iterations 5
DILUPBiCGStab:  Solving for Uy, Initial residual = 0.0418327, Final residual = 0.00146392, No Iterations 5
DILUPBiCGStab:  Solving for Uz, Initial residual = 0.263233, Final residual = 0.0114487, No Iterations 5
piso setup 70.353 [ms]
 correctNonOrthogonal 
 setRef 
 startSolve 
GAMG:  Solving for p, Initial residual = 0.591707, Final residual = 9.71076e-05, No Iterations 33
piso step 1148.99 [ms]
 contErrors 
time step continuity errors : sum local = 7.26393e-09, global = -2.94673e-21, cumulative = -1.7284e-20
piso setup 68.643 [ms]
 correctNonOrthogonal 
 setRef 
 startSolve 
GAMG:  Solving for p, Initial residual = 0.534592, Final residual = 9.68698e-05, No Iterations 37
piso step 1311.16 [ms]
 contErrors 
time step continuity errors : sum local = 7.23078e-09, global = -2.86367e-21, cumulative = -2.01477e-20
ExecutionTime = 21.31 s  ClockTime = 21 s

Time = 0.00225

Courant Number mean: 0.0443508 max: 0.480371
momentum setup 60.943 [ms]
DILUPBiCGStab:  Solving for Ux, Initial residual = 0.0125925, Final residual = 0.00035215, No Iterations 5
DILUPBiCGStab:  Solving for Uy, Initial residual = 0.0337177, Final residual = 0.00103777, No Iterations 5
DILUPBiCGStab:  Solving for Uz, Initial residual = 0.233122, Final residual = 0.0126679, No Iterations 5
piso setup 70.235 [ms]
 correctNonOrthogonal 
 setRef 
 startSolve 
GAMG:  Solving for p, Initial residual = 0.578684, Final residual = 8.98668e-05, No Iterations 18
piso step 646.351 [ms]
 contErrors 
time step continuity errors : sum local = 5.81013e-09, global = -1.2805e-21, cumulative = -2.14282e-20
piso setup 68.422 [ms]
 correctNonOrthogonal 
 setRef 
 startSolve 
GAMG:  Solving for p, Initial residual = 0.518518, Final residual = 9.12779e-05, No Iterations 18
piso step 647.422 [ms]
 contErrors 
time step continuity errors : sum local = 5.91856e-09, global = -3.7208e-21, cumulative = -2.5149e-20
ExecutionTime = 23.28 s  ClockTime = 23 s

Time = 0.0025

Courant Number mean: 0.0464053 max: 0.481479
momentum setup 60.867 [ms]
DILUPBiCGStab:  Solving for Ux, Initial residual = 0.0108433, Final residual = 0.000285333, No Iterations 5
DILUPBiCGStab:  Solving for Uy, Initial residual = 0.0295383, Final residual = 0.000852125, No Iterations 5
DILUPBiCGStab:  Solving for Uz, Initial residual = 0.18498, Final residual = 0.00892663, No Iterations 5
piso setup 72.168 [ms]
 correctNonOrthogonal 
 setRef 
 startSolve 
GAMG:  Solving for p, Initial residual = 0.502849, Final residual = 7.68946e-05, No Iterations 23
piso step 834.227 [ms]
 contErrors 
time step continuity errors : sum local = 4.8333e-09, global = -2.16618e-23, cumulative = -2.51706e-20
piso setup 68.103 [ms]
 correctNonOrthogonal 
 setRef 
 startSolve 
GAMG:  Solving for p, Initial residual = 0.450506, Final residual = 9.13324e-05, No Iterations 39
piso step 1352.5 [ms]
 contErrors 
time step continuity errors : sum local = 5.72976e-09, global = -2.69397e-21, cumulative = -2.78646e-20
ExecutionTime = 26.15 s  ClockTime = 26 s

Time = 0.00275

Courant Number mean: 0.048294 max: 0.482248
momentum setup 60.963 [ms]
DILUPBiCGStab:  Solving for Ux, Initial residual = 0.00971247, Final residual = 0.000240573, No Iterations 5
DILUPBiCGStab:  Solving for Uy, Initial residual = 0.0250132, Final residual = 0.000620901, No Iterations 5
DILUPBiCGStab:  Solving for Uz, Initial residual = 0.157795, Final residual = 0.00858884, No Iterations 5
piso setup 70.391 [ms]
 correctNonOrthogonal 
 setRef 
 startSolve 
GAMG:  Solving for p, Initial residual = 0.478225, Final residual = 5.63539e-05, No Iterations 23
piso step 813.26 [ms]
 contErrors 
time step continuity errors : sum local = 3.20808e-09, global = -2.65628e-21, cumulative = -3.05209e-20
piso setup 68.34 [ms]
 correctNonOrthogonal 
 setRef 
 startSolve 
GAMG:  Solving for p, Initial residual = 0.424467, Final residual = 7.76992e-05, No Iterations 22
piso step 782.745 [ms]
 contErrors 
time step continuity errors : sum local = 4.40618e-09, global = -2.07409e-21, cumulative = -3.2595e-20
ExecutionTime = 28.44 s  ClockTime = 29 s

Time = 0.003

Courant Number mean: 0.0500279 max: 0.483033
momentum setup 62.76 [ms]
DILUPBiCGStab:  Solving for Ux, Initial residual = 0.0086249, Final residual = 0.000201587, No Iterations 5
DILUPBiCGStab:  Solving for Uy, Initial residual = 0.022343, Final residual = 0.000512692, No Iterations 5
DILUPBiCGStab:  Solving for Uz, Initial residual = 0.122401, Final residual = 0.00590383, No Iterations 5
piso setup 70.754 [ms]
 correctNonOrthogonal 
 setRef 
 startSolve 
GAMG:  Solving for p, Initial residual = 0.421201, Final residual = 9.5126e-05, No Iterations 27
piso step 950.157 [ms]
 contErrors 
time step continuity errors : sum local = 5.24651e-09, global = -1.56554e-21, cumulative = -3.41605e-20
piso setup 68.164 [ms]
 correctNonOrthogonal 
 setRef 
 startSolve 
GAMG:  Solving for p, Initial residual = 0.374873, Final residual = 7.98098e-05, No Iterations 21
piso step 749.851 [ms]
 contErrors 
time step continuity errors : sum local = 4.37219e-09, global = -2.36163e-21, cumulative = -3.65221e-20
ExecutionTime = 30.82 s  ClockTime = 31 s

Time = 0.00325

Courant Number mean: 0.0516388 max: 0.483595
momentum setup 60.818 [ms]
DILUPBiCGStab:  Solving for Ux, Initial residual = 0.00782688, Final residual = 0.000172202, No Iterations 5
DILUPBiCGStab:  Solving for Uy, Initial residual = 0.0195566, Final residual = 0.000403082, No Iterations 5
DILUPBiCGStab:  Solving for Uz, Initial residual = 0.113783, Final residual = 0.00642557, No Iterations 5
piso setup 70.65 [ms]
 correctNonOrthogonal 
 setRef 
 startSolve 
GAMG:  Solving for p, Initial residual = 0.391015, Final residual = 8.77847e-05, No Iterations 27
piso step 958.658 [ms]
 contErrors 
time step continuity errors : sum local = 4.53471e-09, global = -1.04168e-21, cumulative = -3.75638e-20
piso setup 67.68 [ms]
 correctNonOrthogonal 
 setRef 
 startSolve 
GAMG:  Solving for p, Initial residual = 0.345056, Final residual = 9.39214e-05, No Iterations 24
piso step 866.878 [ms]
 contErrors 
time step continuity errors : sum local = 4.84107e-09, global = -4.25569e-21, cumulative = -4.18195e-20
ExecutionTime = 33.32 s  ClockTime = 33 s

Time = 0.0035

Courant Number mean: 0.0531352 max: 0.484192
momentum setup 60.287 [ms]
DILUPBiCGStab:  Solving for Ux, Initial residual = 0.00709549, Final residual = 0.000147667, No Iterations 5
DILUPBiCGStab:  Solving for Uy, Initial residual = 0.0177331, Final residual = 0.000334696, No Iterations 5
DILUPBiCGStab:  Solving for Uz, Initial residual = 0.10061, Final residual = 0.00531136, No Iterations 5
piso setup 70.408 [ms]
 correctNonOrthogonal 
 setRef 
 startSolve 
GAMG:  Solving for p, Initial residual = 0.34933, Final residual = 9.8622e-05, No Iterations 21
piso step 748.612 [ms]
 contErrors 
time step continuity errors : sum local = 4.909e-09, global = -4.27943e-21, cumulative = -4.60989e-20
piso setup 68.778 [ms]
 correctNonOrthogonal 
 setRef 
 startSolve 
GAMG:  Solving for p, Initial residual = 0.309946, Final residual = 9.24236e-05, No Iterations 29
piso step 1017.46 [ms]
 contErrors 
time step continuity errors : sum local = 4.59538e-09, global = -3.65938e-21, cumulative = -4.97583e-20
ExecutionTime = 35.77 s  ClockTime = 36 s

Time = 0.00375

Courant Number mean: 0.0545382 max: 0.484635
momentum setup 60.982 [ms]
DILUPBiCGStab:  Solving for Ux, Initial residual = 0.00650519, Final residual = 0.000127452, No Iterations 5
DILUPBiCGStab:  Solving for Uy, Initial residual = 0.0158833, Final residual = 0.000287783, No Iterations 5
DILUPBiCGStab:  Solving for Uz, Initial residual = 0.0911872, Final residual = 0.00499078, No Iterations 5
piso setup 70.643 [ms]
 correctNonOrthogonal 
 setRef 
 startSolve 
GAMG:  Solving for p, Initial residual = 0.317141, Final residual = 5.86187e-05, No Iterations 23
piso step 816.474 [ms]
 contErrors 
time step continuity errors : sum local = 2.81182e-09, global = -5.77443e-21, cumulative = -5.55328e-20
piso setup 68.201 [ms]
 correctNonOrthogonal 
 setRef 
 startSolve 
GAMG:  Solving for p, Initial residual = 0.279322, Final residual = 8.50745e-05, No Iterations 27
piso step 972.892 [ms]
 contErrors 
time step continuity errors : sum local = 4.06894e-09, global = -3.70489e-21, cumulative = -5.92376e-20
ExecutionTime = 38.25 s  ClockTime = 38 s

Time = 0.004

Courant Number mean: 0.0558526 max: 0.485095
momentum setup 60.876 [ms]
DILUPBiCGStab:  Solving for Ux, Initial residual = 0.00598386, Final residual = 0.000111229, No Iterations 5
DILUPBiCGStab:  Solving for Uy, Initial residual = 0.0145788, Final residual = 0.000244002, No Iterations 5
DILUPBiCGStab:  Solving for Uz, Initial residual = 0.0749083, Final residual = 0.00378649, No Iterations 5
piso setup 70.7 [ms]
 correctNonOrthogonal 
 setRef 
 startSolve 
GAMG:  Solving for p, Initial residual = 0.285908, Final residual = 7.68964e-05, No Iterations 16
piso step 579.603 [ms]
 contErrors 
time step continuity errors : sum local = 3.54317e-09, global = -3.62882e-21, cumulative = -6.28665e-20
piso setup 68.944 [ms]
 correctNonOrthogonal 
 setRef 
 startSolve 
GAMG:  Solving for p, Initial residual = 0.252942, Final residual = 6.1289e-05, No Iterations 16
piso step 582.762 [ms]
 contErrors 
time step continuity errors : sum local = 2.82348e-09, global = -4.72812e-21, cumulative = -6.75946e-20
ExecutionTime = 40.09 s  ClockTime = 40 s

Time = 0.00425

Courant Number mean: 0.057092 max: 0.48545
momentum setup 60.716 [ms]
DILUPBiCGStab:  Solving for Ux, Initial residual = 0.00553267, Final residual = 9.68985e-05, No Iterations 5
DILUPBiCGStab:  Solving for Uy, Initial residual = 0.0132738, Final residual = 0.00022278, No Iterations 5
DILUPBiCGStab:  Solving for Uz, Initial residual = 0.0617894, Final residual = 0.00313707, No Iterations 5
piso setup 70.466 [ms]
 correctNonOrthogonal 
 setRef 
 startSolve 
GAMG:  Solving for p, Initial residual = 0.255355, Final residual = 9.69097e-05, No Iterations 25
piso step 881.866 [ms]
 contErrors 
time step continuity errors : sum local = 4.3603e-09, global = -5.07449e-22, cumulative = -6.8102e-20
piso setup 68.631 [ms]
 correctNonOrthogonal 
 setRef 
 startSolve 
GAMG:  Solving for p, Initial residual = 0.224352, Final residual = 9.46776e-05, No Iterations 19
piso step 679.722 [ms]
 contErrors 
time step continuity errors : sum local = 4.2683e-09, global = -4.59178e-21, cumulative = -7.26938e-20
ExecutionTime = 42.34 s  ClockTime = 43 s

Time = 0.0045

Courant Number mean: 0.0582617 max: 0.485817
momentum setup 61.08 [ms]
DILUPBiCGStab:  Solving for Ux, Initial residual = 0.00514254, Final residual = 8.57878e-05, No Iterations 5
DILUPBiCGStab:  Solving for Uy, Initial residual = 0.0123035, Final residual = 0.000193045, No Iterations 5
DILUPBiCGStab:  Solving for Uz, Initial residual = 0.0632092, Final residual = 0.00310961, No Iterations 5
piso setup 71.106 [ms]
 correctNonOrthogonal 
 setRef 
 startSolve 
GAMG:  Solving for p, Initial residual = 0.23308, Final residual = 7.57001e-05, No Iterations 20
piso step 745.2 [ms]
 contErrors 
time step continuity errors : sum local = 3.27942e-09, global = -4.59096e-21, cumulative = -7.72848e-20
piso setup 68.627 [ms]
 correctNonOrthogonal 
 setRef 
 startSolve 
GAMG:  Solving for p, Initial residual = 0.205818, Final residual = 8.48701e-05, No Iterations 21
piso step 748.367 [ms]
 contErrors 
time step continuity errors : sum local = 3.66791e-09, global = -2.76307e-21, cumulative = -8.00479e-20
ExecutionTime = 44.51 s  ClockTime = 45 s

Time = 0.00475

Courant Number mean: 0.0593702 max: 0.486125
momentum setup 61.102 [ms]
DILUPBiCGStab:  Solving for Ux, Initial residual = 0.00478913, Final residual = 7.55895e-05, No Iterations 5
DILUPBiCGStab:  Solving for Uy, Initial residual = 0.0113381, Final residual = 0.000180364, No Iterations 5
DILUPBiCGStab:  Solving for Uz, Initial residual = 0.0559935, Final residual = 0.00260202, No Iterations 5
piso setup 70.613 [ms]
 correctNonOrthogonal 
 setRef 
 startSolve 
GAMG:  Solving for p, Initial residual = 0.206481, Final residual = 8.56074e-05, No Iterations 20
piso step 714.142 [ms]
 contErrors 
time step continuity errors : sum local = 3.68163e-09, global = -5.57357e-21, cumulative = -8.56214e-20
piso setup 68.663 [ms]
 correctNonOrthogonal 
 setRef 
 startSolve 
GAMG:  Solving for p, Initial residual = 0.181275, Final residual = 6.65676e-05, No Iterations 20
piso step 723.872 [ms]
 contErrors 
time step continuity errors : sum local = 2.85831e-09, global = 4.95979e-22, cumulative = -8.51254e-20
ExecutionTime = 46.64 s  ClockTime = 47 s

Time = 0.005

Courant Number mean: 0.0604212 max: 0.486423
momentum setup 60.872 [ms]
DILUPBiCGStab:  Solving for Ux, Initial residual = 0.0044868, Final residual = 6.7896e-05, No Iterations 5
DILUPBiCGStab:  Solving for Uy, Initial residual = 0.0105979, Final residual = 0.000159017, No Iterations 5
DILUPBiCGStab:  Solving for Uz, Initial residual = 0.0485379, Final residual = 0.00212055, No Iterations 5
piso setup 70.252 [ms]
 correctNonOrthogonal 
 setRef 
 startSolve 
GAMG:  Solving for p, Initial residual = 0.187842, Final residual = 9.52359e-05, No Iterations 22
piso step 780.189 [ms]
 contErrors 
time step continuity errors : sum local = 3.93906e-09, global = -3.56072e-21, cumulative = -8.86862e-20
piso setup 68.596 [ms]
 correctNonOrthogonal 
 setRef 
 startSolve 
GAMG:  Solving for p, Initial residual = 0.165483, Final residual = 7.84478e-05, No Iterations 21
piso step 747.767 [ms]
 contErrors 
time step continuity errors : sum local = 3.23956e-09, global = -6.26751e-21, cumulative = -9.49537e-20
ExecutionTime = 48.85 s  ClockTime = 49 s

End

Finalising parallel run
