/*---------------------------------------------------------------------------*\
| =========                 |                                                 |
| \\      /  F ield         | OpenFOAM: The Open Source CFD Toolbox           |
|  \\    /   O peration     | Version:  2306                                  |
|   \\  /    A nd           | Website:  www.openfoam.com                      |
|    \\/     M anipulation  |                                                 |
\*---------------------------------------------------------------------------*/
Build  : c423ebec-20231012 OPENFOAM=2306 version=v2306
Arch   : "LSB;label=32;scalar=64"
Exec   : decomposePar -force
Date   : Feb 16 2024
Time   : 09:03:40
Host   : hkn0047.localdomain
PID    : 3013296
--> FOAM Warning : 
    From Foam::fileName Foam::cwd_L()
    in file POSIX.C at line 552
    PWD is not the cwd() - reverting to physical description
I/O    : uncollated
--> FOAM Warning : 
    From Foam::fileName Foam::cwd_L()
    in file POSIX.C at line 552
    PWD is not the cwd() - reverting to physical description
Case   : /hkfs/work/workspace/scratch/eq4036-windsorbody_setup/workspace/637a46084d15ca2df4839e0163f69de2/case
nProcs : 1
trapFpe: Floating point exception trapping enabled (FOAM_SIGFPE).
fileModificationChecking : Monitoring run-time modified files using timeStampMaster (fileModificationSkew 5, maxFileModificationPolls 20)
allowSystemOperations : Allowing user-supplied system call operations

// * * * * * * * * * * * * * * * * * * * * * * * * * * * * * * * * * * * * * //
Create time

--> FOAM Warning : 
    From void* Foam::dlLibraryTable::openLibrary(const Foam::fileName&, bool)
    in file db/dynamicLibrary/dlLibraryTable/dlLibraryTable.C at line 188
    Could not load "libpetscFoam.so"
libpetscFoam.so: cannot open shared object file: No such file or directory


Decomposing mesh

Create mesh

Calculating distribution of cells
Decomposition method simple [72] (region region0)

Finished decomposition in 7.89 s

Calculating original mesh data

Distributing cells to processors

Distributing faces to processors

Distributing points to processors

Constructing processor meshes

Processor 0
    Number of cells = 208126
    Number of points = 252643
    Number of faces shared with processor 1 = 848
    Number of faces shared with processor 4 = 311
    Number of faces shared with processor 8 = 47465
    Number of faces shared with processor 9 = 5
    Number of processor patches = 4
    Number of processor faces = 48629
    Number of boundary faces = 44729

Processor 1
    Number of cells = 99635
    Number of points = 124588
    Number of faces shared with processor 0 = 848
    Number of faces shared with processor 2 = 768
    Number of faces shared with processor 5 = 27
    Number of faces shared with processor 9 = 25081
    Number of faces shared with processor 10 = 1
    Number of processor patches = 5
    Number of processor faces = 26725
    Number of boundary faces = 24329

Processor 2
    Number of cells = 88173
    Number of points = 112452
    Number of faces shared with processor 1 = 768
    Number of faces shared with processor 3 = 687
    Number of faces shared with processor 6 = 24
    Number of faces shared with processor 10 = 24436
    Number of faces shared with processor 11 = 3
    Number of processor patches = 5
    Number of processor faces = 25918
    Number of boundary faces = 23907

Processor 3
    Number of cells = 140645
    Number of points = 189199
    Number of faces shared with processor 2 = 687
    Number of faces shared with processor 7 = 120
    Number of faces shared with processor 11 = 50862
    Number of processor patches = 3
    Number of processor faces = 51669
    Number of boundary faces = 49479

Processor 4
    Number of cells = 298573
    Number of points = 342575
    Number of faces shared with processor 0 = 311
    Number of faces shared with processor 5 = 1244
    Number of faces shared with processor 8 = 1
    Number of faces shared with processor 12 = 47446
    Number of processor patches = 4
    Number of processor faces = 49002
    Number of boundary faces = 44970

Processor 5
    Number of cells = 157929
    Number of points = 183244
    Number of faces shared with processor 1 = 27
    Number of faces shared with processor 4 = 1244
    Number of faces shared with processor 6 = 1235
    Number of faces shared with processor 9 = 1
    Number of faces shared with processor 13 = 25396
    Number of processor patches = 5
    Number of processor faces = 27903
    Number of boundary faces = 24451

Processor 6
    Number of cells = 143578
    Number of points = 168257
    Number of faces shared with processor 2 = 24
    Number of faces shared with processor 5 = 1235
    Number of faces shared with processor 7 = 1140
    Number of faces shared with processor 13 = 1
    Number of faces shared with processor 14 = 24942
    Number of faces shared with processor 15 = 2
    Number of processor patches = 6
    Number of processor faces = 27344
    Number of boundary faces = 23884

Processor 7
    Number of cells = 264927
    Number of points = 313413
    Number of faces shared with processor 3 = 120
    Number of faces shared with processor 6 = 1140
    Number of faces shared with processor 11 = 2
    Number of faces shared with processor 15 = 52057
    Number of processor patches = 4
    Number of processor faces = 53319
    Number of boundary faces = 50199

Processor 8
    Number of cells = 219714
    Number of points = 265291
    Number of faces shared with processor 0 = 47465
    Number of faces shared with processor 4 = 1
    Number of faces shared with processor 9 = 1003
    Number of faces shared with processor 12 = 185
    Number of faces shared with processor 16 = 46878
    Number of faces shared with processor 17 = 7
    Number of processor patches = 6
    Number of processor faces = 95539
    Number of boundary faces = 985

Processor 9
    Number of cells = 131042
    Number of points = 156401
    Number of faces shared with processor 0 = 5
    Number of faces shared with processor 1 = 25081
    Number of faces shared with processor 5 = 1
    Number of faces shared with processor 8 = 1003
    Number of faces shared with processor 10 = 1123
    Number of faces shared with processor 13 = 34
    Number of faces shared with processor 16 = 1
    Number of faces shared with processor 17 = 25112
    Number of processor patches = 8
    Number of processor faces = 52360
    Number of boundary faces = 36

Processor 10
    Number of cells = 137969
    Number of points = 162809
    Number of faces shared with processor 1 = 1
    Number of faces shared with processor 2 = 24436
    Number of faces shared with processor 9 = 1123
    Number of faces shared with processor 11 = 1195
    Number of faces shared with processor 14 = 24
    Number of faces shared with processor 17 = 2
    Number of faces shared with processor 18 = 24726
    Number of faces shared with processor 19 = 3
    Number of processor patches = 8
    Number of processor faces = 51510
    Number of boundary faces = 35

Processor 11
    Number of cells = 314024
    Number of points = 363155
    Number of faces shared with processor 2 = 3
    Number of faces shared with processor 3 = 50862
    Number of faces shared with processor 7 = 2
    Number of faces shared with processor 10 = 1195
    Number of faces shared with processor 15 = 214
    Number of faces shared with processor 18 = 1
    Number of faces shared with processor 19 = 52646
    Number of processor patches = 7
    Number of processor faces = 104923
    Number of boundary faces = 804

Processor 12
    Number of cells = 158554
    Number of points = 203708
    Number of faces shared with processor 4 = 47446
    Number of faces shared with processor 8 = 185
    Number of faces shared with processor 13 = 742
    Number of faces shared with processor 20 = 45408
    Number of faces shared with processor 21 = 1
    Number of processor patches = 5
    Number of processor faces = 93782
    Number of boundary faces = 871

Processor 13
    Number of cells = 97526
    Number of points = 122782
    Number of faces shared with processor 5 = 25396
    Number of faces shared with processor 6 = 1
    Number of faces shared with processor 9 = 34
    Number of faces shared with processor 12 = 742
    Number of faces shared with processor 14 = 855
    Number of faces shared with processor 17 = 1
    Number of faces shared with processor 21 = 24866
    Number of faces shared with processor 22 = 3
    Number of processor patches = 8
    Number of processor faces = 51898
    Number of boundary faces = 23

Processor 14
    Number of cells = 105398
    Number of points = 130337
    Number of faces shared with processor 6 = 24942
    Number of faces shared with processor 10 = 24
    Number of faces shared with processor 13 = 855
    Number of faces shared with processor 15 = 927
    Number of faces shared with processor 22 = 24527
    Number of faces shared with processor 23 = 2
    Number of processor patches = 6
    Number of processor faces = 51277
    Number of boundary faces = 24

Processor 15
    Number of cells = 237359
    Number of points = 287283
    Number of faces shared with processor 6 = 2
    Number of faces shared with processor 7 = 52057
    Number of faces shared with processor 11 = 214
    Number of faces shared with processor 14 = 927
    Number of faces shared with processor 23 = 52333
    Number of processor patches = 5
    Number of processor faces = 105533
    Number of boundary faces = 278

Processor 16
    Number of cells = 227558
    Number of points = 275434
    Number of faces shared with processor 8 = 46878
    Number of faces shared with processor 9 = 1
    Number of faces shared with processor 17 = 1023
    Number of faces shared with processor 20 = 142
    Number of faces shared with processor 24 = 46845
    Number of faces shared with processor 25 = 2
    Number of processor patches = 6
    Number of processor faces = 94891
    Number of boundary faces = 1288

Processor 17
    Number of cells = 118705
    Number of points = 144764
    Number of faces shared with processor 8 = 7
    Number of faces shared with processor 9 = 25112
    Number of faces shared with processor 10 = 2
    Number of faces shared with processor 13 = 1
    Number of faces shared with processor 16 = 1023
    Number of faces shared with processor 18 = 951
    Number of faces shared with processor 21 = 18
    Number of faces shared with processor 25 = 24866
    Number of processor patches = 8
    Number of processor faces = 51980
    Number of boundary faces = 27

Processor 18
    Number of cells = 114590
    Number of points = 139998
    Number of faces shared with processor 10 = 24726
    Number of faces shared with processor 11 = 1
    Number of faces shared with processor 17 = 951
    Number of faces shared with processor 19 = 948
    Number of faces shared with processor 22 = 24
    Number of faces shared with processor 25 = 3
    Number of faces shared with processor 26 = 24008
    Number of faces shared with processor 27 = 2
    Number of processor patches = 8
    Number of processor faces = 50663
    Number of boundary faces = 24

Processor 19
    Number of cells = 233269
    Number of points = 283997
    Number of faces shared with processor 10 = 3
    Number of faces shared with processor 11 = 52646
    Number of faces shared with processor 18 = 948
    Number of faces shared with processor 23 = 168
    Number of faces shared with processor 27 = 49856
    Number of processor patches = 5
    Number of processor faces = 103621
    Number of boundary faces = 294

Processor 20
    Number of cells = 259205
    Number of points = 307240
    Number of faces shared with processor 12 = 45408
    Number of faces shared with processor 16 = 142
    Number of faces shared with processor 21 = 1133
    Number of faces shared with processor 28 = 47867
    Number of faces shared with processor 29 = 1
    Number of processor patches = 5
    Number of processor faces = 94551
    Number of boundary faces = 1279

Processor 21
    Number of cells = 121924
    Number of points = 148197
    Number of faces shared with processor 12 = 1
    Number of faces shared with processor 13 = 24866
    Number of faces shared with processor 17 = 18
    Number of faces shared with processor 20 = 1133
    Number of faces shared with processor 22 = 922
    Number of faces shared with processor 29 = 24899
    Number of faces shared with processor 30 = 21
    Number of processor patches = 7
    Number of processor faces = 51860
    Number of boundary faces = 20

Processor 22
    Number of cells = 113948
    Number of points = 139362
    Number of faces shared with processor 13 = 3
    Number of faces shared with processor 14 = 24527
    Number of faces shared with processor 18 = 24
    Number of faces shared with processor 21 = 922
    Number of faces shared with processor 23 = 920
    Number of faces shared with processor 30 = 23619
    Number of faces shared with processor 31 = 1
    Number of processor patches = 7
    Number of processor faces = 50016
    Number of boundary faces = 16

Processor 23
    Number of cells = 212387
    Number of points = 264381
    Number of faces shared with processor 14 = 2
    Number of faces shared with processor 15 = 52333
    Number of faces shared with processor 19 = 168
    Number of faces shared with processor 22 = 920
    Number of faces shared with processor 31 = 50139
    Number of processor patches = 5
    Number of processor faces = 103562
    Number of boundary faces = 205

Processor 24
    Number of cells = 233770
    Number of points = 284491
    Number of faces shared with processor 16 = 46845
    Number of faces shared with processor 25 = 1227
    Number of faces shared with processor 28 = 71
    Number of faces shared with processor 32 = 16092
    Number of faces shared with processor 33 = 4
    Number of faces shared with processor 40 = 1294
    Number of processor patches = 6
    Number of processor faces = 65533
    Number of boundary faces = 23439

Processor 25
    Number of cells = 184704
    Number of points = 213209
    Number of faces shared with processor 16 = 2
    Number of faces shared with processor 17 = 24866
    Number of faces shared with processor 18 = 3
    Number of faces shared with processor 24 = 1227
    Number of faces shared with processor 26 = 1457
    Number of faces shared with processor 29 = 9
    Number of faces shared with processor 33 = 19239
    Number of faces shared with processor 34 = 5
    Number of faces shared with processor 41 = 18
    Number of processor patches = 9
    Number of processor faces = 46826
    Number of boundary faces = 2989

Processor 26
    Number of cells = 176787
    Number of points = 203864
    Number of faces shared with processor 18 = 24008
    Number of faces shared with processor 25 = 1457
    Number of faces shared with processor 27 = 1432
    Number of faces shared with processor 30 = 8
    Number of faces shared with processor 34 = 19653
    Number of faces shared with processor 35 = 1
    Number of faces shared with processor 42 = 16
    Number of processor patches = 7
    Number of processor faces = 46575
    Number of boundary faces = 8

Processor 27
    Number of cells = 152435
    Number of points = 205417
    Number of faces shared with processor 18 = 2
    Number of faces shared with processor 19 = 49856
    Number of faces shared with processor 26 = 1432
    Number of faces shared with processor 31 = 56
    Number of faces shared with processor 34 = 2
    Number of faces shared with processor 35 = 20965
    Number of faces shared with processor 43 = 847
    Number of processor patches = 7
    Number of processor faces = 73160
    Number of boundary faces = 94

Processor 28
    Number of cells = 179005
    Number of points = 230130
    Number of faces shared with processor 20 = 47867
    Number of faces shared with processor 24 = 71
    Number of faces shared with processor 29 = 888
    Number of faces shared with processor 36 = 15753
    Number of faces shared with processor 37 = 1
    Number of faces shared with processor 44 = 1212
    Number of processor patches = 6
    Number of processor faces = 65792
    Number of boundary faces = 23562

Processor 29
    Number of cells = 173747
    Number of points = 202315
    Number of faces shared with processor 20 = 1
    Number of faces shared with processor 21 = 24899
    Number of faces shared with processor 25 = 9
    Number of faces shared with processor 28 = 888
    Number of faces shared with processor 30 = 1333
    Number of faces shared with processor 36 = 1
    Number of faces shared with processor 37 = 19251
    Number of faces shared with processor 38 = 3
    Number of faces shared with processor 45 = 19
    Number of processor patches = 9
    Number of processor faces = 46404
    Number of boundary faces = 3211

Processor 30
    Number of cells = 160678
    Number of points = 187577
    Number of faces shared with processor 21 = 21
    Number of faces shared with processor 22 = 23619
    Number of faces shared with processor 26 = 8
    Number of faces shared with processor 29 = 1333
    Number of faces shared with processor 31 = 1267
    Number of faces shared with processor 37 = 1
    Number of faces shared with processor 38 = 19824
    Number of faces shared with processor 39 = 1
    Number of faces shared with processor 46 = 16
    Number of processor patches = 9
    Number of processor faces = 46090
    Number of boundary faces = 8

Processor 31
    Number of cells = 140460
    Number of points = 193386
    Number of faces shared with processor 22 = 1
    Number of faces shared with processor 23 = 50139
    Number of faces shared with processor 27 = 56
    Number of faces shared with processor 30 = 1267
    Number of faces shared with processor 38 = 3
    Number of faces shared with processor 39 = 21406
    Number of faces shared with processor 47 = 856
    Number of processor patches = 7
    Number of processor faces = 73728
    Number of boundary faces = 82

Processor 32
    Number of cells = 109618
    Number of points = 132863
    Number of faces shared with processor 24 = 16092
    Number of faces shared with processor 33 = 680
    Number of faces shared with processor 40 = 12015
    Number of faces shared with processor 41 = 6
    Number of processor patches = 4
    Number of processor faces = 28793
    Number of boundary faces = 6323

Processor 33
    Number of cells = 215640
    Number of points = 239292
    Number of faces shared with processor 24 = 4
    Number of faces shared with processor 25 = 19239
    Number of faces shared with processor 32 = 680
    Number of faces shared with processor 34 = 1792
    Number of faces shared with processor 40 = 4
    Number of faces shared with processor 41 = 17995
    Number of processor patches = 6
    Number of processor faces = 39714
    Number of boundary faces = 1625

Processor 34
    Number of cells = 222761
    Number of points = 246469
    Number of faces shared with processor 25 = 5
    Number of faces shared with processor 26 = 19653
    Number of faces shared with processor 27 = 2
    Number of faces shared with processor 33 = 1792
    Number of faces shared with processor 35 = 1837
    Number of faces shared with processor 41 = 2
    Number of faces shared with processor 42 = 18504
    Number of faces shared with processor 43 = 3
    Number of processor patches = 8
    Number of processor faces = 41798
    Number of boundary faces = 0

Processor 35
    Number of cells = 156183
    Number of points = 180935
    Number of faces shared with processor 26 = 1
    Number of faces shared with processor 27 = 20965
    Number of faces shared with processor 34 = 1837
    Number of faces shared with processor 42 = 2
    Number of faces shared with processor 43 = 18487
    Number of processor patches = 5
    Number of processor faces = 41292
    Number of boundary faces = 8

Processor 36
    Number of cells = 107221
    Number of points = 130396
    Number of faces shared with processor 28 = 15753
    Number of faces shared with processor 29 = 1
    Number of faces shared with processor 37 = 619
    Number of faces shared with processor 44 = 12377
    Number of faces shared with processor 45 = 9
    Number of faces shared with processor 52 = 81
    Number of processor patches = 6
    Number of processor faces = 28840
    Number of boundary faces = 6336

Processor 37
    Number of cells = 215814
    Number of points = 239412
    Number of faces shared with processor 28 = 1
    Number of faces shared with processor 29 = 19251
    Number of faces shared with processor 30 = 1
    Number of faces shared with processor 36 = 619
    Number of faces shared with processor 38 = 1818
    Number of faces shared with processor 44 = 1
    Number of faces shared with processor 45 = 18226
    Number of faces shared with processor 46 = 2
    Number of processor patches = 8
    Number of processor faces = 39919
    Number of boundary faces = 1638

Processor 38
    Number of cells = 227010
    Number of points = 250827
    Number of faces shared with processor 29 = 3
    Number of faces shared with processor 30 = 19824
    Number of faces shared with processor 31 = 3
    Number of faces shared with processor 37 = 1818
    Number of faces shared with processor 39 = 1809
    Number of faces shared with processor 45 = 2
    Number of faces shared with processor 46 = 18782
    Number of faces shared with processor 47 = 4
    Number of processor patches = 8
    Number of processor faces = 42245
    Number of boundary faces = 0

Processor 39
    Number of cells = 147339
    Number of points = 172402
    Number of faces shared with processor 30 = 1
    Number of faces shared with processor 31 = 21406
    Number of faces shared with processor 38 = 1809
    Number of faces shared with processor 46 = 1
    Number of faces shared with processor 47 = 18516
    Number of processor patches = 5
    Number of processor faces = 41733
    Number of boundary faces = 0

Processor 40
    Number of cells = 112510
    Number of points = 132011
    Number of faces shared with processor 24 = 1294
    Number of faces shared with processor 32 = 12015
    Number of faces shared with processor 33 = 4
    Number of faces shared with processor 41 = 644
    Number of faces shared with processor 44 = 71
    Number of faces shared with processor 48 = 14116
    Number of processor patches = 6
    Number of processor faces = 28144
    Number of boundary faces = 7952

Processor 41
    Number of cells = 225299
    Number of points = 247860
    Number of faces shared with processor 25 = 18
    Number of faces shared with processor 32 = 6
    Number of faces shared with processor 33 = 17995
    Number of faces shared with processor 34 = 2
    Number of faces shared with processor 40 = 644
    Number of faces shared with processor 42 = 1810
    Number of faces shared with processor 45 = 9
    Number of faces shared with processor 48 = 1
    Number of faces shared with processor 49 = 17986
    Number of processor patches = 9
    Number of processor faces = 38471
    Number of boundary faces = 1759

Processor 42
    Number of cells = 225526
    Number of points = 248267
    Number of faces shared with processor 26 = 16
    Number of faces shared with processor 34 = 18504
    Number of faces shared with processor 35 = 2
    Number of faces shared with processor 41 = 1810
    Number of faces shared with processor 43 = 1772
    Number of faces shared with processor 46 = 8
    Number of faces shared with processor 49 = 1
    Number of faces shared with processor 50 = 18677
    Number of faces shared with processor 51 = 2
    Number of processor patches = 9
    Number of processor faces = 40792
    Number of boundary faces = 8

Processor 43
    Number of cells = 144343
    Number of points = 167323
    Number of faces shared with processor 27 = 847
    Number of faces shared with processor 34 = 3
    Number of faces shared with processor 35 = 18487
    Number of faces shared with processor 42 = 1772
    Number of faces shared with processor 47 = 56
    Number of faces shared with processor 50 = 1
    Number of faces shared with processor 51 = 19026
    Number of faces shared with processor 59 = 64
    Number of processor patches = 8
    Number of processor faces = 40256
    Number of boundary faces = 82

Processor 44
    Number of cells = 110990
    Number of points = 130671
    Number of faces shared with processor 28 = 1212
    Number of faces shared with processor 36 = 12377
    Number of faces shared with processor 37 = 1
    Number of faces shared with processor 40 = 71
    Number of faces shared with processor 45 = 585
    Number of faces shared with processor 52 = 14692
    Number of faces shared with processor 53 = 1
    Number of processor patches = 7
    Number of processor faces = 28939
    Number of boundary faces = 7883

Processor 45
    Number of cells = 213112
    Number of points = 235762
    Number of faces shared with processor 29 = 19
    Number of faces shared with processor 36 = 9
    Number of faces shared with processor 37 = 18226
    Number of faces shared with processor 38 = 2
    Number of faces shared with processor 41 = 9
    Number of faces shared with processor 44 = 585
    Number of faces shared with processor 46 = 1731
    Number of faces shared with processor 52 = 1
    Number of faces shared with processor 53 = 18151
    Number of faces shared with processor 54 = 1
    Number of processor patches = 10
    Number of processor faces = 38734
    Number of boundary faces = 1706

Processor 46
    Number of cells = 223212
    Number of points = 245843
    Number of faces shared with processor 30 = 16
    Number of faces shared with processor 37 = 2
    Number of faces shared with processor 38 = 18782
    Number of faces shared with processor 39 = 1
    Number of faces shared with processor 42 = 8
    Number of faces shared with processor 45 = 1731
    Number of faces shared with processor 47 = 1771
    Number of faces shared with processor 53 = 1
    Number of faces shared with processor 54 = 18392
    Number of faces shared with processor 55 = 2
    Number of processor patches = 10
    Number of processor faces = 40706
    Number of boundary faces = 8

Processor 47
    Number of cells = 146594
    Number of points = 169356
    Number of faces shared with processor 31 = 856
    Number of faces shared with processor 38 = 4
    Number of faces shared with processor 39 = 18516
    Number of faces shared with processor 43 = 56
    Number of faces shared with processor 46 = 1771
    Number of faces shared with processor 55 = 18962
    Number of processor patches = 6
    Number of processor faces = 40165
    Number of boundary faces = 82

Processor 48
    Number of cells = 112185
    Number of points = 131872
    Number of faces shared with processor 40 = 14116
    Number of faces shared with processor 41 = 1
    Number of faces shared with processor 49 = 610
    Number of faces shared with processor 52 = 71
    Number of faces shared with processor 56 = 13936
    Number of faces shared with processor 64 = 190
    Number of processor patches = 6
    Number of processor faces = 28924
    Number of boundary faces = 7343

Processor 49
    Number of cells = 210515
    Number of points = 233021
    Number of faces shared with processor 41 = 17986
    Number of faces shared with processor 42 = 1
    Number of faces shared with processor 48 = 610
    Number of faces shared with processor 50 = 1729
    Number of faces shared with processor 53 = 9
    Number of faces shared with processor 56 = 9
    Number of faces shared with processor 57 = 18229
    Number of faces shared with processor 58 = 1
    Number of processor patches = 8
    Number of processor faces = 38574
    Number of boundary faces = 1634

Processor 50
    Number of cells = 224459
    Number of points = 247058
    Number of faces shared with processor 42 = 18677
    Number of faces shared with processor 43 = 1
    Number of faces shared with processor 49 = 1729
    Number of faces shared with processor 51 = 1824
    Number of faces shared with processor 54 = 8
    Number of faces shared with processor 57 = 1
    Number of faces shared with processor 58 = 18593
    Number of processor patches = 7
    Number of processor faces = 40833
    Number of boundary faces = 8

Processor 51
    Number of cells = 139219
    Number of points = 161862
    Number of faces shared with processor 42 = 2
    Number of faces shared with processor 43 = 19026
    Number of faces shared with processor 50 = 1824
    Number of faces shared with processor 55 = 56
    Number of faces shared with processor 58 = 1
    Number of faces shared with processor 59 = 18620
    Number of faces shared with processor 67 = 84
    Number of processor patches = 7
    Number of processor faces = 39613
    Number of boundary faces = 82

Processor 52
    Number of cells = 113067
    Number of points = 133040
    Number of faces shared with processor 36 = 81
    Number of faces shared with processor 44 = 14692
    Number of faces shared with processor 45 = 1
    Number of faces shared with processor 48 = 71
    Number of faces shared with processor 53 = 582
    Number of faces shared with processor 60 = 13643
    Number of faces shared with processor 61 = 6
    Number of faces shared with processor 68 = 190
    Number of processor patches = 8
    Number of processor faces = 29266
    Number of boundary faces = 7330

Processor 53
    Number of cells = 221357
    Number of points = 243884
    Number of faces shared with processor 44 = 1
    Number of faces shared with processor 45 = 18151
    Number of faces shared with processor 46 = 1
    Number of faces shared with processor 49 = 9
    Number of faces shared with processor 52 = 582
    Number of faces shared with processor 54 = 1836
    Number of faces shared with processor 60 = 2
    Number of faces shared with processor 61 = 17898
    Number of faces shared with processor 62 = 1
    Number of processor patches = 9
    Number of processor faces = 38481
    Number of boundary faces = 1716

Processor 54
    Number of cells = 233460
    Number of points = 255970
    Number of faces shared with processor 45 = 1
    Number of faces shared with processor 46 = 18392
    Number of faces shared with processor 50 = 8
    Number of faces shared with processor 53 = 1836
    Number of faces shared with processor 55 = 1807
    Number of faces shared with processor 62 = 18483
    Number of faces shared with processor 63 = 1
    Number of processor patches = 7
    Number of processor faces = 40528
    Number of boundary faces = 8

Processor 55
    Number of cells = 147324
    Number of points = 170035
    Number of faces shared with processor 46 = 2
    Number of faces shared with processor 47 = 18962
    Number of faces shared with processor 51 = 56
    Number of faces shared with processor 54 = 1807
    Number of faces shared with processor 62 = 7
    Number of faces shared with processor 63 = 18671
    Number of faces shared with processor 71 = 100
    Number of processor patches = 7
    Number of processor faces = 39605
    Number of boundary faces = 82

Processor 56
    Number of cells = 144893
    Number of points = 172669
    Number of faces shared with processor 48 = 13936
    Number of faces shared with processor 49 = 9
    Number of faces shared with processor 57 = 926
    Number of faces shared with processor 60 = 71
    Number of faces shared with processor 64 = 21713
    Number of processor patches = 5
    Number of processor faces = 36655
    Number of boundary faces = 17000

Processor 57
    Number of cells = 215744
    Number of points = 239597
    Number of faces shared with processor 49 = 18229
    Number of faces shared with processor 50 = 1
    Number of faces shared with processor 56 = 926
    Number of faces shared with processor 58 = 1668
    Number of faces shared with processor 61 = 9
    Number of faces shared with processor 64 = 11
    Number of faces shared with processor 65 = 19258
    Number of faces shared with processor 66 = 1
    Number of processor patches = 8
    Number of processor faces = 40103
    Number of boundary faces = 3531

Processor 58
    Number of cells = 208342
    Number of points = 230856
    Number of faces shared with processor 49 = 1
    Number of faces shared with processor 50 = 18593
    Number of faces shared with processor 51 = 1
    Number of faces shared with processor 57 = 1668
    Number of faces shared with processor 59 = 1585
    Number of faces shared with processor 62 = 8
    Number of faces shared with processor 65 = 1
    Number of faces shared with processor 66 = 18482
    Number of processor patches = 8
    Number of processor faces = 40339
    Number of boundary faces = 8

Processor 59
    Number of cells = 133881
    Number of points = 156338
    Number of faces shared with processor 43 = 64
    Number of faces shared with processor 51 = 18620
    Number of faces shared with processor 58 = 1585
    Number of faces shared with processor 63 = 56
    Number of faces shared with processor 66 = 2
    Number of faces shared with processor 67 = 18118
    Number of processor patches = 6
    Number of processor faces = 38445
    Number of boundary faces = 82

Processor 60
    Number of cells = 164063
    Number of points = 191216
    Number of faces shared with processor 52 = 13643
    Number of faces shared with processor 53 = 2
    Number of faces shared with processor 56 = 71
    Number of faces shared with processor 61 = 1053
    Number of faces shared with processor 68 = 20900
    Number of faces shared with processor 69 = 8
    Number of processor patches = 6
    Number of processor faces = 35677
    Number of boundary faces = 16500

Processor 61
    Number of cells = 208394
    Number of points = 231925
    Number of faces shared with processor 52 = 6
    Number of faces shared with processor 53 = 17898
    Number of faces shared with processor 57 = 9
    Number of faces shared with processor 60 = 1053
    Number of faces shared with processor 62 = 1581
    Number of faces shared with processor 69 = 19074
    Number of faces shared with processor 70 = 1
    Number of processor patches = 7
    Number of processor faces = 39622
    Number of boundary faces = 3450

Processor 62
    Number of cells = 200262
    Number of points = 222484
    Number of faces shared with processor 53 = 1
    Number of faces shared with processor 54 = 18483
    Number of faces shared with processor 55 = 7
    Number of faces shared with processor 58 = 8
    Number of faces shared with processor 61 = 1581
    Number of faces shared with processor 63 = 1570
    Number of faces shared with processor 70 = 18135
    Number of faces shared with processor 71 = 1
    Number of processor patches = 8
    Number of processor faces = 39786
    Number of boundary faces = 8

Processor 63
    Number of cells = 126006
    Number of points = 148293
    Number of faces shared with processor 54 = 1
    Number of faces shared with processor 55 = 18671
    Number of faces shared with processor 59 = 56
    Number of faces shared with processor 62 = 1570
    Number of faces shared with processor 70 = 1
    Number of faces shared with processor 71 = 17808
    Number of processor patches = 6
    Number of processor faces = 38107
    Number of boundary faces = 82

Processor 64
    Number of cells = 210355
    Number of points = 238532
    Number of faces shared with processor 48 = 190
    Number of faces shared with processor 56 = 21713
    Number of faces shared with processor 57 = 11
    Number of faces shared with processor 65 = 2736
    Number of faces shared with processor 68 = 923
    Number of processor patches = 5
    Number of processor faces = 25573
    Number of boundary faces = 3107

Processor 65
    Number of cells = 175898
    Number of points = 199571
    Number of faces shared with processor 57 = 19258
    Number of faces shared with processor 58 = 1
    Number of faces shared with processor 64 = 2736
    Number of faces shared with processor 66 = 2779
    Number of faces shared with processor 69 = 117
    Number of processor patches = 5
    Number of processor faces = 24891
    Number of boundary faces = 351

Processor 66
    Number of cells = 177310
    Number of points = 200667
    Number of faces shared with processor 57 = 1
    Number of faces shared with processor 58 = 18482
    Number of faces shared with processor 59 = 2
    Number of faces shared with processor 65 = 2779
    Number of faces shared with processor 67 = 2820
    Number of faces shared with processor 70 = 104
    Number of processor patches = 6
    Number of processor faces = 24188
    Number of boundary faces = 312

Processor 67
    Number of cells = 161309
    Number of points = 185603
    Number of faces shared with processor 51 = 84
    Number of faces shared with processor 59 = 18118
    Number of faces shared with processor 66 = 2820
    Number of faces shared with processor 71 = 728
    Number of processor patches = 4
    Number of processor faces = 21750
    Number of boundary faces = 2522

Processor 68
    Number of cells = 184161
    Number of points = 211660
    Number of faces shared with processor 52 = 190
    Number of faces shared with processor 60 = 20900
    Number of faces shared with processor 64 = 923
    Number of faces shared with processor 69 = 2468
    Number of processor patches = 4
    Number of processor faces = 24481
    Number of boundary faces = 3074

Processor 69
    Number of cells = 166583
    Number of points = 189979
    Number of faces shared with processor 60 = 8
    Number of faces shared with processor 61 = 19074
    Number of faces shared with processor 65 = 117
    Number of faces shared with processor 68 = 2468
    Number of faces shared with processor 70 = 2663
    Number of processor patches = 5
    Number of processor faces = 24330
    Number of boundary faces = 384

Processor 70
    Number of cells = 170105
    Number of points = 193068
    Number of faces shared with processor 61 = 1
    Number of faces shared with processor 62 = 18135
    Number of faces shared with processor 63 = 1
    Number of faces shared with processor 66 = 104
    Number of faces shared with processor 69 = 2663
    Number of faces shared with processor 71 = 2781
    Number of processor patches = 6
    Number of processor faces = 23685
    Number of boundary faces = 312

Processor 71
    Number of cells = 155864
    Number of points = 179866
    Number of faces shared with processor 55 = 100
    Number of faces shared with processor 62 = 1
    Number of faces shared with processor 63 = 17808
    Number of faces shared with processor 67 = 728
    Number of faces shared with processor 70 = 2781
    Number of processor patches = 5
    Number of processor faces = 21418
    Number of boundary faces = 2522

Number of processor faces = 1688999
Max number of cells = 314024 (79.23926168707952% above average 175198.2222222222)
Max number of processor patches = 10 (53.84615384615385% above average 6.5)
Max number of faces between processors = 105533 (124.9372557354978% above average 46916.63888888889)

Time = 0

Processor 0: field transfer
--> FOAM Warning : 
    From void* Foam::dlLibraryTable::openLibrary(const Foam::fileName&, bool)
    in file db/dynamicLibrary/dlLibraryTable/dlLibraryTable.C at line 188
    Could not load "libpetscFoam.so"
libpetscFoam.so: cannot open shared object file: No such file or directory
Processor 1: field transfer
--> FOAM Warning : 
    From void* Foam::dlLibraryTable::openLibrary(const Foam::fileName&, bool)
    in file db/dynamicLibrary/dlLibraryTable/dlLibraryTable.C at line 188
    Could not load "libpetscFoam.so"
libpetscFoam.so: cannot open shared object file: No such file or directory
Processor 2: field transfer
--> FOAM Warning : 
    From void* Foam::dlLibraryTable::openLibrary(const Foam::fileName&, bool)
    in file db/dynamicLibrary/dlLibraryTable/dlLibraryTable.C at line 188
    Could not load "libpetscFoam.so"
libpetscFoam.so: cannot open shared object file: No such file or directory
Processor 3: field transfer
--> FOAM Warning : 
    From void* Foam::dlLibraryTable::openLibrary(const Foam::fileName&, bool)
    in file db/dynamicLibrary/dlLibraryTable/dlLibraryTable.C at line 188
    Could not load "libpetscFoam.so"
libpetscFoam.so: cannot open shared object file: No such file or directory
Processor 4: field transfer
--> FOAM Warning : 
    From void* Foam::dlLibraryTable::openLibrary(const Foam::fileName&, bool)
    in file db/dynamicLibrary/dlLibraryTable/dlLibraryTable.C at line 188
    Could not load "libpetscFoam.so"
libpetscFoam.so: cannot open shared object file: No such file or directory
Processor 5: field transfer
--> FOAM Warning : 
    From void* Foam::dlLibraryTable::openLibrary(const Foam::fileName&, bool)
    in file db/dynamicLibrary/dlLibraryTable/dlLibraryTable.C at line 188
    Could not load "libpetscFoam.so"
libpetscFoam.so: cannot open shared object file: No such file or directory
Processor 6: field transfer
--> FOAM Warning : 
    From void* Foam::dlLibraryTable::openLibrary(const Foam::fileName&, bool)
    in file db/dynamicLibrary/dlLibraryTable/dlLibraryTable.C at line 188
    Could not load "libpetscFoam.so"
libpetscFoam.so: cannot open shared object file: No such file or directory
Processor 7: field transfer
--> FOAM Warning : 
    From void* Foam::dlLibraryTable::openLibrary(const Foam::fileName&, bool)
    in file db/dynamicLibrary/dlLibraryTable/dlLibraryTable.C at line 188
    Could not load "libpetscFoam.so"
libpetscFoam.so: cannot open shared object file: No such file or directory
Processor 8: field transfer
--> FOAM Warning : 
    From void* Foam::dlLibraryTable::openLibrary(const Foam::fileName&, bool)
    in file db/dynamicLibrary/dlLibraryTable/dlLibraryTable.C at line 188
    Could not load "libpetscFoam.so"
libpetscFoam.so: cannot open shared object file: No such file or directory
Processor 9: field transfer
--> FOAM Warning : 
    From void* Foam::dlLibraryTable::openLibrary(const Foam::fileName&, bool)
    in file db/dynamicLibrary/dlLibraryTable/dlLibraryTable.C at line 188
    Could not load "libpetscFoam.so"
libpetscFoam.so: cannot open shared object file: No such file or directory
Processor 10: field transfer
--> FOAM Warning : 
    From void* Foam::dlLibraryTable::openLibrary(const Foam::fileName&, bool)
    in file db/dynamicLibrary/dlLibraryTable/dlLibraryTable.C at line 188
    Could not load "libpetscFoam.so"
libpetscFoam.so: cannot open shared object file: No such file or directory
Processor 11: field transfer
--> FOAM Warning : 
    From void* Foam::dlLibraryTable::openLibrary(const Foam::fileName&, bool)
    in file db/dynamicLibrary/dlLibraryTable/dlLibraryTable.C at line 188
    Could not load "libpetscFoam.so"
libpetscFoam.so: cannot open shared object file: No such file or directory
Processor 12: field transfer
--> FOAM Warning : 
    From void* Foam::dlLibraryTable::openLibrary(const Foam::fileName&, bool)
    in file db/dynamicLibrary/dlLibraryTable/dlLibraryTable.C at line 188
    Could not load "libpetscFoam.so"
libpetscFoam.so: cannot open shared object file: No such file or directory
Processor 13: field transfer
--> FOAM Warning : 
    From void* Foam::dlLibraryTable::openLibrary(const Foam::fileName&, bool)
    in file db/dynamicLibrary/dlLibraryTable/dlLibraryTable.C at line 188
    Could not load "libpetscFoam.so"
libpetscFoam.so: cannot open shared object file: No such file or directory
Processor 14: field transfer
--> FOAM Warning : 
    From void* Foam::dlLibraryTable::openLibrary(const Foam::fileName&, bool)
    in file db/dynamicLibrary/dlLibraryTable/dlLibraryTable.C at line 188
    Could not load "libpetscFoam.so"
libpetscFoam.so: cannot open shared object file: No such file or directory
Processor 15: field transfer
--> FOAM Warning : 
    From void* Foam::dlLibraryTable::openLibrary(const Foam::fileName&, bool)
    in file db/dynamicLibrary/dlLibraryTable/dlLibraryTable.C at line 188
    Could not load "libpetscFoam.so"
libpetscFoam.so: cannot open shared object file: No such file or directory
Processor 16: field transfer
--> FOAM Warning : 
    From void* Foam::dlLibraryTable::openLibrary(const Foam::fileName&, bool)
    in file db/dynamicLibrary/dlLibraryTable/dlLibraryTable.C at line 188
    Could not load "libpetscFoam.so"
libpetscFoam.so: cannot open shared object file: No such file or directory
Processor 17: field transfer
--> FOAM Warning : 
    From void* Foam::dlLibraryTable::openLibrary(const Foam::fileName&, bool)
    in file db/dynamicLibrary/dlLibraryTable/dlLibraryTable.C at line 188
    Could not load "libpetscFoam.so"
libpetscFoam.so: cannot open shared object file: No such file or directory
Processor 18: field transfer
--> FOAM Warning : 
    From void* Foam::dlLibraryTable::openLibrary(const Foam::fileName&, bool)
    in file db/dynamicLibrary/dlLibraryTable/dlLibraryTable.C at line 188
    Could not load "libpetscFoam.so"
libpetscFoam.so: cannot open shared object file: No such file or directory
Processor 19: field transfer
--> FOAM Warning : 
    From void* Foam::dlLibraryTable::openLibrary(const Foam::fileName&, bool)
    in file db/dynamicLibrary/dlLibraryTable/dlLibraryTable.C at line 188
    Could not load "libpetscFoam.so"
libpetscFoam.so: cannot open shared object file: No such file or directory
Processor 20: field transfer
--> FOAM Warning : 
    From void* Foam::dlLibraryTable::openLibrary(const Foam::fileName&, bool)
    in file db/dynamicLibrary/dlLibraryTable/dlLibraryTable.C at line 188
    Could not load "libpetscFoam.so"
libpetscFoam.so: cannot open shared object file: No such file or directory
Processor 21: field transfer
--> FOAM Warning : 
    From void* Foam::dlLibraryTable::openLibrary(const Foam::fileName&, bool)
    in file db/dynamicLibrary/dlLibraryTable/dlLibraryTable.C at line 188
    Could not load "libpetscFoam.so"
libpetscFoam.so: cannot open shared object file: No such file or directory
Processor 22: field transfer
--> FOAM Warning : 
    From void* Foam::dlLibraryTable::openLibrary(const Foam::fileName&, bool)
    in file db/dynamicLibrary/dlLibraryTable/dlLibraryTable.C at line 188
    Could not load "libpetscFoam.so"
libpetscFoam.so: cannot open shared object file: No such file or directory
Processor 23: field transfer
--> FOAM Warning : 
    From void* Foam::dlLibraryTable::openLibrary(const Foam::fileName&, bool)
    in file db/dynamicLibrary/dlLibraryTable/dlLibraryTable.C at line 188
    Could not load "libpetscFoam.so"
libpetscFoam.so: cannot open shared object file: No such file or directory
Processor 24: field transfer
--> FOAM Warning : 
    From void* Foam::dlLibraryTable::openLibrary(const Foam::fileName&, bool)
    in file db/dynamicLibrary/dlLibraryTable/dlLibraryTable.C at line 188
    Could not load "libpetscFoam.so"
libpetscFoam.so: cannot open shared object file: No such file or directory
Processor 25: field transfer
--> FOAM Warning : 
    From void* Foam::dlLibraryTable::openLibrary(const Foam::fileName&, bool)
    in file db/dynamicLibrary/dlLibraryTable/dlLibraryTable.C at line 188
    Could not load "libpetscFoam.so"
libpetscFoam.so: cannot open shared object file: No such file or directory
Processor 26: field transfer
--> FOAM Warning : 
    From void* Foam::dlLibraryTable::openLibrary(const Foam::fileName&, bool)
    in file db/dynamicLibrary/dlLibraryTable/dlLibraryTable.C at line 188
    Could not load "libpetscFoam.so"
libpetscFoam.so: cannot open shared object file: No such file or directory
Processor 27: field transfer
--> FOAM Warning : 
    From void* Foam::dlLibraryTable::openLibrary(const Foam::fileName&, bool)
    in file db/dynamicLibrary/dlLibraryTable/dlLibraryTable.C at line 188
    Could not load "libpetscFoam.so"
libpetscFoam.so: cannot open shared object file: No such file or directory
Processor 28: field transfer
--> FOAM Warning : 
    From void* Foam::dlLibraryTable::openLibrary(const Foam::fileName&, bool)
    in file db/dynamicLibrary/dlLibraryTable/dlLibraryTable.C at line 188
    Could not load "libpetscFoam.so"
libpetscFoam.so: cannot open shared object file: No such file or directory
Processor 29: field transfer
--> FOAM Warning : 
    From void* Foam::dlLibraryTable::openLibrary(const Foam::fileName&, bool)
    in file db/dynamicLibrary/dlLibraryTable/dlLibraryTable.C at line 188
    Could not load "libpetscFoam.so"
libpetscFoam.so: cannot open shared object file: No such file or directory
Processor 30: field transfer
--> FOAM Warning : 
    From void* Foam::dlLibraryTable::openLibrary(const Foam::fileName&, bool)
    in file db/dynamicLibrary/dlLibraryTable/dlLibraryTable.C at line 188
    Could not load "libpetscFoam.so"
libpetscFoam.so: cannot open shared object file: No such file or directory
Processor 31: field transfer
--> FOAM Warning : 
    From void* Foam::dlLibraryTable::openLibrary(const Foam::fileName&, bool)
    in file db/dynamicLibrary/dlLibraryTable/dlLibraryTable.C at line 188
    Could not load "libpetscFoam.so"
libpetscFoam.so: cannot open shared object file: No such file or directory
Processor 32: field transfer
--> FOAM Warning : 
    From void* Foam::dlLibraryTable::openLibrary(const Foam::fileName&, bool)
    in file db/dynamicLibrary/dlLibraryTable/dlLibraryTable.C at line 188
    Could not load "libpetscFoam.so"
libpetscFoam.so: cannot open shared object file: No such file or directory
Processor 33: field transfer
--> FOAM Warning : 
    From void* Foam::dlLibraryTable::openLibrary(const Foam::fileName&, bool)
    in file db/dynamicLibrary/dlLibraryTable/dlLibraryTable.C at line 188
    Could not load "libpetscFoam.so"
libpetscFoam.so: cannot open shared object file: No such file or directory
Processor 34: field transfer
--> FOAM Warning : 
    From void* Foam::dlLibraryTable::openLibrary(const Foam::fileName&, bool)
    in file db/dynamicLibrary/dlLibraryTable/dlLibraryTable.C at line 188
    Could not load "libpetscFoam.so"
libpetscFoam.so: cannot open shared object file: No such file or directory
Processor 35: field transfer
--> FOAM Warning : 
    From void* Foam::dlLibraryTable::openLibrary(const Foam::fileName&, bool)
    in file db/dynamicLibrary/dlLibraryTable/dlLibraryTable.C at line 188
    Could not load "libpetscFoam.so"
libpetscFoam.so: cannot open shared object file: No such file or directory
Processor 36: field transfer
--> FOAM Warning : 
    From void* Foam::dlLibraryTable::openLibrary(const Foam::fileName&, bool)
    in file db/dynamicLibrary/dlLibraryTable/dlLibraryTable.C at line 188
    Could not load "libpetscFoam.so"
libpetscFoam.so: cannot open shared object file: No such file or directory
Processor 37: field transfer
--> FOAM Warning : 
    From void* Foam::dlLibraryTable::openLibrary(const Foam::fileName&, bool)
    in file db/dynamicLibrary/dlLibraryTable/dlLibraryTable.C at line 188
    Could not load "libpetscFoam.so"
libpetscFoam.so: cannot open shared object file: No such file or directory
Processor 38: field transfer
--> FOAM Warning : 
    From void* Foam::dlLibraryTable::openLibrary(const Foam::fileName&, bool)
    in file db/dynamicLibrary/dlLibraryTable/dlLibraryTable.C at line 188
    Could not load "libpetscFoam.so"
libpetscFoam.so: cannot open shared object file: No such file or directory
Processor 39: field transfer
--> FOAM Warning : 
    From void* Foam::dlLibraryTable::openLibrary(const Foam::fileName&, bool)
    in file db/dynamicLibrary/dlLibraryTable/dlLibraryTable.C at line 188
    Could not load "libpetscFoam.so"
libpetscFoam.so: cannot open shared object file: No such file or directory
Processor 40: field transfer
--> FOAM Warning : 
    From void* Foam::dlLibraryTable::openLibrary(const Foam::fileName&, bool)
    in file db/dynamicLibrary/dlLibraryTable/dlLibraryTable.C at line 188
    Could not load "libpetscFoam.so"
libpetscFoam.so: cannot open shared object file: No such file or directory
Processor 41: field transfer
--> FOAM Warning : 
    From void* Foam::dlLibraryTable::openLibrary(const Foam::fileName&, bool)
    in file db/dynamicLibrary/dlLibraryTable/dlLibraryTable.C at line 188
    Could not load "libpetscFoam.so"
libpetscFoam.so: cannot open shared object file: No such file or directory
Processor 42: field transfer
--> FOAM Warning : 
    From void* Foam::dlLibraryTable::openLibrary(const Foam::fileName&, bool)
    in file db/dynamicLibrary/dlLibraryTable/dlLibraryTable.C at line 188
    Could not load "libpetscFoam.so"
libpetscFoam.so: cannot open shared object file: No such file or directory
Processor 43: field transfer
--> FOAM Warning : 
    From void* Foam::dlLibraryTable::openLibrary(const Foam::fileName&, bool)
    in file db/dynamicLibrary/dlLibraryTable/dlLibraryTable.C at line 188
    Could not load "libpetscFoam.so"
libpetscFoam.so: cannot open shared object file: No such file or directory
Processor 44: field transfer
--> FOAM Warning : 
    From void* Foam::dlLibraryTable::openLibrary(const Foam::fileName&, bool)
    in file db/dynamicLibrary/dlLibraryTable/dlLibraryTable.C at line 188
    Could not load "libpetscFoam.so"
libpetscFoam.so: cannot open shared object file: No such file or directory
Processor 45: field transfer
--> FOAM Warning : 
    From void* Foam::dlLibraryTable::openLibrary(const Foam::fileName&, bool)
    in file db/dynamicLibrary/dlLibraryTable/dlLibraryTable.C at line 188
    Could not load "libpetscFoam.so"
libpetscFoam.so: cannot open shared object file: No such file or directory
Processor 46: field transfer
--> FOAM Warning : 
    From void* Foam::dlLibraryTable::openLibrary(const Foam::fileName&, bool)
    in file db/dynamicLibrary/dlLibraryTable/dlLibraryTable.C at line 188
    Could not load "libpetscFoam.so"
libpetscFoam.so: cannot open shared object file: No such file or directory
Processor 47: field transfer
--> FOAM Warning : 
    From void* Foam::dlLibraryTable::openLibrary(const Foam::fileName&, bool)
    in file db/dynamicLibrary/dlLibraryTable/dlLibraryTable.C at line 188
    Could not load "libpetscFoam.so"
libpetscFoam.so: cannot open shared object file: No such file or directory
Processor 48: field transfer
--> FOAM Warning : 
    From void* Foam::dlLibraryTable::openLibrary(const Foam::fileName&, bool)
    in file db/dynamicLibrary/dlLibraryTable/dlLibraryTable.C at line 188
    Could not load "libpetscFoam.so"
libpetscFoam.so: cannot open shared object file: No such file or directory
Processor 49: field transfer
--> FOAM Warning : 
    From void* Foam::dlLibraryTable::openLibrary(const Foam::fileName&, bool)
    in file db/dynamicLibrary/dlLibraryTable/dlLibraryTable.C at line 188
    Could not load "libpetscFoam.so"
libpetscFoam.so: cannot open shared object file: No such file or directory
Processor 50: field transfer
--> FOAM Warning : 
    From void* Foam::dlLibraryTable::openLibrary(const Foam::fileName&, bool)
    in file db/dynamicLibrary/dlLibraryTable/dlLibraryTable.C at line 188
    Could not load "libpetscFoam.so"
libpetscFoam.so: cannot open shared object file: No such file or directory
Processor 51: field transfer
--> FOAM Warning : 
    From void* Foam::dlLibraryTable::openLibrary(const Foam::fileName&, bool)
    in file db/dynamicLibrary/dlLibraryTable/dlLibraryTable.C at line 188
    Could not load "libpetscFoam.so"
libpetscFoam.so: cannot open shared object file: No such file or directory
Processor 52: field transfer
--> FOAM Warning : 
    From void* Foam::dlLibraryTable::openLibrary(const Foam::fileName&, bool)
    in file db/dynamicLibrary/dlLibraryTable/dlLibraryTable.C at line 188
    Could not load "libpetscFoam.so"
libpetscFoam.so: cannot open shared object file: No such file or directory
Processor 53: field transfer
--> FOAM Warning : 
    From void* Foam::dlLibraryTable::openLibrary(const Foam::fileName&, bool)
    in file db/dynamicLibrary/dlLibraryTable/dlLibraryTable.C at line 188
    Could not load "libpetscFoam.so"
libpetscFoam.so: cannot open shared object file: No such file or directory
Processor 54: field transfer
--> FOAM Warning : 
    From void* Foam::dlLibraryTable::openLibrary(const Foam::fileName&, bool)
    in file db/dynamicLibrary/dlLibraryTable/dlLibraryTable.C at line 188
    Could not load "libpetscFoam.so"
libpetscFoam.so: cannot open shared object file: No such file or directory
Processor 55: field transfer
--> FOAM Warning : 
    From void* Foam::dlLibraryTable::openLibrary(const Foam::fileName&, bool)
    in file db/dynamicLibrary/dlLibraryTable/dlLibraryTable.C at line 188
    Could not load "libpetscFoam.so"
libpetscFoam.so: cannot open shared object file: No such file or directory
Processor 56: field transfer
--> FOAM Warning : 
    From void* Foam::dlLibraryTable::openLibrary(const Foam::fileName&, bool)
    in file db/dynamicLibrary/dlLibraryTable/dlLibraryTable.C at line 188
    Could not load "libpetscFoam.so"
libpetscFoam.so: cannot open shared object file: No such file or directory
Processor 57: field transfer
--> FOAM Warning : 
    From void* Foam::dlLibraryTable::openLibrary(const Foam::fileName&, bool)
    in file db/dynamicLibrary/dlLibraryTable/dlLibraryTable.C at line 188
    Could not load "libpetscFoam.so"
libpetscFoam.so: cannot open shared object file: No such file or directory
Processor 58: field transfer
--> FOAM Warning : 
    From void* Foam::dlLibraryTable::openLibrary(const Foam::fileName&, bool)
    in file db/dynamicLibrary/dlLibraryTable/dlLibraryTable.C at line 188
    Could not load "libpetscFoam.so"
libpetscFoam.so: cannot open shared object file: No such file or directory
Processor 59: field transfer
--> FOAM Warning : 
    From void* Foam::dlLibraryTable::openLibrary(const Foam::fileName&, bool)
    in file db/dynamicLibrary/dlLibraryTable/dlLibraryTable.C at line 188
    Could not load "libpetscFoam.so"
libpetscFoam.so: cannot open shared object file: No such file or directory
Processor 60: field transfer
--> FOAM Warning : 
    From void* Foam::dlLibraryTable::openLibrary(const Foam::fileName&, bool)
    in file db/dynamicLibrary/dlLibraryTable/dlLibraryTable.C at line 188
    Could not load "libpetscFoam.so"
libpetscFoam.so: cannot open shared object file: No such file or directory
Processor 61: field transfer
--> FOAM Warning : 
    From void* Foam::dlLibraryTable::openLibrary(const Foam::fileName&, bool)
    in file db/dynamicLibrary/dlLibraryTable/dlLibraryTable.C at line 188
    Could not load "libpetscFoam.so"
libpetscFoam.so: cannot open shared object file: No such file or directory
Processor 62: field transfer
--> FOAM Warning : 
    From void* Foam::dlLibraryTable::openLibrary(const Foam::fileName&, bool)
    in file db/dynamicLibrary/dlLibraryTable/dlLibraryTable.C at line 188
    Could not load "libpetscFoam.so"
libpetscFoam.so: cannot open shared object file: No such file or directory
Processor 63: field transfer
--> FOAM Warning : 
    From void* Foam::dlLibraryTable::openLibrary(const Foam::fileName&, bool)
    in file db/dynamicLibrary/dlLibraryTable/dlLibraryTable.C at line 188
    Could not load "libpetscFoam.so"
libpetscFoam.so: cannot open shared object file: No such file or directory
Processor 64: field transfer
--> FOAM Warning : 
    From void* Foam::dlLibraryTable::openLibrary(const Foam::fileName&, bool)
    in file db/dynamicLibrary/dlLibraryTable/dlLibraryTable.C at line 188
    Could not load "libpetscFoam.so"
libpetscFoam.so: cannot open shared object file: No such file or directory
Processor 65: field transfer
--> FOAM Warning : 
    From void* Foam::dlLibraryTable::openLibrary(const Foam::fileName&, bool)
    in file db/dynamicLibrary/dlLibraryTable/dlLibraryTable.C at line 188
    Could not load "libpetscFoam.so"
libpetscFoam.so: cannot open shared object file: No such file or directory
Processor 66: field transfer
--> FOAM Warning : 
    From void* Foam::dlLibraryTable::openLibrary(const Foam::fileName&, bool)
    in file db/dynamicLibrary/dlLibraryTable/dlLibraryTable.C at line 188
    Could not load "libpetscFoam.so"
libpetscFoam.so: cannot open shared object file: No such file or directory
Processor 67: field transfer
--> FOAM Warning : 
    From void* Foam::dlLibraryTable::openLibrary(const Foam::fileName&, bool)
    in file db/dynamicLibrary/dlLibraryTable/dlLibraryTable.C at line 188
    Could not load "libpetscFoam.so"
libpetscFoam.so: cannot open shared object file: No such file or directory
Processor 68: field transfer
--> FOAM Warning : 
    From void* Foam::dlLibraryTable::openLibrary(const Foam::fileName&, bool)
    in file db/dynamicLibrary/dlLibraryTable/dlLibraryTable.C at line 188
    Could not load "libpetscFoam.so"
libpetscFoam.so: cannot open shared object file: No such file or directory
Processor 69: field transfer
--> FOAM Warning : 
    From void* Foam::dlLibraryTable::openLibrary(const Foam::fileName&, bool)
    in file db/dynamicLibrary/dlLibraryTable/dlLibraryTable.C at line 188
    Could not load "libpetscFoam.so"
libpetscFoam.so: cannot open shared object file: No such file or directory
Processor 70: field transfer
--> FOAM Warning : 
    From void* Foam::dlLibraryTable::openLibrary(const Foam::fileName&, bool)
    in file db/dynamicLibrary/dlLibraryTable/dlLibraryTable.C at line 188
    Could not load "libpetscFoam.so"
libpetscFoam.so: cannot open shared object file: No such file or directory
Processor 71: field transfer
--> FOAM Warning : 
    From void* Foam::dlLibraryTable::openLibrary(const Foam::fileName&, bool)
    in file db/dynamicLibrary/dlLibraryTable/dlLibraryTable.C at line 188
    Could not load "libpetscFoam.so"
libpetscFoam.so: cannot open shared object file: No such file or directory

End

