/*---------------------------------------------------------------------------*\
| =========                 |                                                 |
| \\      /  F ield         | OpenFOAM: The Open Source CFD Toolbox           |
|  \\    /   O peration     | Version:  2306                                  |
|   \\  /    A nd           | Website:  www.openfoam.com                      |
|    \\/     M anipulation  |                                                 |
\*---------------------------------------------------------------------------*/
Build  : c423ebec-20231012 OPENFOAM=2306 version=v2306
Arch   : "LSB;label=32;scalar=64"
Exec   : simpleFoam -parallel -case /hkfs/work/workspace/scratch/eq4036-windsorbody_setup/workspace/30acf27511ced2f511512fc2d203b8e6/case
Date   : Feb 16 2024
Time   : 20:32:34
Host   : hkn0815.localdomain
PID    : 595916
I/O    : uncollated
Case   : /hkfs/work/workspace/scratch/eq4036-windsorbody_setup/workspace/30acf27511ced2f511512fc2d203b8e6/case
nProcs : 4
Hosts  :
(
    (hkn0815.localdomain 4)
)
Pstream initialized with:
    floatTransfer      : false
    nProcsSimpleSum    : 0
    nonBlockingExchange: 0 (tuning: 0)
    exchange algorithm : -1
    commsType          : nonBlocking
    polling iterations : 0
trapFpe: Floating point exception trapping enabled (FOAM_SIGFPE).
fileModificationChecking : Monitoring run-time modified files using timeStampMaster (fileModificationSkew 5, maxFileModificationPolls 20)
allowSystemOperations : Allowing user-supplied system call operations

// * * * * * * * * * * * * * * * * * * * * * * * * * * * * * * * * * * * * * //
Create time

--> FOAM Warning : 
    From void* Foam::dlLibraryTable::openLibrary(const Foam::fileName&, bool)
    in file db/dynamicLibrary/dlLibraryTable/dlLibraryTable.C at line 188
    Could not load "libpetscFoam.so"
libpetscFoam.so: cannot open shared object file: No such file or directory
Create mesh for time = 0


SIMPLE: convergence criteria
    field p	 tolerance 1e-08
    field U	 tolerance 1e-08
    field k	 tolerance 1e-08
    field omega	 tolerance 1e-08
    field nuTilda	 tolerance 1e-08

Reading field p

Reading field U

Reading/calculating face flux field phi

Selecting incompressible transport model Newtonian
Selecting turbulence model type RAS
Selecting RAS turbulence model SpalartAllmaras
Selecting patchDistMethod meshWave
ft2 term: inactive
RAS
{
    RASModel        SpalartAllmaras;
    turbulence      on;
    printCoeffs     on;
    sigmaNut        0.66666;
    kappa           0.41;
    Cb1             0.1355;
    Cb2             0.622;
    Cw2             0.3;
    Cw3             2;
    Cv1             7.1;
    Cs              0.3;
    ck              0.07000000000000001;
    ft2             false;
    Ct3             1.2;
    Ct4             0.5;
}

No MRF models present

Creating finite volume options from "system/fvOptions"

Selecting finite volume options type velocityDampingConstraint
    Source: velocityDamping
    - selecting all cells
    - selected 25228544 cell(s) with volume 111.3033220647997

Starting time loop

--> FOAM Warning : 
    From bool Foam::functionObjectList::read()
    in file db/functionObjects/functionObjectList/functionObjectList.C at line 1035
    Reading "system/controlDict" at line 2 to 41
    Entry 'lref' is not a dictionary
--> FOAM Warning : 
    From bool Foam::functionObjectList::read()
    in file db/functionObjects/functionObjectList/functionObjectList.C at line 1035
    Reading "system/controlDict" at line 2 to 41
    Entry 'Aref' is not a dictionary
--> FOAM Warning : 
    From bool Foam::functionObjectList::read()
    in file db/functionObjects/functionObjectList/functionObjectList.C at line 1035
    Reading "system/controlDict" at line 2 to 41
    Entry 'yawAngle' is not a dictionary
--> FOAM Warning : 
    From bool Foam::functionObjectList::read()
    in file db/functionObjects/functionObjectList/functionObjectList.C at line 1035
    Reading "system/controlDict" at line 2 to 41
    Entry 'lDomain' is not a dictionary
--> FOAM Warning : 
    From bool Foam::functionObjectList::read()
    in file db/functionObjects/functionObjectList/functionObjectList.C at line 1035
    Reading "system/controlDict" at line 2 to 41
    Entry 'bDomain' is not a dictionary
--> FOAM Warning : 
    From bool Foam::functionObjectList::read()
    in file db/functionObjects/functionObjectList/functionObjectList.C at line 1035
    Reading "system/controlDict" at line 2 to 41
    Entry 'hDomain' is not a dictionary
--> FOAM Warning : 
    From bool Foam::functionObjectList::read()
    in file db/functionObjects/functionObjectList/functionObjectList.C at line 1035
    Reading "system/controlDict" at line 2 to 41
    Entry 'xCenter' is not a dictionary
--> FOAM Warning : 
    From bool Foam::functionObjectList::read()
    in file db/functionObjects/functionObjectList/functionObjectList.C at line 1035
    Reading "system/controlDict" at line 2 to 41
    Entry 'yCenter' is not a dictionary
--> FOAM Warning : 
    From bool Foam::functionObjectList::read()
    in file db/functionObjects/functionObjectList/functionObjectList.C at line 1035
    Reading "system/controlDict" at line 2 to 41
    Entry 'zCenter' is not a dictionary
--> FOAM Warning : 
    From bool Foam::functionObjectList::read()
    in file db/functionObjects/functionObjectList/functionObjectList.C at line 1035
    Reading "system/controlDict" at line 2 to 41
    Entry 'inletPatch' is not a dictionary
--> FOAM Warning : 
    From bool Foam::functionObjectList::read()
    in file db/functionObjects/functionObjectList/functionObjectList.C at line 1035
    Reading "system/controlDict" at line 2 to 41
    Entry 'outletPatch' is not a dictionary
--> FOAM Warning : 
    From bool Foam::functionObjectList::read()
    in file db/functionObjects/functionObjectList/functionObjectList.C at line 1035
    Reading "system/controlDict" at line 2 to 41
    Entry 'wallPatches' is not a dictionary
--> FOAM Warning : 
    From bool Foam::functionObjectList::read()
    in file db/functionObjects/functionObjectList/functionObjectList.C at line 1035
    Reading "system/controlDict" at line 2 to 41
    Entry 'forcesWallPatches' is not a dictionary
--> FOAM Warning : 
    From bool Foam::functionObjectList::read()
    in file db/functionObjects/functionObjectList/functionObjectList.C at line 1035
    Reading "system/controlDict" at line 2 to 41
    Entry 'symmPatches' is not a dictionary
--> FOAM Warning : 
    From bool Foam::functionObjectList::read()
    in file db/functionObjects/functionObjectList/functionObjectList.C at line 1035
    Reading "system/controlDict" at line 2 to 41
    Entry 'Uinf' is not a dictionary
--> FOAM Warning : 
    From bool Foam::functionObjectList::read()
    in file db/functionObjects/functionObjectList/functionObjectList.C at line 1035
    Reading "system/controlDict" at line 2 to 41
    Entry 'UinfMag' is not a dictionary
--> FOAM Warning : 
    From bool Foam::functionObjectList::read()
    in file db/functionObjects/functionObjectList/functionObjectList.C at line 1035
    Reading "system/controlDict" at line 2 to 41
    Entry 'nu' is not a dictionary
--> FOAM Warning : 
    From bool Foam::functionObjectList::read()
    in file db/functionObjects/functionObjectList/functionObjectList.C at line 1035
    Reading "system/controlDict" at line 2 to 41
    Entry 'pref' is not a dictionary
--> FOAM Warning : 
    From bool Foam::functionObjectList::read()
    in file db/functionObjects/functionObjectList/functionObjectList.C at line 1035
    Reading "system/controlDict" at line 2 to 41
    Entry 'viscRatio' is not a dictionary
--> FOAM Warning : 
    From bool Foam::functionObjectList::read()
    in file db/functionObjects/functionObjectList/functionObjectList.C at line 1035
    Reading "system/controlDict" at line 2 to 41
    Entry 'Tu' is not a dictionary
--> FOAM Warning : 
    From bool Foam::functionObjectList::read()
    in file db/functionObjects/functionObjectList/functionObjectList.C at line 1035
    Reading "system/controlDict" at line 2 to 41
    Entry 'LESturbModel' is not a dictionary
--> FOAM Warning : 
    From bool Foam::functionObjectList::read()
    in file db/functionObjects/functionObjectList/functionObjectList.C at line 1035
    Reading "system/controlDict" at line 2 to 41
    Entry 'RASturbModel' is not a dictionary
--> FOAM Warning : 
    From bool Foam::functionObjectList::read()
    in file db/functionObjects/functionObjectList/functionObjectList.C at line 1035
    Reading "system/controlDict" at line 2 to 41
    Entry 'deltaTurb' is not a dictionary
--> FOAM Warning : 
    From bool Foam::functionObjectList::read()
    in file db/functionObjects/functionObjectList/functionObjectList.C at line 1035
    Reading "system/controlDict" at line 2 to 41
    Entry 'dt' is not a dictionary
--> FOAM Warning : 
    From bool Foam::functionObjectList::read()
    in file db/functionObjects/functionObjectList/functionObjectList.C at line 1035
    Reading "system/controlDict" at line 2 to 41
    Entry 'tAvg' is not a dictionary
--> FOAM Warning : 
    From bool Foam::functionObjectList::read()
    in file db/functionObjects/functionObjectList/functionObjectList.C at line 1035
    Reading "system/controlDict" at line 2 to 41
    Entry 'tEnd' is not a dictionary
--> FOAM Warning : 
    From bool Foam::functionObjectList::read()
    in file db/functionObjects/functionObjectList/functionObjectList.C at line 1035
    Reading "system/controlDict" at line 2 to 41
    Entry 'writeInterval_' is not a dictionary
--> FOAM Warning : 
    From bool Foam::functionObjectList::read()
    in file db/functionObjects/functionObjectList/functionObjectList.C at line 1035
    Reading "system/controlDict" at line 2 to 41
    Entry 'nCores' is not a dictionary
--> FOAM Warning : 
    From bool Foam::functionObjectList::read()
    in file db/functionObjects/functionObjectList/functionObjectList.C at line 1035
    Reading "system/controlDict" at line 2 to 41
    Entry 'interpScheme' is not a dictionary
--> FOAM Warning : 
    From bool Foam::functionObjectList::read()
    in file db/functionObjects/functionObjectList/functionObjectList.C at line 1035
    Reading "system/controlDict" at line 2 to 41
    Entry 'probeField' is not a dictionary
wallShearStress wallShearStress:
    processing wall patches: 
        Windsor_Body
        CFDWT_Floor
        Windsor_Pins
        Windsor_Base
        Windsor_Body_2
        CFDWT_Floor_2
        Windsor_Pins_2
        Windsor_Base_2
        Windsor_Body_3
        CFDWT_Floor_3
        Windsor_Pins_3
        Windsor_Base_3
        Windsor_Body_4
        CFDWT_Floor_4
        Windsor_Pins_4
        Windsor_Base_4

pressure calc_cp:
    Operating mode: staticCoeff
    Not including hydrostatic effects

forceCoeffs forceCoeffsAll:
    rho: rhoInf
    Freestream density (rhoInf) set to 1
    Not including porosity effects
    magUInf: 40
    lRef   : 0.6375
    Aref   : 0.1124
    rhoInf : 1
    Selecting all coefficients
    - Drag force: Cd
    - Drag force front: Cd(f)
    - Drag force rear: Cd(r)
    - Lift force: Cl
    - Lift force front: Cl(f)
    - Lift force rear: Cl(r)
    - Pitch moment: CmPitch
    - Roll moment: CmRoll
    - Yaw moment: CmYaw
    - Side force: Cs
    - Side force front: Cs(f)
    - Side force rear: Cs(r)


forceCoeffs dragCoeffBase:
    rho: rhoInf
    Freestream density (rhoInf) set to 1
    Not including porosity effects
    magUInf: 40
    lRef   : 0.6375
    Aref   : 0.1124
    rhoInf : 1
    Selecting coefficients:
    - Drag force: Cd


Time = 1

velocityDampingConstraint velocityDamping damped 0 (0%) of cells, with max limit 300
[OGL LOG][lduLduBase.H:119] Initialising OGL
	OGL commit:  e75313f+
	Branch: dev 
	Build type: Debug
	Ginkgo version: 1.8.0 ( develop)
	Ginkgo commit: sparse-communicator
	MPI is GPU aware: 1
	Forces host buffer based communication: 0
	CPU ranks per GPU: 1
	Matrix format: Coo
	End OGL_INFO
[OGL LOG][Proc: 0]: global_index_init: 3.941 [ms]
[OGL LOG][Proc: 0]Ux_local_cols: call_init: 1.478 [ms]
[OGL LOG][Proc: 0]Ux_local_rows: call_init: 0.496 [ms]
[OGL LOG][Proc: 0]Ux_local_ldu_map: call_init: 0.338 [ms]
[OGL LOG][Proc: 0]Ux_local_coeffs: call_init: 4.134 [ms]
[OGL LOG][Proc: 0]Ux_non_local_cols: call_init: 0.312 [ms]
[OGL LOG][Proc: 0]Ux_non_local_rows: call_init: 0.217 [ms]
[OGL LOG][Proc: 0]Ux_non_local_ldu_map: call_init: 0.269 [ms]
[OGL LOG][Proc: 0]Ux_non_local_coeffs: call_init: 0.232 [ms]
[OGL LOG][Proc: 0]Ux: init_local_sparsity_pattern: 249115.822 [ms]
[OGL LOG][Proc: 0]Ux: init_non_local_sparsity_pattern: 30097.524 [ms]
[OGL LOG][Proc: 0]Ux: update_local_matrix_data: 311.928 [ms]
[OGL LOG][Proc: 0]Ux: update_non_local_matrix_data: 0.965 [ms]
[OGL LOG][Proc: 0]device_partition: call_init: 0.223 [ms]
[OGL LOG][Proc: 0]Ux_matrix: call_init: 496.642 [ms]
[OGL LOG][Proc: 0]Ux_rhs: call_init: 14.592 [ms]
[OGL LOG][Proc: 0]Ux_solution: call_init: 14.443 [ms]
[OGL LOG][Preconditioner.H:121] Generate preconditioner BJ MaxBlockSize 1
[OGL LOG][Proc: 0]Ux: init_precond: 22.383 [ms]
[OGL LOG][StoppingCriterion.H:239] Creating stopping criterion with minIter 0 frequency 1
[OGL LOG][Proc: 0]Ux: generate_solver: 0.307 [ms]
[OGL LOG][Proc: 0]Ux: solve: 321.417 [ms]
[OGL LOG][Proc: 0]Ux: copy_x_back: 23.057 [ms]
[OGL LOG][lduLduBase.H:330] 
Statistics:
	Time per iteration: 45916 [mu s]
	Time per residual norm calculation: 3512.000000 [mu s]
	Time per iteration and DOF: 1.820002 [ns]
	Retrieve results bandwidth 2.190000 [GByte/s]
[OGL LOG][Proc: 0]Ux: solve_multi_gpu: 945.966 [ms]
BJcudaGKOBiCGStab:  Solving for Ux, Initial residual = 1.000000000001999, Final residual = 0.04568485879120856, No Iterations 7
[OGL LOG][lduLduBase.H:119] Initialising OGL
	OGL commit:  e75313f+
	Branch: dev 
	Build type: Debug
	Ginkgo version: 1.8.0 ( develop)
	Ginkgo commit: sparse-communicator
	MPI is GPU aware: 1
	Forces host buffer based communication: 0
	CPU ranks per GPU: 1
	Matrix format: Coo
	End OGL_INFO
[OGL LOG][Proc: 0]: global_index_init: 0.018 [ms]
[OGL LOG][Proc: 0]Uy_local_cols: call_init: 0.038 [ms]
[OGL LOG][Proc: 0]Uy_local_rows: call_init: 0.023 [ms]
[OGL LOG][Proc: 0]Uy_local_ldu_map: call_init: 0.021 [ms]
[OGL LOG][Proc: 0]Uy_local_coeffs: call_init: 1.179 [ms]
[OGL LOG][Proc: 0]Uy_non_local_cols: call_init: 0.011 [ms]
[OGL LOG][Proc: 0]Uy_non_local_rows: call_init: 0.005 [ms]
[OGL LOG][Proc: 0]Uy_non_local_ldu_map: call_init: 0.005 [ms]
[OGL LOG][Proc: 0]Uy_non_local_coeffs: call_init: 0.008 [ms]
[OGL LOG][Proc: 0]Uy: init_local_sparsity_pattern: 249152.46 [ms]
[OGL LOG][Proc: 0]Uy: init_non_local_sparsity_pattern: 30094.309 [ms]
[OGL LOG][Proc: 0]Uy: update_local_matrix_data: 278.422 [ms]
[OGL LOG][Proc: 0]Uy: update_non_local_matrix_data: 0.879 [ms]
[OGL LOG][Proc: 0]Uy_matrix: call_init: 502.667 [ms]
[OGL LOG][Proc: 0]Uy_rhs: call_init: 14.584 [ms]
[OGL LOG][Proc: 0]Uy_solution: call_init: 15.603 [ms]
[OGL LOG][Preconditioner.H:121] Generate preconditioner BJ MaxBlockSize 1
[OGL LOG][Proc: 0]Uy: init_precond: 1.617 [ms]
[OGL LOG][StoppingCriterion.H:239] Creating stopping criterion with minIter 0 frequency 1
[OGL LOG][Proc: 0]Uy: generate_solver: 0.023 [ms]
[OGL LOG][Proc: 0]Uy: solve: 311.951 [ms]
[OGL LOG][Proc: 0]Uy: copy_x_back: 23.52 [ms]
[OGL LOG][lduLduBase.H:330] 
Statistics:
	Time per iteration: 31195 [mu s]
	Time per residual norm calculation: 176.000000 [mu s]
	Time per iteration and DOF: 1.236496 [ns]
	Retrieve results bandwidth 2.147000 [GByte/s]
[OGL LOG][Proc: 0]Uy: solve_multi_gpu: 918.111 [ms]
BJcudaGKOBiCGStab:  Solving for Uy, Initial residual = 0.9999999999998974, Final residual = 0.07725065439710992, No Iterations 10
[OGL LOG][lduLduBase.H:119] Initialising OGL
	OGL commit:  e75313f+
	Branch: dev 
	Build type: Debug
	Ginkgo version: 1.8.0 ( develop)
	Ginkgo commit: sparse-communicator
	MPI is GPU aware: 1
	Forces host buffer based communication: 0
	CPU ranks per GPU: 1
	Matrix format: Coo
	End OGL_INFO
[OGL LOG][Proc: 0]: global_index_init: 0.138 [ms]
[OGL LOG][Proc: 0]Uz_local_cols: call_init: 0.305 [ms]
[OGL LOG][Proc: 0]Uz_local_rows: call_init: 0.193 [ms]
[OGL LOG][Proc: 0]Uz_local_ldu_map: call_init: 0.337 [ms]
[OGL LOG][Proc: 0]Uz_local_coeffs: call_init: 1.511 [ms]
[OGL LOG][Proc: 0]Uz_non_local_cols: call_init: 0.185 [ms]
[OGL LOG][Proc: 0]Uz_non_local_rows: call_init: 0.228 [ms]
[OGL LOG][Proc: 0]Uz_non_local_ldu_map: call_init: 0.238 [ms]
[OGL LOG][Proc: 0]Uz_non_local_coeffs: call_init: 0.222 [ms]
[OGL LOG][Proc: 0]Uz: init_local_sparsity_pattern: 249179.634 [ms]
[OGL LOG][Proc: 0]Uz: init_non_local_sparsity_pattern: 30057.252 [ms]
[OGL LOG][Proc: 0]Uz: update_local_matrix_data: 278.931 [ms]
[OGL LOG][Proc: 0]Uz: update_non_local_matrix_data: 0.9 [ms]
[OGL LOG][Proc: 0]Uz_matrix: call_init: 502.913 [ms]
[OGL LOG][Proc: 0]Uz_rhs: call_init: 15.131 [ms]
[OGL LOG][Proc: 0]Uz_solution: call_init: 14.455 [ms]
[OGL LOG][Preconditioner.H:121] Generate preconditioner BJ MaxBlockSize 1
[OGL LOG][Proc: 0]Uz: init_precond: 1.614 [ms]
[OGL LOG][StoppingCriterion.H:239] Creating stopping criterion with minIter 0 frequency 1
[OGL LOG][Proc: 0]Uz: generate_solver: 0.023 [ms]
[OGL LOG][Proc: 0]Uz: solve: 273.581 [ms]
[OGL LOG][Proc: 0]Uz: copy_x_back: 22.823 [ms]
[OGL LOG][lduLduBase.H:330] 
Statistics:
	Time per iteration: 273581 [mu s]
	Time per residual norm calculation: 274.000000 [mu s]
	Time per iteration and DOF: 10.844106 [ns]
	Retrieve results bandwidth 2.212000 [GByte/s]
[OGL LOG][Proc: 0]Uz: solve_multi_gpu: 878.194 [ms]
BJcudaGKOBiCGStab:  Solving for Uz, Initial residual = 1.00000000000004, Final residual = 0.07317246117889999, No Iterations 1
[OGL LOG][lduLduBase.H:119] Initialising OGL
	OGL commit:  e75313f+
	Branch: dev 
	Build type: Debug
	Ginkgo version: 1.8.0 ( develop)
	Ginkgo commit: sparse-communicator
	MPI is GPU aware: 1
	Forces host buffer based communication: 0
	CPU ranks per GPU: 1
	Matrix format: Coo
	End OGL_INFO
[OGL LOG][Proc: 0]: global_index_init: 0.031 [ms]
[OGL LOG][Proc: 0]p_local_cols: call_init: 0.042 [ms]
[OGL LOG][Proc: 0]p_local_rows: call_init: 0.014 [ms]
[OGL LOG][Proc: 0]p_local_ldu_map: call_init: 0.02 [ms]
[OGL LOG][Proc: 0]p_local_coeffs: call_init: 1.186 [ms]
[OGL LOG][Proc: 0]p_non_local_cols: call_init: 0.029 [ms]
[OGL LOG][Proc: 0]p_non_local_rows: call_init: 0.013 [ms]
[OGL LOG][Proc: 0]p_non_local_ldu_map: call_init: 0.01 [ms]
[OGL LOG][Proc: 0]p_non_local_coeffs: call_init: 0.015 [ms]
[OGL LOG][Proc: 0]p: init_local_sparsity_pattern: 250653.284 [ms]
[OGL LOG][Proc: 0]p: init_non_local_sparsity_pattern: 28375.954 [ms]
[OGL LOG][Proc: 0]p: update_local_matrix_data: 215.211 [ms]
[OGL LOG][Proc: 0]p: update_non_local_matrix_data: 0.913 [ms]
[OGL LOG][Proc: 0]p_matrix: call_init: 498.271 [ms]
[OGL LOG][Proc: 0]p_rhs: call_init: 14.917 [ms]
[OGL LOG][Proc: 0]p_solution: call_init: 15.194 [ms]
[OGL LOG][Preconditioner.H:346] Generate preconditioner Multigrid MaxLevels 9 MinCoarseRows 10 ZeroGuess 1 Cycle v
[OGL LOG][Proc: 0]p: init_precond: 1168.986 [ms]
[OGL LOG][StoppingCriterion.H:239] Creating stopping criterion with minIter 0 frequency 1
[OGL LOG][Proc: 0]p: generate_solver: 0.034 [ms]
[OGL LOG][Proc: 0]p: solve: 1845.477 [ms]
[OGL LOG][Proc: 0]p: copy_x_back: 23.072 [ms]
[OGL LOG][lduLduBase.H:330] 
Statistics:
	Time per iteration: 17917 [mu s]
	Time per residual norm calculation: 172.000000 [mu s]
	Time per iteration and DOF: 0.710188 [ns]
	Retrieve results bandwidth 2.189000 [GByte/s]
[OGL LOG][Proc: 0]p: solve_multi_gpu: 3641.195 [ms]
MultigridcudaGKOCG:  Solving for p, Initial residual = 1.000000000001336, Final residual = 0.009870962781836136, No Iterations 103
time step continuity errors : sum local = 0.003576878260229336, global = 4.872781416166448e-05, cumulative = 4.872781416166448e-05
[OGL LOG][lduLduBase.H:119] Initialising OGL
	OGL commit:  e75313f+
	Branch: dev 
	Build type: Debug
	Ginkgo version: 1.8.0 ( develop)
	Ginkgo commit: sparse-communicator
	MPI is GPU aware: 1
	Forces host buffer based communication: 0
	CPU ranks per GPU: 1
	Matrix format: Coo
	End OGL_INFO
[OGL LOG][Proc: 0]: global_index_init: 0.026 [ms]
[OGL LOG][Proc: 0]nuTilda_local_cols: call_init: 0.872 [ms]
[OGL LOG][Proc: 0]nuTilda_local_rows: call_init: 0.526 [ms]
[OGL LOG][Proc: 0]nuTilda_local_ldu_map: call_init: 0.403 [ms]
[OGL LOG][Proc: 0]nuTilda_local_coeffs: call_init: 1.51 [ms]
[OGL LOG][Proc: 0]nuTilda_non_local_cols: call_init: 0.254 [ms]
[OGL LOG][Proc: 0]nuTilda_non_local_rows: call_init: 0.308 [ms]
[OGL LOG][Proc: 0]nuTilda_non_local_ldu_map: call_init: 0.248 [ms]
[OGL LOG][Proc: 0]nuTilda_non_local_coeffs: call_init: 0.328 [ms]
[OGL LOG][Proc: 0]nuTilda: init_local_sparsity_pattern: 250427.696 [ms]
[OGL LOG][Proc: 0]nuTilda: init_non_local_sparsity_pattern: 29617.833 [ms]
[OGL LOG][Proc: 0]nuTilda: update_local_matrix_data: 277.306 [ms]
[OGL LOG][Proc: 0]nuTilda: update_non_local_matrix_data: 0.987 [ms]
[OGL LOG][Proc: 0]nuTilda_matrix: call_init: 503.161 [ms]
[OGL LOG][Proc: 0]nuTilda_rhs: call_init: 14.696 [ms]
[OGL LOG][Proc: 0]nuTilda_solution: call_init: 15.019 [ms]
[OGL LOG][Preconditioner.H:121] Generate preconditioner BJ MaxBlockSize 1
[OGL LOG][Proc: 0]nuTilda: init_precond: 1.624 [ms]
[OGL LOG][StoppingCriterion.H:239] Creating stopping criterion with minIter 0 frequency 1
[OGL LOG][Proc: 0]nuTilda: generate_solver: 0.031 [ms]
[OGL LOG][Proc: 0]nuTilda: solve: 282.299 [ms]
[OGL LOG][Proc: 0]nuTilda: copy_x_back: 23.547 [ms]
[OGL LOG][lduLduBase.H:330] 
Statistics:
	Time per iteration: 94099 [mu s]
	Time per residual norm calculation: 271.000000 [mu s]
	Time per iteration and DOF: 3.729862 [ns]
	Retrieve results bandwidth 2.144000 [GByte/s]
[OGL LOG][Proc: 0]nuTilda: solve_multi_gpu: 893.855 [ms]
BJcudaGKOBiCGStab:  Solving for nuTilda, Initial residual = 0.9999999909584543, Final residual = 0.03403893746706072, No Iterations 3
bounding nuTilda, min: -0.0003616221696071988 max: 0.001582300638514681 average: 7.141444481556999e-05
ExecutionTime = 1471.45 s  ClockTime = 1473 s

--> FOAM Warning : 
    From virtual bool Foam::functionObjects::fieldSelection::checkSelection()
    in file functionObjects/fieldSelections/fieldSelection/fieldSelection.C at line 166
    Field k not found
--> FOAM Warning : 
    From virtual bool Foam::functionObjects::fieldSelection::checkSelection()
    in file functionObjects/fieldSelections/fieldSelection/fieldSelection.C at line 166
    Field gammaInt not found
--> FOAM Warning : 
    From virtual bool Foam::functionObjects::fieldSelection::checkSelection()
    in file functionObjects/fieldSelections/fieldSelection/fieldSelection.C at line 166
    Field omega not found
--> FOAM Warning : 
    From virtual bool Foam::functionObjects::fieldSelection::checkSelection()
    in file functionObjects/fieldSelections/fieldSelection/fieldSelection.C at line 166
    Field ReThetat not found
--> FOAM Warning : 
    From virtual bool Foam::functionObjects::fieldSelection::checkSelection()
    in file functionObjects/fieldSelections/fieldSelection/fieldSelection.C at line 166
    Field epsilon not found
--> FOAM Warning : 
    From virtual bool Foam::functionObjects::solverFieldSelection::updateSelection()
    in file functionObjects/fieldSelections/solverFieldSelection/solverFieldSelection.C at line 85
    Valid solver fields are: 3(U nuTilda p)Time = 2

velocityDampingConstraint velocityDamping damped 0 (0%) of cells, with max limit 300
[OGL LOG][Proc: 0]: global_index_init: 0.016 [ms]
[OGL LOG][Proc: 0]Ux_local_coeffs: call_update: 0.001 [ms]
[OGL LOG][Proc: 0]Ux_non_local_coeffs: call_update: 0 [ms]
[OGL LOG][Proc: 0]Ux: update_local_matrix_data: 294.95 [ms]
[OGL LOG][Proc: 0]Ux: update_non_local_matrix_data: 0.862 [ms]
[OGL LOG][Proc: 0]Ux_matrix: call_update: 4.099 [ms]
[OGL LOG][Proc: 0]Ux_rhs: call_update: 14.932 [ms]
[OGL LOG][Preconditioner.H:121] Generate preconditioner BJ MaxBlockSize 1
[OGL LOG][Proc: 0]Ux: init_precond: 2.371 [ms]
[OGL LOG][StoppingCriterion.H:239] Creating stopping criterion with minIter 8 frequency 1
[OGL LOG][Proc: 0]Ux: generate_solver: 0.025 [ms]
[OGL LOG][Proc: 0]Ux: solve: 286.38 [ms]
[OGL LOG][Proc: 0]Ux: copy_x_back: 24.287 [ms]
[OGL LOG][lduLduBase.H:330] 
Statistics:
	Time per iteration: 71595 [mu s]
	Time per residual norm calculation: 197.000000 [mu s]
	Time per iteration and DOF: 2.837857 [ns]
	Retrieve results bandwidth 2.079000 [GByte/s]
[OGL LOG][Proc: 0]Ux: solve_multi_gpu: 335.818 [ms]
BJcudaGKOBiCGStab:  Solving for Ux, Initial residual = 0.8165165342822445, Final residual = 0.009468002103309841, No Iterations 4
[OGL LOG][Proc: 0]: global_index_init: 0.013 [ms]
[OGL LOG][Proc: 0]Uy_local_coeffs: call_update: 0 [ms]
[OGL LOG][Proc: 0]Uy_non_local_coeffs: call_update: 0 [ms]
[OGL LOG][Proc: 0]Uy: update_local_matrix_data: 294.612 [ms]
[OGL LOG][Proc: 0]Uy: update_non_local_matrix_data: 0.852 [ms]
[OGL LOG][Proc: 0]Uy_matrix: call_update: 3.98 [ms]
[OGL LOG][Proc: 0]Uy_rhs: call_update: 14.894 [ms]
[OGL LOG][Preconditioner.H:121] Generate preconditioner BJ MaxBlockSize 1
[OGL LOG][Proc: 0]Uy: init_precond: 2.437 [ms]
[OGL LOG][StoppingCriterion.H:239] Creating stopping criterion with minIter 12 frequency 1
[OGL LOG][Proc: 0]Uy: generate_solver: 0.015 [ms]
[OGL LOG][Proc: 0]Uy: solve: 291.411 [ms]
[OGL LOG][Proc: 0]Uy: copy_x_back: 23.217 [ms]
[OGL LOG][lduLduBase.H:330] 
Statistics:
	Time per iteration: 41630 [mu s]
	Time per residual norm calculation: 266.000000 [mu s]
	Time per iteration and DOF: 1.650115 [ns]
	Retrieve results bandwidth 2.175000 [GByte/s]
[OGL LOG][Proc: 0]Uy: solve_multi_gpu: 339.607 [ms]
BJcudaGKOBiCGStab:  Solving for Uy, Initial residual = 0.9994047240872621, Final residual = 0.00235185076341897, No Iterations 7
[OGL LOG][Proc: 0]: global_index_init: 0.014 [ms]
[OGL LOG][Proc: 0]Uz_local_coeffs: call_update: 0 [ms]
[OGL LOG][Proc: 0]Uz_non_local_coeffs: call_update: 0 [ms]
[OGL LOG][Proc: 0]Uz: update_local_matrix_data: 294.487 [ms]
[OGL LOG][Proc: 0]Uz: update_non_local_matrix_data: 0.832 [ms]
[OGL LOG][Proc: 0]Uz_matrix: call_update: 4.679 [ms]
[OGL LOG][Proc: 0]Uz_rhs: call_update: 14.257 [ms]
[OGL LOG][Preconditioner.H:121] Generate preconditioner BJ MaxBlockSize 1
[OGL LOG][Proc: 0]Uz: init_precond: 2.235 [ms]
[OGL LOG][StoppingCriterion.H:239] Creating stopping criterion with minIter 1 frequency 1
[OGL LOG][Proc: 0]Uz: generate_solver: 0.015 [ms]
[OGL LOG][Proc: 0]Uz: solve: 276.636 [ms]
[OGL LOG][Proc: 0]Uz: copy_x_back: 23.142 [ms]
[OGL LOG][lduLduBase.H:330] 
Statistics:
	Time per iteration: 138318 [mu s]
	Time per residual norm calculation: 271.000000 [mu s]
	Time per iteration and DOF: 5.482599 [ns]
	Retrieve results bandwidth 2.182000 [GByte/s]
[OGL LOG][Proc: 0]Uz: solve_multi_gpu: 324.376 [ms]
BJcudaGKOBiCGStab:  Solving for Uz, Initial residual = 0.9999985297740374, Final residual = 0.09492524999608806, No Iterations 2
[OGL LOG][Proc: 0]: global_index_init: 0.019 [ms]
[OGL LOG][Proc: 0]p_local_coeffs: call_update: 0 [ms]
[OGL LOG][Proc: 0]p_non_local_coeffs: call_update: 0 [ms]
[OGL LOG][Proc: 0]p: update_local_matrix_data: 226.149 [ms]
[OGL LOG][Proc: 0]p: update_non_local_matrix_data: 0.906 [ms]
[OGL LOG][Proc: 0]p_matrix: call_update: 4.116 [ms]
[OGL LOG][Proc: 0]p_rhs: call_update: 14.957 [ms]
[OGL LOG][Preconditioner.H:346] Generate preconditioner Multigrid MaxLevels 9 MinCoarseRows 10 ZeroGuess 1 Cycle v
[OGL LOG][Proc: 0]p: init_precond: 1200.573 [ms]
[OGL LOG][StoppingCriterion.H:239] Creating stopping criterion with minIter 61 frequency 1
[OGL LOG][Proc: 0]p: generate_solver: 0.008999999999999999 [ms]
[OGL LOG][Proc: 0]p: solve: 1171.526 [ms]
[OGL LOG][Proc: 0]p: copy_x_back: 24.03 [ms]
[OGL LOG][lduLduBase.H:330] 
Statistics:
	Time per iteration: 18895 [mu s]
	Time per residual norm calculation: 191.000000 [mu s]
	Time per iteration and DOF: 0.748953 [ns]
	Retrieve results bandwidth 2.101000 [GByte/s]
[OGL LOG][Proc: 0]p: solve_multi_gpu: 2443.125 [ms]
MultigridcudaGKOCG:  Solving for p, Initial residual = 0.4276584271361909, Final residual = 0.002108161558188665, No Iterations 62
time step continuity errors : sum local = 0.04567641728250536, global = 0.00673042226952701, cumulative = 0.006779150083688674
[OGL LOG][Proc: 0]: global_index_init: 0.02 [ms]
[OGL LOG][Proc: 0]nuTilda_local_coeffs: call_update: 0 [ms]
[OGL LOG][Proc: 0]nuTilda_non_local_coeffs: call_update: 0 [ms]
[OGL LOG][Proc: 0]nuTilda: update_local_matrix_data: 294.762 [ms]
[OGL LOG][Proc: 0]nuTilda: update_non_local_matrix_data: 0.912 [ms]
[OGL LOG][Proc: 0]nuTilda_matrix: call_update: 4.134 [ms]
[OGL LOG][Proc: 0]nuTilda_rhs: call_update: 14.886 [ms]
[OGL LOG][Preconditioner.H:121] Generate preconditioner BJ MaxBlockSize 1
[OGL LOG][Proc: 0]nuTilda: init_precond: 2.24 [ms]
[OGL LOG][StoppingCriterion.H:239] Creating stopping criterion with minIter 3 frequency 1
[OGL LOG][Proc: 0]nuTilda: generate_solver: 0.017 [ms]
[OGL LOG][Proc: 0]nuTilda: solve: 279.799 [ms]
[OGL LOG][Proc: 0]nuTilda: copy_x_back: 24.033 [ms]
[OGL LOG][lduLduBase.H:330] 
Statistics:
	Time per iteration: 139899 [mu s]
	Time per residual norm calculation: 180.000000 [mu s]
	Time per iteration and DOF: 5.545267 [ns]
	Retrieve results bandwidth 2.101000 [GByte/s]
[OGL LOG][Proc: 0]nuTilda: solve_multi_gpu: 328.573 [ms]
BJcudaGKOBiCGStab:  Solving for nuTilda, Initial residual = 0.2448155025635971, Final residual = 0.01659958606299159, No Iterations 2
ExecutionTime = 1498.71 s  ClockTime = 1501 s

Time = 3

velocityDampingConstraint velocityDamping damped 19474 (0.08%) of cells, with max limit 300
[OGL LOG][Proc: 0]: global_index_init: 0.031 [ms]
[OGL LOG][Proc: 0]Ux_local_coeffs: call_update: 0 [ms]
[OGL LOG][Proc: 0]Ux_non_local_coeffs: call_update: 0 [ms]
[OGL LOG][Proc: 0]Ux: update_local_matrix_data: 294.625 [ms]
[OGL LOG][Proc: 0]Ux: update_non_local_matrix_data: 0.785 [ms]
[OGL LOG][Proc: 0]Ux_matrix: call_update: 4.479 [ms]
[OGL LOG][Proc: 0]Ux_rhs: call_update: 14.526 [ms]
[OGL LOG][Preconditioner.H:121] Generate preconditioner BJ MaxBlockSize 1
[OGL LOG][Proc: 0]Ux: init_precond: 2.3 [ms]
[OGL LOG][StoppingCriterion.H:239] Creating stopping criterion with minIter 5 frequency 1
[OGL LOG][Proc: 0]Ux: generate_solver: 0.015 [ms]
[OGL LOG][Proc: 0]Ux: solve: 280.248 [ms]
[OGL LOG][Proc: 0]Ux: copy_x_back: 23.835 [ms]
[OGL LOG][lduLduBase.H:330] 
Statistics:
	Time per iteration: 93416 [mu s]
	Time per residual norm calculation: 270.000000 [mu s]
	Time per iteration and DOF: 3.702790 [ns]
	Retrieve results bandwidth 2.119000 [GByte/s]
[OGL LOG][Proc: 0]Ux: solve_multi_gpu: 328.834 [ms]
BJcudaGKOBiCGStab:  Solving for Ux, Initial residual = 0.2855720146929819, Final residual = 0.004865750702813297, No Iterations 3
[OGL LOG][Proc: 0]: global_index_init: 0.015 [ms]
[OGL LOG][Proc: 0]Uy_local_coeffs: call_update: 0 [ms]
[OGL LOG][Proc: 0]Uy_non_local_coeffs: call_update: 0 [ms]
[OGL LOG][Proc: 0]Uy: update_local_matrix_data: 296.454 [ms]
[OGL LOG][Proc: 0]Uy: update_non_local_matrix_data: 0.779 [ms]
[OGL LOG][Proc: 0]Uy_matrix: call_update: 4.101 [ms]
[OGL LOG][Proc: 0]Uy_rhs: call_update: 15.095 [ms]
[OGL LOG][Preconditioner.H:121] Generate preconditioner BJ MaxBlockSize 1
[OGL LOG][Proc: 0]Uy: init_precond: 2.157 [ms]
[OGL LOG][StoppingCriterion.H:239] Creating stopping criterion with minIter 8 frequency 1
[OGL LOG][Proc: 0]Uy: generate_solver: 0.015 [ms]
[OGL LOG][Proc: 0]Uy: solve: 288.167 [ms]
[OGL LOG][Proc: 0]Uy: copy_x_back: 23.947 [ms]
[OGL LOG][lduLduBase.H:330] 
Statistics:
	Time per iteration: 72041 [mu s]
	Time per residual norm calculation: 192.000000 [mu s]
	Time per iteration and DOF: 2.855535 [ns]
	Retrieve results bandwidth 2.109000 [GByte/s]
[OGL LOG][Proc: 0]Uy: solve_multi_gpu: 338.425 [ms]
BJcudaGKOBiCGStab:  Solving for Uy, Initial residual = 0.2868014435946007, Final residual = 0.006721671462993823, No Iterations 4
[OGL LOG][Proc: 0]: global_index_init: 0.016 [ms]
[OGL LOG][Proc: 0]Uz_local_coeffs: call_update: 0 [ms]
[OGL LOG][Proc: 0]Uz_non_local_coeffs: call_update: 0 [ms]
[OGL LOG][Proc: 0]Uz: update_local_matrix_data: 301.237 [ms]
[OGL LOG][Proc: 0]Uz: update_non_local_matrix_data: 0.8159999999999999 [ms]
[OGL LOG][Proc: 0]Uz_matrix: call_update: 5.067 [ms]
[OGL LOG][Proc: 0]Uz_rhs: call_update: 16.951 [ms]
[OGL LOG][Preconditioner.H:121] Generate preconditioner BJ MaxBlockSize 1
[OGL LOG][Proc: 0]Uz: init_precond: 5.511 [ms]
[OGL LOG][StoppingCriterion.H:239] Creating stopping criterion with minIter 2 frequency 1
[OGL LOG][Proc: 0]Uz: generate_solver: 0.015 [ms]
[OGL LOG][Proc: 0]Uz: solve: 311.132 [ms]
[OGL LOG][Proc: 0]Uz: copy_x_back: 22.581 [ms]
[OGL LOG][lduLduBase.H:330] 
Statistics:
	Time per iteration: 155566 [mu s]
	Time per residual norm calculation: 172.000000 [mu s]
	Time per iteration and DOF: 6.166269 [ns]
	Retrieve results bandwidth 2.236000 [GByte/s]
[OGL LOG][Proc: 0]Uz: solve_multi_gpu: 366.039 [ms]
BJcudaGKOBiCGStab:  Solving for Uz, Initial residual = 0.2500501727534029, Final residual = 0.02495636930579275, No Iterations 2
[OGL LOG][Proc: 0]: global_index_init: 0.018 [ms]
[OGL LOG][Proc: 0]p_local_coeffs: call_update: 0 [ms]
[OGL LOG][Proc: 0]p_non_local_coeffs: call_update: 0 [ms]
[OGL LOG][Proc: 0]p: update_local_matrix_data: 226.83 [ms]
[OGL LOG][Proc: 0]p: update_non_local_matrix_data: 0.805 [ms]
[OGL LOG][Proc: 0]p_matrix: call_update: 4.195 [ms]
[OGL LOG][Proc: 0]p_rhs: call_update: 14.707 [ms]
[OGL LOG][Preconditioner.H:346] Generate preconditioner Multigrid MaxLevels 9 MinCoarseRows 10 ZeroGuess 1 Cycle v
[OGL LOG][Proc: 0]p: init_precond: 1133.61 [ms]
[OGL LOG][StoppingCriterion.H:239] Creating stopping criterion with minIter 37 frequency 1
[OGL LOG][Proc: 0]p: generate_solver: 0.008 [ms]
[OGL LOG][Proc: 0]p: solve: 1507.739 [ms]
[OGL LOG][Proc: 0]p: copy_x_back: 24.248 [ms]
[OGL LOG][lduLduBase.H:330] 
Statistics:
	Time per iteration: 17738 [mu s]
	Time per residual norm calculation: 178.000000 [mu s]
	Time per iteration and DOF: 0.703092 [ns]
	Retrieve results bandwidth 2.082000 [GByte/s]
[OGL LOG][Proc: 0]p: solve_multi_gpu: 2711.973 [ms]
MultigridcudaGKOCG:  Solving for p, Initial residual = 0.3667178123388124, Final residual = 0.003565461293202525, No Iterations 85
time step continuity errors : sum local = 0.02244317579776709, global = 0.000581708800049399, cumulative = 0.007360858883738074
[OGL LOG][Proc: 0]: global_index_init: 0.019 [ms]
[OGL LOG][Proc: 0]nuTilda_local_coeffs: call_update: 0 [ms]
[OGL LOG][Proc: 0]nuTilda_non_local_coeffs: call_update: 0 [ms]
[OGL LOG][Proc: 0]nuTilda: update_local_matrix_data: 294.558 [ms]
[OGL LOG][Proc: 0]nuTilda: update_non_local_matrix_data: 0.786 [ms]
[OGL LOG][Proc: 0]nuTilda_matrix: call_update: 4.312 [ms]
[OGL LOG][Proc: 0]nuTilda_rhs: call_update: 14.557 [ms]
[OGL LOG][Preconditioner.H:121] Generate preconditioner BJ MaxBlockSize 1
[OGL LOG][Proc: 0]nuTilda: init_precond: 2.267 [ms]
[OGL LOG][StoppingCriterion.H:239] Creating stopping criterion with minIter 3 frequency 1
[OGL LOG][Proc: 0]nuTilda: generate_solver: 0.023 [ms]
[OGL LOG][Proc: 0]nuTilda: solve: 278.33 [ms]
[OGL LOG][Proc: 0]nuTilda: copy_x_back: 24.407 [ms]
[OGL LOG][lduLduBase.H:330] 
Statistics:
	Time per iteration: 139165 [mu s]
	Time per residual norm calculation: 282.000000 [mu s]
	Time per iteration and DOF: 5.516172 [ns]
	Retrieve results bandwidth 2.069000 [GByte/s]
[OGL LOG][Proc: 0]nuTilda: solve_multi_gpu: 327.367 [ms]
BJcudaGKOBiCGStab:  Solving for nuTilda, Initial residual = 0.225760086750458, Final residual = 0.01290362900073449, No Iterations 2
ExecutionTime = 1526.7 s  ClockTime = 1529 s

Time = 4

velocityDampingConstraint velocityDamping damped 473 (0%) of cells, with max limit 300
[OGL LOG][Proc: 0]: global_index_init: 0.049 [ms]
[OGL LOG][Proc: 0]Ux_local_coeffs: call_update: 0 [ms]
[OGL LOG][Proc: 0]Ux_non_local_coeffs: call_update: 0 [ms]
[OGL LOG][Proc: 0]Ux: update_local_matrix_data: 294.517 [ms]
[OGL LOG][Proc: 0]Ux: update_non_local_matrix_data: 0.867 [ms]
[OGL LOG][Proc: 0]Ux_matrix: call_update: 4.197 [ms]
[OGL LOG][Proc: 0]Ux_rhs: call_update: 14.927 [ms]
[OGL LOG][Preconditioner.H:121] Generate preconditioner BJ MaxBlockSize 1
[OGL LOG][Proc: 0]Ux: init_precond: 2.321 [ms]
[OGL LOG][StoppingCriterion.H:239] Creating stopping criterion with minIter 3 frequency 1
[OGL LOG][Proc: 0]Ux: generate_solver: 0.015 [ms]
[OGL LOG][Proc: 0]Ux: solve: 281.554 [ms]
[OGL LOG][Proc: 0]Ux: copy_x_back: 23.644 [ms]
[OGL LOG][lduLduBase.H:330] 
Statistics:
	Time per iteration: 93851 [mu s]
	Time per residual norm calculation: 183.000000 [mu s]
	Time per iteration and DOF: 3.720032 [ns]
	Retrieve results bandwidth 2.136000 [GByte/s]
[OGL LOG][Proc: 0]Ux: solve_multi_gpu: 330.111 [ms]
BJcudaGKOBiCGStab:  Solving for Ux, Initial residual = 0.04722591114390457, Final residual = 0.004003845454969886, No Iterations 3
[OGL LOG][Proc: 0]: global_index_init: 0.013 [ms]
[OGL LOG][Proc: 0]Uy_local_coeffs: call_update: 0 [ms]
[OGL LOG][Proc: 0]Uy_non_local_coeffs: call_update: 0 [ms]
[OGL LOG][Proc: 0]Uy: update_local_matrix_data: 294.399 [ms]
[OGL LOG][Proc: 0]Uy: update_non_local_matrix_data: 0.91 [ms]
[OGL LOG][Proc: 0]Uy_matrix: call_update: 4.139 [ms]
[OGL LOG][Proc: 0]Uy_rhs: call_update: 14.994 [ms]
[OGL LOG][Preconditioner.H:121] Generate preconditioner BJ MaxBlockSize 1
[OGL LOG][Proc: 0]Uy: init_precond: 2.193 [ms]
[OGL LOG][StoppingCriterion.H:239] Creating stopping criterion with minIter 5 frequency 1
[OGL LOG][Proc: 0]Uy: generate_solver: 0.014 [ms]
[OGL LOG][Proc: 0]Uy: solve: 283.099 [ms]
[OGL LOG][Proc: 0]Uy: copy_x_back: 24.213 [ms]
[OGL LOG][lduLduBase.H:330] 
Statistics:
	Time per iteration: 70774 [mu s]
	Time per residual norm calculation: 267.000000 [mu s]
	Time per iteration and DOF: 2.805314 [ns]
	Retrieve results bandwidth 2.085000 [GByte/s]
[OGL LOG][Proc: 0]Uy: solve_multi_gpu: 332.255 [ms]
BJcudaGKOBiCGStab:  Solving for Uy, Initial residual = 0.1229745973484405, Final residual = 0.006047644223812628, No Iterations 4
[OGL LOG][Proc: 0]: global_index_init: 0.014 [ms]
[OGL LOG][Proc: 0]Uz_local_coeffs: call_update: 0 [ms]
[OGL LOG][Proc: 0]Uz_non_local_coeffs: call_update: 0 [ms]
[OGL LOG][Proc: 0]Uz: update_local_matrix_data: 294.359 [ms]
[OGL LOG][Proc: 0]Uz: update_non_local_matrix_data: 0.852 [ms]
[OGL LOG][Proc: 0]Uz_matrix: call_update: 4.049 [ms]
[OGL LOG][Proc: 0]Uz_rhs: call_update: 15.023 [ms]
[OGL LOG][Preconditioner.H:121] Generate preconditioner BJ MaxBlockSize 1
[OGL LOG][Proc: 0]Uz: init_precond: 2.136 [ms]
[OGL LOG][StoppingCriterion.H:239] Creating stopping criterion with minIter 3 frequency 1
[OGL LOG][Proc: 0]Uz: generate_solver: 0.015 [ms]
[OGL LOG][Proc: 0]Uz: solve: 279.715 [ms]
[OGL LOG][Proc: 0]Uz: copy_x_back: 24.018 [ms]
[OGL LOG][lduLduBase.H:330] 
Statistics:
	Time per iteration: 93238 [mu s]
	Time per residual norm calculation: 265.000000 [mu s]
	Time per iteration and DOF: 3.695734 [ns]
	Retrieve results bandwidth 2.102000 [GByte/s]
[OGL LOG][Proc: 0]Uz: solve_multi_gpu: 328.578 [ms]
BJcudaGKOBiCGStab:  Solving for Uz, Initial residual = 0.1046710737531116, Final residual = 0.01000580092931501, No Iterations 3
[OGL LOG][Proc: 0]: global_index_init: 0.018 [ms]
[OGL LOG][Proc: 0]p_local_coeffs: call_update: 0 [ms]
[OGL LOG][Proc: 0]p_non_local_coeffs: call_update: 0 [ms]
[OGL LOG][Proc: 0]p: update_local_matrix_data: 231.322 [ms]
[OGL LOG][Proc: 0]p: update_non_local_matrix_data: 0.888 [ms]
[OGL LOG][Proc: 0]p_matrix: call_update: 8.884 [ms]
[OGL LOG][Proc: 0]p_rhs: call_update: 14.344 [ms]
[OGL LOG][Preconditioner.H:346] Generate preconditioner Multigrid MaxLevels 9 MinCoarseRows 10 ZeroGuess 1 Cycle v
[OGL LOG][Proc: 0]p: init_precond: 1170.427 [ms]
[OGL LOG][StoppingCriterion.H:239] Creating stopping criterion with minIter 51 frequency 1
[OGL LOG][Proc: 0]p: generate_solver: 0.014 [ms]
[OGL LOG][Proc: 0]p: solve: 1013.371 [ms]
[OGL LOG][Proc: 0]p: copy_x_back: 23.095 [ms]
[OGL LOG][lduLduBase.H:330] 
Statistics:
	Time per iteration: 19487 [mu s]
	Time per residual norm calculation: 189.000000 [mu s]
	Time per iteration and DOF: 0.772419 [ns]
	Retrieve results bandwidth 2.186000 [GByte/s]
[OGL LOG][Proc: 0]p: solve_multi_gpu: 2257.491 [ms]
MultigridcudaGKOCG:  Solving for p, Initial residual = 0.4648741649915265, Final residual = 0.001020402797092082, No Iterations 52
time step continuity errors : sum local = 0.01444861789988035, global = -0.002314535777191851, cumulative = 0.005046323106546222
[OGL LOG][Proc: 0]: global_index_init: 0.02 [ms]
[OGL LOG][Proc: 0]nuTilda_local_coeffs: call_update: 0 [ms]
[OGL LOG][Proc: 0]nuTilda_non_local_coeffs: call_update: 0 [ms]
[OGL LOG][Proc: 0]nuTilda: update_local_matrix_data: 296.045 [ms]
[OGL LOG][Proc: 0]nuTilda: update_non_local_matrix_data: 0.882 [ms]
[OGL LOG][Proc: 0]nuTilda_matrix: call_update: 4.17 [ms]
[OGL LOG][Proc: 0]nuTilda_rhs: call_update: 14.91 [ms]
[OGL LOG][Preconditioner.H:121] Generate preconditioner BJ MaxBlockSize 1
[OGL LOG][Proc: 0]nuTilda: init_precond: 2.393 [ms]
[OGL LOG][StoppingCriterion.H:239] Creating stopping criterion with minIter 2 frequency 1
[OGL LOG][Proc: 0]nuTilda: generate_solver: 0.014 [ms]
[OGL LOG][Proc: 0]nuTilda: solve: 279.154 [ms]
[OGL LOG][Proc: 0]nuTilda: copy_x_back: 23.752 [ms]
[OGL LOG][lduLduBase.H:330] 
Statistics:
	Time per iteration: 139577 [mu s]
	Time per residual norm calculation: 176.000000 [mu s]
	Time per iteration and DOF: 5.532503 [ns]
	Retrieve results bandwidth 2.126000 [GByte/s]
[OGL LOG][Proc: 0]nuTilda: solve_multi_gpu: 327.791 [ms]
BJcudaGKOBiCGStab:  Solving for nuTilda, Initial residual = 0.1378875183260315, Final residual = 0.008642406758212682, No Iterations 2
ExecutionTime = 1553.39 s  ClockTime = 1556 s

Time = 5

velocityDampingConstraint velocityDamping damped 7465 (0.03%) of cells, with max limit 300
[OGL LOG][Proc: 0]: global_index_init: 0.013 [ms]
[OGL LOG][Proc: 0]Ux_local_coeffs: call_update: 0 [ms]
[OGL LOG][Proc: 0]Ux_non_local_coeffs: call_update: 0 [ms]
[OGL LOG][Proc: 0]Ux: update_local_matrix_data: 294.994 [ms]
[OGL LOG][Proc: 0]Ux: update_non_local_matrix_data: 0.843 [ms]
[OGL LOG][Proc: 0]Ux_matrix: call_update: 4.136 [ms]
[OGL LOG][Proc: 0]Ux_rhs: call_update: 15.218 [ms]
[OGL LOG][Preconditioner.H:121] Generate preconditioner BJ MaxBlockSize 1
[OGL LOG][Proc: 0]Ux: init_precond: 2.409 [ms]
[OGL LOG][StoppingCriterion.H:239] Creating stopping criterion with minIter 4 frequency 1
[OGL LOG][Proc: 0]Ux: generate_solver: 0.024 [ms]
[OGL LOG][Proc: 0]Ux: solve: 281.162 [ms]
[OGL LOG][Proc: 0]Ux: copy_x_back: 23.94 [ms]
[OGL LOG][lduLduBase.H:330] 
Statistics:
	Time per iteration: 93720 [mu s]
	Time per residual norm calculation: 267.000000 [mu s]
	Time per iteration and DOF: 3.714840 [ns]
	Retrieve results bandwidth 2.109000 [GByte/s]
[OGL LOG][Proc: 0]Ux: solve_multi_gpu: 330.397 [ms]
BJcudaGKOBiCGStab:  Solving for Ux, Initial residual = 0.3261644424862758, Final residual = 0.01715393029340634, No Iterations 3
[OGL LOG][Proc: 0]: global_index_init: 0.02 [ms]
[OGL LOG][Proc: 0]Uy_local_coeffs: call_update: 0 [ms]
[OGL LOG][Proc: 0]Uy_non_local_coeffs: call_update: 0 [ms]
[OGL LOG][Proc: 0]Uy: update_local_matrix_data: 295.139 [ms]
[OGL LOG][Proc: 0]Uy: update_non_local_matrix_data: 0.794 [ms]
[OGL LOG][Proc: 0]Uy_matrix: call_update: 3.981 [ms]
[OGL LOG][Proc: 0]Uy_rhs: call_update: 15.056 [ms]
[OGL LOG][Preconditioner.H:121] Generate preconditioner BJ MaxBlockSize 1
[OGL LOG][Proc: 0]Uy: init_precond: 2.065 [ms]
[OGL LOG][StoppingCriterion.H:239] Creating stopping criterion with minIter 4 frequency 1
[OGL LOG][Proc: 0]Uy: generate_solver: 0.014 [ms]
[OGL LOG][Proc: 0]Uy: solve: 284.622 [ms]
[OGL LOG][Proc: 0]Uy: copy_x_back: 24.424 [ms]
[OGL LOG][lduLduBase.H:330] 
Statistics:
	Time per iteration: 94874 [mu s]
	Time per residual norm calculation: 176.000000 [mu s]
	Time per iteration and DOF: 3.760582 [ns]
	Retrieve results bandwidth 2.067000 [GByte/s]
[OGL LOG][Proc: 0]Uy: solve_multi_gpu: 333.657 [ms]
BJcudaGKOBiCGStab:  Solving for Uy, Initial residual = 0.4399849645004585, Final residual = 0.03166583709447406, No Iterations 3
[OGL LOG][Proc: 0]: global_index_init: 0.016 [ms]
[OGL LOG][Proc: 0]Uz_local_coeffs: call_update: 0 [ms]
[OGL LOG][Proc: 0]Uz_non_local_coeffs: call_update: 0 [ms]
[OGL LOG][Proc: 0]Uz: update_local_matrix_data: 294.489 [ms]
[OGL LOG][Proc: 0]Uz: update_non_local_matrix_data: 0.734 [ms]
[OGL LOG][Proc: 0]Uz_matrix: call_update: 3.06 [ms]
[OGL LOG][Proc: 0]Uz_rhs: call_update: 15.562 [ms]
[OGL LOG][Preconditioner.H:121] Generate preconditioner BJ MaxBlockSize 1
[OGL LOG][Proc: 0]Uz: init_precond: 2.393 [ms]
[OGL LOG][StoppingCriterion.H:239] Creating stopping criterion with minIter 3 frequency 1
[OGL LOG][Proc: 0]Uz: generate_solver: 0.015 [ms]
[OGL LOG][Proc: 0]Uz: solve: 278.761 [ms]
[OGL LOG][Proc: 0]Uz: copy_x_back: 24.043 [ms]
[OGL LOG][lduLduBase.H:330] 
Statistics:
	Time per iteration: 92920 [mu s]
	Time per residual norm calculation: 265.000000 [mu s]
	Time per iteration and DOF: 3.683130 [ns]
	Retrieve results bandwidth 2.100000 [GByte/s]
[OGL LOG][Proc: 0]Uz: solve_multi_gpu: 327.366 [ms]
BJcudaGKOBiCGStab:  Solving for Uz, Initial residual = 0.5812840579229084, Final residual = 0.05698083465286409, No Iterations 3
[OGL LOG][Proc: 0]: global_index_init: 0.019 [ms]
[OGL LOG][Proc: 0]p_local_coeffs: call_update: 0 [ms]
[OGL LOG][Proc: 0]p_non_local_coeffs: call_update: 0 [ms]
[OGL LOG][Proc: 0]p: update_local_matrix_data: 226.477 [ms]
[OGL LOG][Proc: 0]p: update_non_local_matrix_data: 0.804 [ms]
[OGL LOG][Proc: 0]p_matrix: call_update: 4.38 [ms]
[OGL LOG][Proc: 0]p_rhs: call_update: 15.026 [ms]
[OGL LOG][Preconditioner.H:346] Generate preconditioner Multigrid MaxLevels 9 MinCoarseRows 10 ZeroGuess 1 Cycle v
[OGL LOG][Proc: 0]p: init_precond: 1166.044 [ms]
[OGL LOG][StoppingCriterion.H:239] Creating stopping criterion with minIter 31 frequency 1
[OGL LOG][Proc: 0]p: generate_solver: 0.015 [ms]
[OGL LOG][Proc: 0]p: solve: 1401.501 [ms]
[OGL LOG][Proc: 0]p: copy_x_back: 23.139 [ms]
[OGL LOG][lduLduBase.H:330] 
Statistics:
	Time per iteration: 17967 [mu s]
	Time per residual norm calculation: 167.000000 [mu s]
	Time per iteration and DOF: 0.712170 [ns]
	Retrieve results bandwidth 2.182000 [GByte/s]
[OGL LOG][Proc: 0]p: solve_multi_gpu: 2668.012 [ms]
MultigridcudaGKOCG:  Solving for p, Initial residual = 0.262899297482777, Final residual = 0.002533143817104815, No Iterations 78
time step continuity errors : sum local = 0.03777474424029667, global = -0.001460342957262033, cumulative = 0.00358598014928419
[OGL LOG][Proc: 0]: global_index_init: 0.024 [ms]
[OGL LOG][Proc: 0]nuTilda_local_coeffs: call_update: 0 [ms]
[OGL LOG][Proc: 0]nuTilda_non_local_coeffs: call_update: 0 [ms]
[OGL LOG][Proc: 0]nuTilda: update_local_matrix_data: 294.239 [ms]
[OGL LOG][Proc: 0]nuTilda: update_non_local_matrix_data: 0.87 [ms]
[OGL LOG][Proc: 0]nuTilda_matrix: call_update: 4.094 [ms]
[OGL LOG][Proc: 0]nuTilda_rhs: call_update: 14.415 [ms]
[OGL LOG][Preconditioner.H:121] Generate preconditioner BJ MaxBlockSize 1
[OGL LOG][Proc: 0]nuTilda: init_precond: 2.084 [ms]
[OGL LOG][StoppingCriterion.H:239] Creating stopping criterion with minIter 3 frequency 1
[OGL LOG][Proc: 0]nuTilda: generate_solver: 0.019 [ms]
[OGL LOG][Proc: 0]nuTilda: solve: 280.117 [ms]
[OGL LOG][Proc: 0]nuTilda: copy_x_back: 23.766 [ms]
[OGL LOG][lduLduBase.H:330] 
Statistics:
	Time per iteration: 140058 [mu s]
	Time per residual norm calculation: 180.000000 [mu s]
	Time per iteration and DOF: 5.551569 [ns]
	Retrieve results bandwidth 2.125000 [GByte/s]
[OGL LOG][Proc: 0]nuTilda: solve_multi_gpu: 327.988 [ms]
BJcudaGKOBiCGStab:  Solving for nuTilda, Initial residual = 0.0925711963482333, Final residual = 0.004931136494526661, No Iterations 2
ExecutionTime = 1581.19 s  ClockTime = 1583 s

Time = 6

velocityDampingConstraint velocityDamping damped 1537 (0.01%) of cells, with max limit 300
[OGL LOG][Proc: 0]: global_index_init: 0.032 [ms]
[OGL LOG][Proc: 0]Ux_local_coeffs: call_update: 0 [ms]
[OGL LOG][Proc: 0]Ux_non_local_coeffs: call_update: 0 [ms]
[OGL LOG][Proc: 0]Ux: update_local_matrix_data: 294.944 [ms]
[OGL LOG][Proc: 0]Ux: update_non_local_matrix_data: 0.871 [ms]
[OGL LOG][Proc: 0]Ux_matrix: call_update: 3.898 [ms]
[OGL LOG][Proc: 0]Ux_rhs: call_update: 15.079 [ms]
[OGL LOG][Preconditioner.H:121] Generate preconditioner BJ MaxBlockSize 1
[OGL LOG][Proc: 0]Ux: init_precond: 2.065 [ms]
[OGL LOG][StoppingCriterion.H:239] Creating stopping criterion with minIter 3 frequency 1
[OGL LOG][Proc: 0]Ux: generate_solver: 0.016 [ms]
[OGL LOG][Proc: 0]Ux: solve: 282.005 [ms]
[OGL LOG][Proc: 0]Ux: copy_x_back: 23.939 [ms]
[OGL LOG][lduLduBase.H:330] 
Statistics:
	Time per iteration: 94001 [mu s]
	Time per residual norm calculation: 180.000000 [mu s]
	Time per iteration and DOF: 3.725978 [ns]
	Retrieve results bandwidth 2.109000 [GByte/s]
[OGL LOG][Proc: 0]Ux: solve_multi_gpu: 330.545 [ms]
BJcudaGKOBiCGStab:  Solving for Ux, Initial residual = 0.2747319186691601, Final residual = 0.02571190286581206, No Iterations 3
[OGL LOG][Proc: 0]: global_index_init: 0.014 [ms]
[OGL LOG][Proc: 0]Uy_local_coeffs: call_update: 0 [ms]
[OGL LOG][Proc: 0]Uy_non_local_coeffs: call_update: 0 [ms]
[OGL LOG][Proc: 0]Uy: update_local_matrix_data: 294.894 [ms]
[OGL LOG][Proc: 0]Uy: update_non_local_matrix_data: 0.878 [ms]
[OGL LOG][Proc: 0]Uy_matrix: call_update: 3.841 [ms]
[OGL LOG][Proc: 0]Uy_rhs: call_update: 15.499 [ms]
[OGL LOG][Preconditioner.H:121] Generate preconditioner BJ MaxBlockSize 1
[OGL LOG][Proc: 0]Uy: init_precond: 2.357 [ms]
[OGL LOG][StoppingCriterion.H:239] Creating stopping criterion with minIter 4 frequency 1
[OGL LOG][Proc: 0]Uy: generate_solver: 0.014 [ms]
[OGL LOG][Proc: 0]Uy: solve: 280.127 [ms]
[OGL LOG][Proc: 0]Uy: copy_x_back: 23.827 [ms]
[OGL LOG][lduLduBase.H:330] 
Statistics:
	Time per iteration: 93375 [mu s]
	Time per residual norm calculation: 266.000000 [mu s]
	Time per iteration and DOF: 3.701165 [ns]
	Retrieve results bandwidth 2.119000 [GByte/s]
[OGL LOG][Proc: 0]Uy: solve_multi_gpu: 329.178 [ms]
BJcudaGKOBiCGStab:  Solving for Uy, Initial residual = 0.3733010954391178, Final residual = 0.02988738068013957, No Iterations 3
[OGL LOG][Proc: 0]: global_index_init: 0.015 [ms]
[OGL LOG][Proc: 0]Uz_local_coeffs: call_update: 0 [ms]
[OGL LOG][Proc: 0]Uz_non_local_coeffs: call_update: 0 [ms]
[OGL LOG][Proc: 0]Uz: update_local_matrix_data: 294.114 [ms]
[OGL LOG][Proc: 0]Uz: update_non_local_matrix_data: 0.884 [ms]
[OGL LOG][Proc: 0]Uz_matrix: call_update: 3.977 [ms]
[OGL LOG][Proc: 0]Uz_rhs: call_update: 14.901 [ms]
[OGL LOG][Preconditioner.H:121] Generate preconditioner BJ MaxBlockSize 1
[OGL LOG][Proc: 0]Uz: init_precond: 2.291 [ms]
[OGL LOG][StoppingCriterion.H:239] Creating stopping criterion with minIter 3 frequency 1
[OGL LOG][Proc: 0]Uz: generate_solver: 0.016 [ms]
[OGL LOG][Proc: 0]Uz: solve: 282.311 [ms]
[OGL LOG][Proc: 0]Uz: copy_x_back: 23.435 [ms]
[OGL LOG][lduLduBase.H:330] 
Statistics:
	Time per iteration: 94103 [mu s]
	Time per residual norm calculation: 179.000000 [mu s]
	Time per iteration and DOF: 3.730021 [ns]
	Retrieve results bandwidth 2.155000 [GByte/s]
[OGL LOG][Proc: 0]Uz: solve_multi_gpu: 330.262 [ms]
BJcudaGKOBiCGStab:  Solving for Uz, Initial residual = 0.3562578503630283, Final residual = 0.02943408384463254, No Iterations 3
[OGL LOG][Proc: 0]: global_index_init: 0.016 [ms]
[OGL LOG][Proc: 0]p_local_coeffs: call_update: 0 [ms]
[OGL LOG][Proc: 0]p_non_local_coeffs: call_update: 0 [ms]
[OGL LOG][Proc: 0]p: update_local_matrix_data: 226.096 [ms]
[OGL LOG][Proc: 0]p: update_non_local_matrix_data: 0.893 [ms]
[OGL LOG][Proc: 0]p_matrix: call_update: 4.106 [ms]
[OGL LOG][Proc: 0]p_rhs: call_update: 14.722 [ms]
[OGL LOG][Preconditioner.H:346] Generate preconditioner Multigrid MaxLevels 9 MinCoarseRows 10 ZeroGuess 1 Cycle v
[OGL LOG][Proc: 0]p: init_precond: 1150.565 [ms]
[OGL LOG][StoppingCriterion.H:239] Creating stopping criterion with minIter 46 frequency 1
[OGL LOG][Proc: 0]p: generate_solver: 0.008999999999999999 [ms]
[OGL LOG][Proc: 0]p: solve: 971.378 [ms]
[OGL LOG][Proc: 0]p: copy_x_back: 23.349 [ms]
[OGL LOG][lduLduBase.H:330] 
Statistics:
	Time per iteration: 19824 [mu s]
	Time per residual norm calculation: 181.000000 [mu s]
	Time per iteration and DOF: 0.785777 [ns]
	Retrieve results bandwidth 2.163000 [GByte/s]
[OGL LOG][Proc: 0]p: solve_multi_gpu: 2191.184 [ms]
MultigridcudaGKOCG:  Solving for p, Initial residual = 0.4124500560211624, Final residual = 0.003906121707633437, No Iterations 49
time step continuity errors : sum local = 0.03690817195125604, global = 0.0003749064803302441, cumulative = 0.003960886629614434
[OGL LOG][Proc: 0]: global_index_init: 0.019 [ms]
[OGL LOG][Proc: 0]nuTilda_local_coeffs: call_update: 0 [ms]
[OGL LOG][Proc: 0]nuTilda_non_local_coeffs: call_update: 0 [ms]
[OGL LOG][Proc: 0]nuTilda: update_local_matrix_data: 295.143 [ms]
[OGL LOG][Proc: 0]nuTilda: update_non_local_matrix_data: 0.757 [ms]
[OGL LOG][Proc: 0]nuTilda_matrix: call_update: 4.237 [ms]
[OGL LOG][Proc: 0]nuTilda_rhs: call_update: 14.301 [ms]
[OGL LOG][Preconditioner.H:121] Generate preconditioner BJ MaxBlockSize 1
[OGL LOG][Proc: 0]nuTilda: init_precond: 2.204 [ms]
[OGL LOG][StoppingCriterion.H:239] Creating stopping criterion with minIter 3 frequency 1
[OGL LOG][Proc: 0]nuTilda: generate_solver: 0.026 [ms]
[OGL LOG][Proc: 0]nuTilda: solve: 279.509 [ms]
[OGL LOG][Proc: 0]nuTilda: copy_x_back: 23.664 [ms]
[OGL LOG][lduLduBase.H:330] 
Statistics:
	Time per iteration: 139754 [mu s]
	Time per residual norm calculation: 180.000000 [mu s]
	Time per iteration and DOF: 5.539519 [ns]
	Retrieve results bandwidth 2.134000 [GByte/s]
[OGL LOG][Proc: 0]nuTilda: solve_multi_gpu: 327.225 [ms]
BJcudaGKOBiCGStab:  Solving for nuTilda, Initial residual = 0.06259508827865105, Final residual = 0.003638806391855038, No Iterations 2
ExecutionTime = 1608.25 s  ClockTime = 1611 s

Time = 7

velocityDampingConstraint velocityDamping damped 1596 (0.01%) of cells, with max limit 300
[OGL LOG][Proc: 0]: global_index_init: 0.04 [ms]
[OGL LOG][Proc: 0]Ux_local_coeffs: call_update: 0 [ms]
[OGL LOG][Proc: 0]Ux_non_local_coeffs: call_update: 0 [ms]
[OGL LOG][Proc: 0]Ux: update_local_matrix_data: 297.178 [ms]
[OGL LOG][Proc: 0]Ux: update_non_local_matrix_data: 0.911 [ms]
[OGL LOG][Proc: 0]Ux_matrix: call_update: 3.857 [ms]
[OGL LOG][Proc: 0]Ux_rhs: call_update: 15.244 [ms]
[OGL LOG][Preconditioner.H:121] Generate preconditioner BJ MaxBlockSize 1
[OGL LOG][Proc: 0]Ux: init_precond: 1.923 [ms]
[OGL LOG][StoppingCriterion.H:239] Creating stopping criterion with minIter 4 frequency 1
[OGL LOG][Proc: 0]Ux: generate_solver: 0.014 [ms]
[OGL LOG][Proc: 0]Ux: solve: 284.472 [ms]
[OGL LOG][Proc: 0]Ux: copy_x_back: 24.181 [ms]
[OGL LOG][lduLduBase.H:330] 
Statistics:
	Time per iteration: 71118 [mu s]
	Time per residual norm calculation: 272.000000 [mu s]
	Time per iteration and DOF: 2.818950 [ns]
	Retrieve results bandwidth 2.088000 [GByte/s]
[OGL LOG][Proc: 0]Ux: solve_multi_gpu: 333.329 [ms]
BJcudaGKOBiCGStab:  Solving for Ux, Initial residual = 0.2599326930664089, Final residual = 0.009244776356555967, No Iterations 4
[OGL LOG][Proc: 0]: global_index_init: 0.014 [ms]
[OGL LOG][Proc: 0]Uy_local_coeffs: call_update: 0 [ms]
[OGL LOG][Proc: 0]Uy_non_local_coeffs: call_update: 0 [ms]
[OGL LOG][Proc: 0]Uy: update_local_matrix_data: 293.428 [ms]
[OGL LOG][Proc: 0]Uy: update_non_local_matrix_data: 0.901 [ms]
[OGL LOG][Proc: 0]Uy_matrix: call_update: 3.921 [ms]
[OGL LOG][Proc: 0]Uy_rhs: call_update: 15.131 [ms]
[OGL LOG][Preconditioner.H:121] Generate preconditioner BJ MaxBlockSize 1
[OGL LOG][Proc: 0]Uy: init_precond: 2.174 [ms]
[OGL LOG][StoppingCriterion.H:239] Creating stopping criterion with minIter 3 frequency 1
[OGL LOG][Proc: 0]Uy: generate_solver: 0.014 [ms]
[OGL LOG][Proc: 0]Uy: solve: 279.754 [ms]
[OGL LOG][Proc: 0]Uy: copy_x_back: 23.89 [ms]
[OGL LOG][lduLduBase.H:330] 
Statistics:
	Time per iteration: 93251 [mu s]
	Time per residual norm calculation: 265.000000 [mu s]
	Time per iteration and DOF: 3.696250 [ns]
	Retrieve results bandwidth 2.114000 [GByte/s]
[OGL LOG][Proc: 0]Uy: solve_multi_gpu: 328.408 [ms]
BJcudaGKOBiCGStab:  Solving for Uy, Initial residual = 0.2551021950119454, Final residual = 0.02535880224663785, No Iterations 3
[OGL LOG][Proc: 0]: global_index_init: 0.018 [ms]
[OGL LOG][Proc: 0]Uz_local_coeffs: call_update: 0 [ms]
[OGL LOG][Proc: 0]Uz_non_local_coeffs: call_update: 0 [ms]
[OGL LOG][Proc: 0]Uz: update_local_matrix_data: 294.271 [ms]
[OGL LOG][Proc: 0]Uz: update_non_local_matrix_data: 0.887 [ms]
[OGL LOG][Proc: 0]Uz_matrix: call_update: 4.065 [ms]
[OGL LOG][Proc: 0]Uz_rhs: call_update: 15.189 [ms]
[OGL LOG][Preconditioner.H:121] Generate preconditioner BJ MaxBlockSize 1
[OGL LOG][Proc: 0]Uz: init_precond: 2.284 [ms]
[OGL LOG][StoppingCriterion.H:239] Creating stopping criterion with minIter 4 frequency 1
[OGL LOG][Proc: 0]Uz: generate_solver: 0.014 [ms]
[OGL LOG][Proc: 0]Uz: solve: 284.109 [ms]
[OGL LOG][Proc: 0]Uz: copy_x_back: 23.765 [ms]
[OGL LOG][lduLduBase.H:330] 
Statistics:
	Time per iteration: 71027 [mu s]
	Time per residual norm calculation: 267.000000 [mu s]
	Time per iteration and DOF: 2.815343 [ns]
	Retrieve results bandwidth 2.125000 [GByte/s]
[OGL LOG][Proc: 0]Uz: solve_multi_gpu: 332.968 [ms]
BJcudaGKOBiCGStab:  Solving for Uz, Initial residual = 0.1914251845912006, Final residual = 0.009794576163001041, No Iterations 4
[OGL LOG][Proc: 0]: global_index_init: 0.017 [ms]
[OGL LOG][Proc: 0]p_local_coeffs: call_update: 0 [ms]
[OGL LOG][Proc: 0]p_non_local_coeffs: call_update: 0 [ms]
[OGL LOG][Proc: 0]p: update_local_matrix_data: 227.647 [ms]
[OGL LOG][Proc: 0]p: update_non_local_matrix_data: 0.88 [ms]
[OGL LOG][Proc: 0]p_matrix: call_update: 4.011 [ms]
[OGL LOG][Proc: 0]p_rhs: call_update: 15.169 [ms]
[OGL LOG][Preconditioner.H:346] Generate preconditioner Multigrid MaxLevels 9 MinCoarseRows 10 ZeroGuess 1 Cycle v
[OGL LOG][Proc: 0]p: init_precond: 1145.501 [ms]
[OGL LOG][StoppingCriterion.H:239] Creating stopping criterion with minIter 29 frequency 1
[OGL LOG][Proc: 0]p: generate_solver: 0.008999999999999999 [ms]
[OGL LOG][Proc: 0]p: solve: 696.572 [ms]
[OGL LOG][Proc: 0]p: copy_x_back: 23.72 [ms]
[OGL LOG][lduLduBase.H:330] 
Statistics:
	Time per iteration: 23219 [mu s]
	Time per residual norm calculation: 188.000000 [mu s]
	Time per iteration and DOF: 0.920346 [ns]
	Retrieve results bandwidth 2.129000 [GByte/s]
[OGL LOG][Proc: 0]p: solve_multi_gpu: 1912.188 [ms]
MultigridcudaGKOCG:  Solving for p, Initial residual = 0.2077556157787808, Final residual = 0.00141242757156686, No Iterations 30
time step continuity errors : sum local = 0.01410014246438436, global = 0.001951964041555946, cumulative = 0.00591285067117038
[OGL LOG][Proc: 0]: global_index_init: 0.02 [ms]
[OGL LOG][Proc: 0]nuTilda_local_coeffs: call_update: 0 [ms]
[OGL LOG][Proc: 0]nuTilda_non_local_coeffs: call_update: 0 [ms]
[OGL LOG][Proc: 0]nuTilda: update_local_matrix_data: 297.162 [ms]
[OGL LOG][Proc: 0]nuTilda: update_non_local_matrix_data: 0.913 [ms]
[OGL LOG][Proc: 0]nuTilda_matrix: call_update: 7.84 [ms]
[OGL LOG][Proc: 0]nuTilda_rhs: call_update: 14.255 [ms]
[OGL LOG][Preconditioner.H:121] Generate preconditioner BJ MaxBlockSize 1
[OGL LOG][Proc: 0]nuTilda: init_precond: 5.921 [ms]
[OGL LOG][StoppingCriterion.H:239] Creating stopping criterion with minIter 3 frequency 1
[OGL LOG][Proc: 0]nuTilda: generate_solver: 0.017 [ms]
[OGL LOG][Proc: 0]nuTilda: solve: 341.27 [ms]
[OGL LOG][Proc: 0]nuTilda: copy_x_back: 23.564 [ms]
[OGL LOG][lduLduBase.H:330] 
Statistics:
	Time per iteration: 170635 [mu s]
	Time per residual norm calculation: 172.000000 [mu s]
	Time per iteration and DOF: 6.763569 [ns]
	Retrieve results bandwidth 2.143000 [GByte/s]
[OGL LOG][Proc: 0]nuTilda: solve_multi_gpu: 399.018 [ms]
BJcudaGKOBiCGStab:  Solving for nuTilda, Initial residual = 0.04941052208274786, Final residual = 0.002887964844909392, No Iterations 2
ExecutionTime = 1635.28 s  ClockTime = 1638 s

Time = 8

velocityDampingConstraint velocityDamping damped 1064 (0%) of cells, with max limit 300
[OGL LOG][Proc: 0]: global_index_init: 0.036 [ms]
[OGL LOG][Proc: 0]Ux_local_coeffs: call_update: 0 [ms]
[OGL LOG][Proc: 0]Ux_non_local_coeffs: call_update: 0 [ms]
[OGL LOG][Proc: 0]Ux: update_local_matrix_data: 294.549 [ms]
[OGL LOG][Proc: 0]Ux: update_non_local_matrix_data: 0.801 [ms]
[OGL LOG][Proc: 0]Ux_matrix: call_update: 4.265 [ms]
[OGL LOG][Proc: 0]Ux_rhs: call_update: 14.409 [ms]
[OGL LOG][Preconditioner.H:121] Generate preconditioner BJ MaxBlockSize 1
[OGL LOG][Proc: 0]Ux: init_precond: 2.14 [ms]
[OGL LOG][StoppingCriterion.H:239] Creating stopping criterion with minIter 4 frequency 1
[OGL LOG][Proc: 0]Ux: generate_solver: 0.029 [ms]
[OGL LOG][Proc: 0]Ux: solve: 284.185 [ms]
[OGL LOG][Proc: 0]Ux: copy_x_back: 22.979 [ms]
[OGL LOG][lduLduBase.H:330] 
Statistics:
	Time per iteration: 71046 [mu s]
	Time per residual norm calculation: 264.000000 [mu s]
	Time per iteration and DOF: 2.816096 [ns]
	Retrieve results bandwidth 2.197000 [GByte/s]
[OGL LOG][Proc: 0]Ux: solve_multi_gpu: 331.166 [ms]
BJcudaGKOBiCGStab:  Solving for Ux, Initial residual = 0.3219694569443935, Final residual = 0.01154725287360839, No Iterations 4
[OGL LOG][Proc: 0]: global_index_init: 0.029 [ms]
[OGL LOG][Proc: 0]Uy_local_coeffs: call_update: 0 [ms]
[OGL LOG][Proc: 0]Uy_non_local_coeffs: call_update: 0 [ms]
[OGL LOG][Proc: 0]Uy: update_local_matrix_data: 294.503 [ms]
[OGL LOG][Proc: 0]Uy: update_non_local_matrix_data: 0.797 [ms]
[OGL LOG][Proc: 0]Uy_matrix: call_update: 4.203 [ms]
[OGL LOG][Proc: 0]Uy_rhs: call_update: 15.078 [ms]
[OGL LOG][Preconditioner.H:121] Generate preconditioner BJ MaxBlockSize 1
[OGL LOG][Proc: 0]Uy: init_precond: 2.289 [ms]
[OGL LOG][StoppingCriterion.H:239] Creating stopping criterion with minIter 3 frequency 1
[OGL LOG][Proc: 0]Uy: generate_solver: 0.015 [ms]
[OGL LOG][Proc: 0]Uy: solve: 288.666 [ms]
[OGL LOG][Proc: 0]Uy: copy_x_back: 24.1 [ms]
[OGL LOG][lduLduBase.H:330] 
Statistics:
	Time per iteration: 57733 [mu s]
	Time per residual norm calculation: 265.000000 [mu s]
	Time per iteration and DOF: 2.288400 [ns]
	Retrieve results bandwidth 2.095000 [GByte/s]
[OGL LOG][Proc: 0]Uy: solve_multi_gpu: 337.943 [ms]
BJcudaGKOBiCGStab:  Solving for Uy, Initial residual = 0.320697982843866, Final residual = 0.00469690843443801, No Iterations 5
[OGL LOG][Proc: 0]: global_index_init: 0.014 [ms]
[OGL LOG][Proc: 0]Uz_local_coeffs: call_update: 0 [ms]
[OGL LOG][Proc: 0]Uz_non_local_coeffs: call_update: 0 [ms]
[OGL LOG][Proc: 0]Uz: update_local_matrix_data: 294.936 [ms]
[OGL LOG][Proc: 0]Uz: update_non_local_matrix_data: 0.781 [ms]
[OGL LOG][Proc: 0]Uz_matrix: call_update: 4.012 [ms]
[OGL LOG][Proc: 0]Uz_rhs: call_update: 15.014 [ms]
[OGL LOG][Preconditioner.H:121] Generate preconditioner BJ MaxBlockSize 1
[OGL LOG][Proc: 0]Uz: init_precond: 1.995 [ms]
[OGL LOG][StoppingCriterion.H:239] Creating stopping criterion with minIter 4 frequency 1
[OGL LOG][Proc: 0]Uz: generate_solver: 0.014 [ms]
[OGL LOG][Proc: 0]Uz: solve: 281.202 [ms]
[OGL LOG][Proc: 0]Uz: copy_x_back: 23.905 [ms]
[OGL LOG][lduLduBase.H:330] 
Statistics:
	Time per iteration: 93734 [mu s]
	Time per residual norm calculation: 269.000000 [mu s]
	Time per iteration and DOF: 3.715395 [ns]
	Retrieve results bandwidth 2.112000 [GByte/s]
[OGL LOG][Proc: 0]Uz: solve_multi_gpu: 329.751 [ms]
BJcudaGKOBiCGStab:  Solving for Uz, Initial residual = 0.2530416592580852, Final residual = 0.02384968243123995, No Iterations 3
[OGL LOG][Proc: 0]: global_index_init: 0.023 [ms]
[OGL LOG][Proc: 0]p_local_coeffs: call_update: 0 [ms]
[OGL LOG][Proc: 0]p_non_local_coeffs: call_update: 0 [ms]
[OGL LOG][Proc: 0]p: update_local_matrix_data: 227.443 [ms]
[OGL LOG][Proc: 0]p: update_non_local_matrix_data: 0.897 [ms]
[OGL LOG][Proc: 0]p_matrix: call_update: 4.344 [ms]
[OGL LOG][Proc: 0]p_rhs: call_update: 15.239 [ms]
[OGL LOG][Preconditioner.H:346] Generate preconditioner Multigrid MaxLevels 9 MinCoarseRows 10 ZeroGuess 1 Cycle v
[OGL LOG][Proc: 0]p: init_precond: 1141.237 [ms]
[OGL LOG][StoppingCriterion.H:239] Creating stopping criterion with minIter 18 frequency 1
[OGL LOG][Proc: 0]p: generate_solver: 0.008999999999999999 [ms]
[OGL LOG][Proc: 0]p: solve: 1444.93 [ms]
[OGL LOG][Proc: 0]p: copy_x_back: 23.913 [ms]
[OGL LOG][lduLduBase.H:330] 
Statistics:
	Time per iteration: 17838 [mu s]
	Time per residual norm calculation: 181.000000 [mu s]
	Time per iteration and DOF: 0.707056 [ns]
	Retrieve results bandwidth 2.112000 [GByte/s]
[OGL LOG][Proc: 0]p: solve_multi_gpu: 2657.117 [ms]
MultigridcudaGKOCG:  Solving for p, Initial residual = 0.2483840322482078, Final residual = 0.002344400904038293, No Iterations 81
time step continuity errors : sum local = 0.02270507894650224, global = 0.0005251762730430727, cumulative = 0.006438026944213453
[OGL LOG][Proc: 0]: global_index_init: 0.018 [ms]
[OGL LOG][Proc: 0]nuTilda_local_coeffs: call_update: 0 [ms]
[OGL LOG][Proc: 0]nuTilda_non_local_coeffs: call_update: 0 [ms]
[OGL LOG][Proc: 0]nuTilda: update_local_matrix_data: 294.497 [ms]
[OGL LOG][Proc: 0]nuTilda: update_non_local_matrix_data: 0.844 [ms]
[OGL LOG][Proc: 0]nuTilda_matrix: call_update: 3.962 [ms]
[OGL LOG][Proc: 0]nuTilda_rhs: call_update: 14.682 [ms]
[OGL LOG][Preconditioner.H:121] Generate preconditioner BJ MaxBlockSize 1
[OGL LOG][Proc: 0]nuTilda: init_precond: 2.252 [ms]
[OGL LOG][StoppingCriterion.H:239] Creating stopping criterion with minIter 3 frequency 1
[OGL LOG][Proc: 0]nuTilda: generate_solver: 0.015 [ms]
[OGL LOG][Proc: 0]nuTilda: solve: 293.194 [ms]
[OGL LOG][Proc: 0]nuTilda: copy_x_back: 23.678 [ms]
[OGL LOG][lduLduBase.H:330] 
Statistics:
	Time per iteration: 146597 [mu s]
	Time per residual norm calculation: 183.000000 [mu s]
	Time per iteration and DOF: 5.810759 [ns]
	Retrieve results bandwidth 2.133000 [GByte/s]
[OGL LOG][Proc: 0]nuTilda: solve_multi_gpu: 340.684 [ms]
BJcudaGKOBiCGStab:  Solving for nuTilda, Initial residual = 0.03919751280236868, Final residual = 0.002108396484839853, No Iterations 2
ExecutionTime = 1663.25 s  ClockTime = 1666 s

Time = 9

velocityDampingConstraint velocityDamping damped 250 (0%) of cells, with max limit 300
[OGL LOG][Proc: 0]: global_index_init: 0.067 [ms]
[OGL LOG][Proc: 0]Ux_local_coeffs: call_update: 0 [ms]
[OGL LOG][Proc: 0]Ux_non_local_coeffs: call_update: 0 [ms]
[OGL LOG][Proc: 0]Ux: update_local_matrix_data: 293.289 [ms]
[OGL LOG][Proc: 0]Ux: update_non_local_matrix_data: 0.83 [ms]
[OGL LOG][Proc: 0]Ux_matrix: call_update: 4.114 [ms]
[OGL LOG][Proc: 0]Ux_rhs: call_update: 14.832 [ms]
[OGL LOG][Preconditioner.H:121] Generate preconditioner BJ MaxBlockSize 1
[OGL LOG][Proc: 0]Ux: init_precond: 2.206 [ms]
[OGL LOG][StoppingCriterion.H:239] Creating stopping criterion with minIter 4 frequency 1
[OGL LOG][Proc: 0]Ux: generate_solver: 0.015 [ms]
[OGL LOG][Proc: 0]Ux: solve: 284.348 [ms]
[OGL LOG][Proc: 0]Ux: copy_x_back: 23.083 [ms]
[OGL LOG][lduLduBase.H:330] 
Statistics:
	Time per iteration: 71087 [mu s]
	Time per residual norm calculation: 267.000000 [mu s]
	Time per iteration and DOF: 2.817721 [ns]
	Retrieve results bandwidth 2.188000 [GByte/s]
[OGL LOG][Proc: 0]Ux: solve_multi_gpu: 331.818 [ms]
BJcudaGKOBiCGStab:  Solving for Ux, Initial residual = 0.0671995069677313, Final residual = 0.003480196247435676, No Iterations 4
[OGL LOG][Proc: 0]: global_index_init: 0.017 [ms]
[OGL LOG][Proc: 0]Uy_local_coeffs: call_update: 0 [ms]
[OGL LOG][Proc: 0]Uy_non_local_coeffs: call_update: 0 [ms]
[OGL LOG][Proc: 0]Uy: update_local_matrix_data: 293.663 [ms]
[OGL LOG][Proc: 0]Uy: update_non_local_matrix_data: 0.893 [ms]
[OGL LOG][Proc: 0]Uy_matrix: call_update: 3.94 [ms]
[OGL LOG][Proc: 0]Uy_rhs: call_update: 15.026 [ms]
[OGL LOG][Preconditioner.H:121] Generate preconditioner BJ MaxBlockSize 1
[OGL LOG][Proc: 0]Uy: init_precond: 2.257 [ms]
[OGL LOG][StoppingCriterion.H:239] Creating stopping criterion with minIter 6 frequency 1
[OGL LOG][Proc: 0]Uy: generate_solver: 0.014 [ms]
[OGL LOG][Proc: 0]Uy: solve: 282.706 [ms]
[OGL LOG][Proc: 0]Uy: copy_x_back: 22.932 [ms]
[OGL LOG][lduLduBase.H:330] 
Statistics:
	Time per iteration: 94235 [mu s]
	Time per residual norm calculation: 197.000000 [mu s]
	Time per iteration and DOF: 3.735253 [ns]
	Retrieve results bandwidth 2.202000 [GByte/s]
[OGL LOG][Proc: 0]Uy: solve_multi_gpu: 330.232 [ms]
BJcudaGKOBiCGStab:  Solving for Uy, Initial residual = 0.1356028066904619, Final residual = 0.01147466747785047, No Iterations 3
[OGL LOG][Proc: 0]: global_index_init: 0.028 [ms]
[OGL LOG][Proc: 0]Uz_local_coeffs: call_update: 0 [ms]
[OGL LOG][Proc: 0]Uz_non_local_coeffs: call_update: 0 [ms]
[OGL LOG][Proc: 0]Uz: update_local_matrix_data: 293.73 [ms]
[OGL LOG][Proc: 0]Uz: update_non_local_matrix_data: 0.883 [ms]
[OGL LOG][Proc: 0]Uz_matrix: call_update: 3.951 [ms]
[OGL LOG][Proc: 0]Uz_rhs: call_update: 15.052 [ms]
[OGL LOG][Preconditioner.H:121] Generate preconditioner BJ MaxBlockSize 1
[OGL LOG][Proc: 0]Uz: init_precond: 2.191 [ms]
[OGL LOG][StoppingCriterion.H:239] Creating stopping criterion with minIter 3 frequency 1
[OGL LOG][Proc: 0]Uz: generate_solver: 0.014 [ms]
[OGL LOG][Proc: 0]Uz: solve: 283.123 [ms]
[OGL LOG][Proc: 0]Uz: copy_x_back: 24.296 [ms]
[OGL LOG][lduLduBase.H:330] 
Statistics:
	Time per iteration: 94374 [mu s]
	Time per residual norm calculation: 176.000000 [mu s]
	Time per iteration and DOF: 3.740763 [ns]
	Retrieve results bandwidth 2.078000 [GByte/s]
[OGL LOG][Proc: 0]Uz: solve_multi_gpu: 332.266 [ms]
BJcudaGKOBiCGStab:  Solving for Uz, Initial residual = 0.1215514863199743, Final residual = 0.007948638379920124, No Iterations 3
[OGL LOG][Proc: 0]: global_index_init: 0.017 [ms]
[OGL LOG][Proc: 0]p_local_coeffs: call_update: 0 [ms]
[OGL LOG][Proc: 0]p_non_local_coeffs: call_update: 0 [ms]
[OGL LOG][Proc: 0]p: update_local_matrix_data: 226.949 [ms]
[OGL LOG][Proc: 0]p: update_non_local_matrix_data: 0.781 [ms]
[OGL LOG][Proc: 0]p_matrix: call_update: 4.088 [ms]
[OGL LOG][Proc: 0]p_rhs: call_update: 15.215 [ms]
[OGL LOG][Preconditioner.H:346] Generate preconditioner Multigrid MaxLevels 9 MinCoarseRows 10 ZeroGuess 1 Cycle v
[OGL LOG][Proc: 0]p: init_precond: 1163.198 [ms]
[OGL LOG][StoppingCriterion.H:239] Creating stopping criterion with minIter 48 frequency 1
[OGL LOG][Proc: 0]p: generate_solver: 0.008999999999999999 [ms]
[OGL LOG][Proc: 0]p: solve: 973.408 [ms]
[OGL LOG][Proc: 0]p: copy_x_back: 24.28 [ms]
[OGL LOG][lduLduBase.H:330] 
Statistics:
	Time per iteration: 19865 [mu s]
	Time per residual norm calculation: 192.000000 [mu s]
	Time per iteration and DOF: 0.787402 [ns]
	Retrieve results bandwidth 2.080000 [GByte/s]
[OGL LOG][Proc: 0]p: solve_multi_gpu: 2207.156 [ms]
MultigridcudaGKOCG:  Solving for p, Initial residual = 0.9170425084135844, Final residual = 0.002966368835217881, No Iterations 49
time step continuity errors : sum local = 0.1877874717399214, global = 0.003799696860622168, cumulative = 0.01023772380483562
[OGL LOG][Proc: 0]: global_index_init: 0.026 [ms]
[OGL LOG][Proc: 0]nuTilda_local_coeffs: call_update: 0 [ms]
[OGL LOG][Proc: 0]nuTilda_non_local_coeffs: call_update: 0 [ms]
[OGL LOG][Proc: 0]nuTilda: update_local_matrix_data: 294.33 [ms]
[OGL LOG][Proc: 0]nuTilda: update_non_local_matrix_data: 0.773 [ms]
[OGL LOG][Proc: 0]nuTilda_matrix: call_update: 4.272 [ms]
[OGL LOG][Proc: 0]nuTilda_rhs: call_update: 14.647 [ms]
[OGL LOG][Preconditioner.H:121] Generate preconditioner BJ MaxBlockSize 1
[OGL LOG][Proc: 0]nuTilda: init_precond: 2.152 [ms]
[OGL LOG][StoppingCriterion.H:239] Creating stopping criterion with minIter 3 frequency 1
[OGL LOG][Proc: 0]nuTilda: generate_solver: 0.025 [ms]
[OGL LOG][Proc: 0]nuTilda: solve: 275.962 [ms]
[OGL LOG][Proc: 0]nuTilda: copy_x_back: 23.739 [ms]
[OGL LOG][lduLduBase.H:330] 
Statistics:
	Time per iteration: 137981 [mu s]
	Time per residual norm calculation: 275.000000 [mu s]
	Time per iteration and DOF: 5.469242 [ns]
	Retrieve results bandwidth 2.127000 [GByte/s]
[OGL LOG][Proc: 0]nuTilda: solve_multi_gpu: 324.393 [ms]
BJcudaGKOBiCGStab:  Solving for nuTilda, Initial residual = 0.2115191054935705, Final residual = 0.0174529544571719, No Iterations 2
ExecutionTime = 1690.76 s  ClockTime = 1693 s

Time = 10

velocityDampingConstraint velocityDamping damped 384856 (1.53%) of cells, with max limit 300
[OGL LOG][Proc: 0]: global_index_init: 0.014 [ms]
[OGL LOG][Proc: 0]Ux_local_coeffs: call_update: 0 [ms]
[OGL LOG][Proc: 0]Ux_non_local_coeffs: call_update: 0 [ms]
[OGL LOG][Proc: 0]Ux: update_local_matrix_data: 295.815 [ms]
[OGL LOG][Proc: 0]Ux: update_non_local_matrix_data: 0.864 [ms]
[OGL LOG][Proc: 0]Ux_matrix: call_update: 3.924 [ms]
[OGL LOG][Proc: 0]Ux_rhs: call_update: 15.385 [ms]
[OGL LOG][Preconditioner.H:121] Generate preconditioner BJ MaxBlockSize 1
[OGL LOG][Proc: 0]Ux: init_precond: 2.098 [ms]
[OGL LOG][StoppingCriterion.H:239] Creating stopping criterion with minIter 4 frequency 1
[OGL LOG][Proc: 0]Ux: generate_solver: 0.018 [ms]
[OGL LOG][Proc: 0]Ux: solve: 279.486 [ms]
[OGL LOG][Proc: 0]Ux: copy_x_back: 23.82 [ms]
[OGL LOG][lduLduBase.H:330] 
Statistics:
	Time per iteration: 93162 [mu s]
	Time per residual norm calculation: 272.000000 [mu s]
	Time per iteration and DOF: 3.692722 [ns]
	Retrieve results bandwidth 2.120000 [GByte/s]
[OGL LOG][Proc: 0]Ux: solve_multi_gpu: 328.203 [ms]
BJcudaGKOBiCGStab:  Solving for Ux, Initial residual = 0.6476278497322625, Final residual = 0.01497858937292359, No Iterations 3
[OGL LOG][Proc: 0]: global_index_init: 0.015 [ms]
[OGL LOG][Proc: 0]Uy_local_coeffs: call_update: 0 [ms]
[OGL LOG][Proc: 0]Uy_non_local_coeffs: call_update: 0 [ms]
[OGL LOG][Proc: 0]Uy: update_local_matrix_data: 295.59 [ms]
[OGL LOG][Proc: 0]Uy: update_non_local_matrix_data: 0.837 [ms]
[OGL LOG][Proc: 0]Uy_matrix: call_update: 3.92 [ms]
[OGL LOG][Proc: 0]Uy_rhs: call_update: 14.874 [ms]
[OGL LOG][Preconditioner.H:121] Generate preconditioner BJ MaxBlockSize 1
[OGL LOG][Proc: 0]Uy: init_precond: 2.073 [ms]
[OGL LOG][StoppingCriterion.H:239] Creating stopping criterion with minIter 4 frequency 1
[OGL LOG][Proc: 0]Uy: generate_solver: 0.016 [ms]
[OGL LOG][Proc: 0]Uy: solve: 279.887 [ms]
[OGL LOG][Proc: 0]Uy: copy_x_back: 23.084 [ms]
[OGL LOG][lduLduBase.H:330] 
Statistics:
	Time per iteration: 93295 [mu s]
	Time per residual norm calculation: 271.000000 [mu s]
	Time per iteration and DOF: 3.697994 [ns]
	Retrieve results bandwidth 2.187000 [GByte/s]
[OGL LOG][Proc: 0]Uy: solve_multi_gpu: 327.147 [ms]
BJcudaGKOBiCGStab:  Solving for Uy, Initial residual = 0.8332948226471133, Final residual = 0.04181003065874742, No Iterations 3
[OGL LOG][Proc: 0]: global_index_init: 0.015 [ms]
[OGL LOG][Proc: 0]Uz_local_coeffs: call_update: 0 [ms]
[OGL LOG][Proc: 0]Uz_non_local_coeffs: call_update: 0 [ms]
[OGL LOG][Proc: 0]Uz: update_local_matrix_data: 294.102 [ms]
[OGL LOG][Proc: 0]Uz: update_non_local_matrix_data: 0.853 [ms]
[OGL LOG][Proc: 0]Uz_matrix: call_update: 4.109 [ms]
[OGL LOG][Proc: 0]Uz_rhs: call_update: 14.539 [ms]
[OGL LOG][Preconditioner.H:121] Generate preconditioner BJ MaxBlockSize 1
[OGL LOG][Proc: 0]Uz: init_precond: 1.973 [ms]
[OGL LOG][StoppingCriterion.H:239] Creating stopping criterion with minIter 4 frequency 1
[OGL LOG][Proc: 0]Uz: generate_solver: 0.014 [ms]
[OGL LOG][Proc: 0]Uz: solve: 281.415 [ms]
[OGL LOG][Proc: 0]Uz: copy_x_back: 23.034 [ms]
[OGL LOG][lduLduBase.H:330] 
Statistics:
	Time per iteration: 93805 [mu s]
	Time per residual norm calculation: 272.000000 [mu s]
	Time per iteration and DOF: 3.718209 [ns]
	Retrieve results bandwidth 2.192000 [GByte/s]
[OGL LOG][Proc: 0]Uz: solve_multi_gpu: 328.641 [ms]
BJcudaGKOBiCGStab:  Solving for Uz, Initial residual = 0.8316174042878923, Final residual = 0.04228808438773314, No Iterations 3
[OGL LOG][Proc: 0]: global_index_init: 0.017 [ms]
[OGL LOG][Proc: 0]p_local_coeffs: call_update: 0 [ms]
[OGL LOG][Proc: 0]p_non_local_coeffs: call_update: 0 [ms]
[OGL LOG][Proc: 0]p: update_local_matrix_data: 226.602 [ms]
[OGL LOG][Proc: 0]p: update_non_local_matrix_data: 0.912 [ms]
[OGL LOG][Proc: 0]p_matrix: call_update: 4.195 [ms]
[OGL LOG][Proc: 0]p_rhs: call_update: 15.153 [ms]
[OGL LOG][Preconditioner.H:346] Generate preconditioner Multigrid MaxLevels 9 MinCoarseRows 10 ZeroGuess 1 Cycle v
[OGL LOG][Proc: 0]p: init_precond: 1128.398 [ms]
[OGL LOG][StoppingCriterion.H:239] Creating stopping criterion with minIter 29 frequency 1
[OGL LOG][Proc: 0]p: generate_solver: 0.008999999999999999 [ms]
[OGL LOG][Proc: 0]p: solve: 720.014 [ms]
[OGL LOG][Proc: 0]p: copy_x_back: 24.166 [ms]
[OGL LOG][lduLduBase.H:330] 
Statistics:
	Time per iteration: 23226 [mu s]
	Time per residual norm calculation: 179.000000 [mu s]
	Time per iteration and DOF: 0.920624 [ns]
	Retrieve results bandwidth 2.090000 [GByte/s]
[OGL LOG][Proc: 0]p: solve_multi_gpu: 1919.198 [ms]
MultigridcudaGKOCG:  Solving for p, Initial residual = 0.4865239218561349, Final residual = 0.004463623240836974, No Iterations 31
time step continuity errors : sum local = 0.5614634635590062, global = 0.01948621461988496, cumulative = 0.02972393842472058
[OGL LOG][Proc: 0]: global_index_init: 0.017 [ms]
[OGL LOG][Proc: 0]nuTilda_local_coeffs: call_update: 0 [ms]
[OGL LOG][Proc: 0]nuTilda_non_local_coeffs: call_update: 0 [ms]
[OGL LOG][Proc: 0]nuTilda: update_local_matrix_data: 295.472 [ms]
[OGL LOG][Proc: 0]nuTilda: update_non_local_matrix_data: 0.854 [ms]
[OGL LOG][Proc: 0]nuTilda_matrix: call_update: 3.957 [ms]
[OGL LOG][Proc: 0]nuTilda_rhs: call_update: 14.276 [ms]
[OGL LOG][Preconditioner.H:121] Generate preconditioner BJ MaxBlockSize 1
[OGL LOG][Proc: 0]nuTilda: init_precond: 2.261 [ms]
[OGL LOG][StoppingCriterion.H:239] Creating stopping criterion with minIter 2 frequency 1
[OGL LOG][Proc: 0]nuTilda: generate_solver: 0.014 [ms]
[OGL LOG][Proc: 0]nuTilda: solve: 280.48 [ms]
[OGL LOG][Proc: 0]nuTilda: copy_x_back: 23.837 [ms]
[OGL LOG][lduLduBase.H:330] 
Statistics:
	Time per iteration: 93493 [mu s]
	Time per residual norm calculation: 267.000000 [mu s]
	Time per iteration and DOF: 3.705842 [ns]
	Retrieve results bandwidth 2.118000 [GByte/s]
[OGL LOG][Proc: 0]nuTilda: solve_multi_gpu: 328.335 [ms]
BJcudaGKOBiCGStab:  Solving for nuTilda, Initial residual = 0.1051787368847026, Final residual = 0.008504768179365994, No Iterations 3
ExecutionTime = 1718.32 s  ClockTime = 1721 s

Time = 11

velocityDampingConstraint velocityDamping damped 214329 (0.85%) of cells, with max limit 300
[OGL LOG][Proc: 0]: global_index_init: 0.021 [ms]
[OGL LOG][Proc: 0]Ux_local_coeffs: call_update: 0 [ms]
[OGL LOG][Proc: 0]Ux_non_local_coeffs: call_update: 0 [ms]
[OGL LOG][Proc: 0]Ux: update_local_matrix_data: 294.956 [ms]
[OGL LOG][Proc: 0]Ux: update_non_local_matrix_data: 0.793 [ms]
[OGL LOG][Proc: 0]Ux_matrix: call_update: 3.967 [ms]
[OGL LOG][Proc: 0]Ux_rhs: call_update: 15.277 [ms]
[OGL LOG][Preconditioner.H:121] Generate preconditioner BJ MaxBlockSize 1
[OGL LOG][Proc: 0]Ux: init_precond: 2.405 [ms]
[OGL LOG][StoppingCriterion.H:239] Creating stopping criterion with minIter 3 frequency 1
[OGL LOG][Proc: 0]Ux: generate_solver: 0.025 [ms]
[OGL LOG][Proc: 0]Ux: solve: 279.459 [ms]
[OGL LOG][Proc: 0]Ux: copy_x_back: 23.752 [ms]
[OGL LOG][lduLduBase.H:330] 
Statistics:
	Time per iteration: 139729 [mu s]
	Time per residual norm calculation: 179.000000 [mu s]
	Time per iteration and DOF: 5.538528 [ns]
	Retrieve results bandwidth 2.126000 [GByte/s]
[OGL LOG][Proc: 0]Ux: solve_multi_gpu: 328.515 [ms]
BJcudaGKOBiCGStab:  Solving for Ux, Initial residual = 0.69459627961556, Final residual = 0.06805546983874546, No Iterations 2
[OGL LOG][Proc: 0]: global_index_init: 0.03 [ms]
[OGL LOG][Proc: 0]Uy_local_coeffs: call_update: 0 [ms]
[OGL LOG][Proc: 0]Uy_non_local_coeffs: call_update: 0 [ms]
[OGL LOG][Proc: 0]Uy: update_local_matrix_data: 292.302 [ms]
[OGL LOG][Proc: 0]Uy: update_non_local_matrix_data: 0.76 [ms]
[OGL LOG][Proc: 0]Uy_matrix: call_update: 4.465 [ms]
[OGL LOG][Proc: 0]Uy_rhs: call_update: 14.945 [ms]
[OGL LOG][Preconditioner.H:121] Generate preconditioner BJ MaxBlockSize 1
[OGL LOG][Proc: 0]Uy: init_precond: 2.004 [ms]
[...]
	Time per iteration and DOF: 0.782526 [ns]
	Retrieve results bandwidth 2.190000 [GByte/s]
[OGL LOG][Proc: 0]p: solve_multi_gpu: 2275.572 [ms]
MultigridcudaGKOCG:  Solving for p, Initial residual = 0.1145726130354524, Final residual = 0.001144214020805689, No Iterations 53
time step continuity errors : sum local = 0.003231141221560058, global = 8.844281648863429e-06, cumulative = -0.001639678377934716
[OGL LOG][Proc: 0]: global_index_init: 0.017 [ms]
[OGL LOG][Proc: 0]nuTilda_local_coeffs: call_update: 0 [ms]
[OGL LOG][Proc: 0]nuTilda_non_local_coeffs: call_update: 0 [ms]
[OGL LOG][Proc: 0]nuTilda: update_local_matrix_data: 295.576 [ms]
[OGL LOG][Proc: 0]nuTilda: update_non_local_matrix_data: 0.793 [ms]
[OGL LOG][Proc: 0]nuTilda_matrix: call_update: 4.228 [ms]
[OGL LOG][Proc: 0]nuTilda_rhs: call_update: 14.456 [ms]
[OGL LOG][Preconditioner.H:121] Generate preconditioner BJ MaxBlockSize 1
[OGL LOG][Proc: 0]nuTilda: init_precond: 1.974 [ms]
[OGL LOG][StoppingCriterion.H:239] Creating stopping criterion with minIter 3 frequency 1
[OGL LOG][Proc: 0]nuTilda: generate_solver: 0.016 [ms]
[OGL LOG][Proc: 0]nuTilda: solve: 280.348 [ms]
[OGL LOG][Proc: 0]nuTilda: copy_x_back: 23.647 [ms]
[OGL LOG][lduLduBase.H:330] 
Statistics:
	Time per iteration: 140174 [mu s]
	Time per residual norm calculation: 178.000000 [mu s]
	Time per iteration and DOF: 5.556167 [ns]
	Retrieve results bandwidth 2.135000 [GByte/s]
[OGL LOG][Proc: 0]nuTilda: solve_multi_gpu: 328.248 [ms]
BJcudaGKOBiCGStab:  Solving for nuTilda, Initial residual = 0.01782831919511242, Final residual = 0.001341246315270818, No Iterations 2
ExecutionTime = 4104.76 s  ClockTime = 4114 s

Time = 98

velocityDampingConstraint velocityDamping damped 0 (0%) of cells, with max limit 300
[OGL LOG][Proc: 0]: global_index_init: 0.013 [ms]
[OGL LOG][Proc: 0]Ux_local_coeffs: call_update: 0 [ms]
[OGL LOG][Proc: 0]Ux_non_local_coeffs: call_update: 0 [ms]
[OGL LOG][Proc: 0]Ux: update_local_matrix_data: 294.868 [ms]
[OGL LOG][Proc: 0]Ux: update_non_local_matrix_data: 0.826 [ms]
[OGL LOG][Proc: 0]Ux_matrix: call_update: 3.913 [ms]
[OGL LOG][Proc: 0]Ux_rhs: call_update: 14.883 [ms]
[OGL LOG][Preconditioner.H:121] Generate preconditioner BJ MaxBlockSize 1
[OGL LOG][Proc: 0]Ux: init_precond: 1.846 [ms]
[OGL LOG][StoppingCriterion.H:239] Creating stopping criterion with minIter 4 frequency 1
[OGL LOG][Proc: 0]Ux: generate_solver: 0.033 [ms]
[OGL LOG][Proc: 0]Ux: solve: 286.258 [ms]
[OGL LOG][Proc: 0]Ux: copy_x_back: 23.215 [ms]
[OGL LOG][lduLduBase.H:330] 
Statistics:
	Time per iteration: 71564 [mu s]
	Time per residual norm calculation: 271.000000 [mu s]
	Time per iteration and DOF: 2.836628 [ns]
	Retrieve results bandwidth 2.175000 [GByte/s]
[OGL LOG][Proc: 0]Ux: solve_multi_gpu: 333.519 [ms]
BJcudaGKOBiCGStab:  Solving for Ux, Initial residual = 0.01874173477404018, Final residual = 0.0008087527414880179, No Iterations 4
[OGL LOG][Proc: 0]: global_index_init: 0.016 [ms]
[OGL LOG][Proc: 0]Uy_local_coeffs: call_update: 0 [ms]
[OGL LOG][Proc: 0]Uy_non_local_coeffs: call_update: 0 [ms]
[OGL LOG][Proc: 0]Uy: update_local_matrix_data: 294.619 [ms]
[OGL LOG][Proc: 0]Uy: update_non_local_matrix_data: 0.893 [ms]
[OGL LOG][Proc: 0]Uy_matrix: call_update: 3.788 [ms]
[OGL LOG][Proc: 0]Uy_rhs: call_update: 15.139 [ms]
[OGL LOG][Preconditioner.H:121] Generate preconditioner BJ MaxBlockSize 1
[OGL LOG][Proc: 0]Uy: init_precond: 2.398 [ms]
[OGL LOG][StoppingCriterion.H:239] Creating stopping criterion with minIter 3 frequency 1
[OGL LOG][Proc: 0]Uy: generate_solver: 0.015 [ms]
[OGL LOG][Proc: 0]Uy: solve: 281.517 [ms]
[OGL LOG][Proc: 0]Uy: copy_x_back: 23.894 [ms]
[OGL LOG][lduLduBase.H:330] 
Statistics:
	Time per iteration: 140758 [mu s]
	Time per residual norm calculation: 187.000000 [mu s]
	Time per iteration and DOF: 5.579315 [ns]
	Retrieve results bandwidth 2.113000 [GByte/s]
[OGL LOG][Proc: 0]Uy: solve_multi_gpu: 330.361 [ms]
BJcudaGKOBiCGStab:  Solving for Uy, Initial residual = 0.03764063100068134, Final residual = 0.003761288937562505, No Iterations 2
[OGL LOG][Proc: 0]: global_index_init: 0.015 [ms]
[OGL LOG][Proc: 0]Uz_local_coeffs: call_update: 0 [ms]
[OGL LOG][Proc: 0]Uz_non_local_coeffs: call_update: 0 [ms]
[OGL LOG][Proc: 0]Uz: update_local_matrix_data: 294.237 [ms]
[OGL LOG][Proc: 0]Uz: update_non_local_matrix_data: 0.878 [ms]
[OGL LOG][Proc: 0]Uz_matrix: call_update: 4.149 [ms]
[OGL LOG][Proc: 0]Uz_rhs: call_update: 15.189 [ms]
[OGL LOG][Preconditioner.H:121] Generate preconditioner BJ MaxBlockSize 1
[OGL LOG][Proc: 0]Uz: init_precond: 2.054 [ms]
[OGL LOG][StoppingCriterion.H:239] Creating stopping criterion with minIter 4 frequency 1
[OGL LOG][Proc: 0]Uz: generate_solver: 0.014 [ms]
[OGL LOG][Proc: 0]Uz: solve: 282.566 [ms]
[OGL LOG][Proc: 0]Uz: copy_x_back: 23.989 [ms]
[OGL LOG][lduLduBase.H:330] 
Statistics:
	Time per iteration: 94188 [mu s]
	Time per residual norm calculation: 265.000000 [mu s]
	Time per iteration and DOF: 3.733390 [ns]
	Retrieve results bandwidth 2.105000 [GByte/s]
[OGL LOG][Proc: 0]Uz: solve_multi_gpu: 331.565 [ms]
BJcudaGKOBiCGStab:  Solving for Uz, Initial residual = 0.03023861550179936, Final residual = 0.002843807495532077, No Iterations 3
[OGL LOG][Proc: 0]: global_index_init: 0.015 [ms]
[OGL LOG][Proc: 0]p_local_coeffs: call_update: 0 [ms]
[OGL LOG][Proc: 0]p_non_local_coeffs: call_update: 0 [ms]
[OGL LOG][Proc: 0]p: update_local_matrix_data: 226.916 [ms]
[OGL LOG][Proc: 0]p: update_non_local_matrix_data: 0.904 [ms]
[OGL LOG][Proc: 0]p_matrix: call_update: 3.972 [ms]
[OGL LOG][Proc: 0]p_rhs: call_update: 15.209 [ms]
[OGL LOG][Preconditioner.H:346] Generate preconditioner Multigrid MaxLevels 9 MinCoarseRows 10 ZeroGuess 1 Cycle v
[OGL LOG][Proc: 0]p: init_precond: 1144.408 [ms]
[OGL LOG][StoppingCriterion.H:239] Creating stopping criterion with minIter 31 frequency 1
[OGL LOG][Proc: 0]p: generate_solver: 0.016 [ms]
[OGL LOG][Proc: 0]p: solve: 736.968 [ms]
[OGL LOG][Proc: 0]p: copy_x_back: 24.038 [ms]
[OGL LOG][lduLduBase.H:330] 
Statistics:
	Time per iteration: 23030 [mu s]
	Time per residual norm calculation: 193.000000 [mu s]
	Time per iteration and DOF: 0.912855 [ns]
	Retrieve results bandwidth 2.101000 [GByte/s]
[OGL LOG][Proc: 0]p: solve_multi_gpu: 1951.795 [ms]
MultigridcudaGKOCG:  Solving for p, Initial residual = 0.3944532044211518, Final residual = 0.001454740029098717, No Iterations 32
time step continuity errors : sum local = 0.005070129928445751, global = -0.000272839274053237, cumulative = -0.001912517651987952
[OGL LOG][Proc: 0]: global_index_init: 0.018 [ms]
[OGL LOG][Proc: 0]nuTilda_local_coeffs: call_update: 0 [ms]
[OGL LOG][Proc: 0]nuTilda_non_local_coeffs: call_update: 0 [ms]
[OGL LOG][Proc: 0]nuTilda: update_local_matrix_data: 294.832 [ms]
[OGL LOG][Proc: 0]nuTilda: update_non_local_matrix_data: 0.829 [ms]
[OGL LOG][Proc: 0]nuTilda_matrix: call_update: 4.119 [ms]
[OGL LOG][Proc: 0]nuTilda_rhs: call_update: 14.444 [ms]
[OGL LOG][Preconditioner.H:121] Generate preconditioner BJ MaxBlockSize 1
[OGL LOG][Proc: 0]nuTilda: init_precond: 2.033 [ms]
[OGL LOG][StoppingCriterion.H:239] Creating stopping criterion with minIter 3 frequency 1
[OGL LOG][Proc: 0]nuTilda: generate_solver: 0.018 [ms]
[OGL LOG][Proc: 0]nuTilda: solve: 281.944 [ms]
[OGL LOG][Proc: 0]nuTilda: copy_x_back: 23.651 [ms]
[OGL LOG][lduLduBase.H:330] 
Statistics:
	Time per iteration: 140972 [mu s]
	Time per residual norm calculation: 178.000000 [mu s]
	Time per iteration and DOF: 5.587798 [ns]
	Retrieve results bandwidth 2.135000 [GByte/s]
[OGL LOG][Proc: 0]nuTilda: solve_multi_gpu: 329.392 [ms]
BJcudaGKOBiCGStab:  Solving for nuTilda, Initial residual = 0.01765962353560838, Final residual = 0.001365311330508275, No Iterations 2
ExecutionTime = 4131.98 s  ClockTime = 4141 s

Time = 99

velocityDampingConstraint velocityDamping damped 0 (0%) of cells, with max limit 300
[OGL LOG][Proc: 0]: global_index_init: 0.049 [ms]
[OGL LOG][Proc: 0]Ux_local_coeffs: call_update: 0 [ms]
[OGL LOG][Proc: 0]Ux_non_local_coeffs: call_update: 0 [ms]
[OGL LOG][Proc: 0]Ux: update_local_matrix_data: 294.156 [ms]
[OGL LOG][Proc: 0]Ux: update_non_local_matrix_data: 0.795 [ms]
[OGL LOG][Proc: 0]Ux_matrix: call_update: 3.893 [ms]
[OGL LOG][Proc: 0]Ux_rhs: call_update: 15.061 [ms]
[OGL LOG][Preconditioner.H:121] Generate preconditioner BJ MaxBlockSize 1
[OGL LOG][Proc: 0]Ux: init_precond: 2.093 [ms]
[OGL LOG][StoppingCriterion.H:239] Creating stopping criterion with minIter 4 frequency 1
[OGL LOG][Proc: 0]Ux: generate_solver: 0.015 [ms]
[OGL LOG][Proc: 0]Ux: solve: 284.278 [ms]
[OGL LOG][Proc: 0]Ux: copy_x_back: 22.97 [ms]
[OGL LOG][lduLduBase.H:330] 
Statistics:
	Time per iteration: 94759 [mu s]
	Time per residual norm calculation: 175.000000 [mu s]
	Time per iteration and DOF: 3.756023 [ns]
	Retrieve results bandwidth 2.198000 [GByte/s]
[OGL LOG][Proc: 0]Ux: solve_multi_gpu: 331.098 [ms]
BJcudaGKOBiCGStab:  Solving for Ux, Initial residual = 0.04203668380073466, Final residual = 0.003674677015366156, No Iterations 3
[OGL LOG][Proc: 0]: global_index_init: 0.022 [ms]
[OGL LOG][Proc: 0]Uy_local_coeffs: call_update: 0 [ms]
[OGL LOG][Proc: 0]Uy_non_local_coeffs: call_update: 0 [ms]
[OGL LOG][Proc: 0]Uy: update_local_matrix_data: 297.186 [ms]
[OGL LOG][Proc: 0]Uy: update_non_local_matrix_data: 0.78 [ms]
[OGL LOG][Proc: 0]Uy_matrix: call_update: 3.786 [ms]
[OGL LOG][Proc: 0]Uy_rhs: call_update: 16.327 [ms]
[OGL LOG][Preconditioner.H:121] Generate preconditioner BJ MaxBlockSize 1
[OGL LOG][Proc: 0]Uy: init_precond: 4.225 [ms]
[OGL LOG][StoppingCriterion.H:239] Creating stopping criterion with minIter 3 frequency 1
[OGL LOG][Proc: 0]Uy: generate_solver: 0.016 [ms]
[OGL LOG][Proc: 0]Uy: solve: 336.582 [ms]
[OGL LOG][Proc: 0]Uy: copy_x_back: 22.538 [ms]
[OGL LOG][lduLduBase.H:330] 
Statistics:
	Time per iteration: 112194 [mu s]
	Time per residual norm calculation: 177.000000 [mu s]
	Time per iteration and DOF: 4.447106 [ns]
	Retrieve results bandwidth 2.240000 [GByte/s]
[OGL LOG][Proc: 0]Uy: solve_multi_gpu: 392.195 [ms]
BJcudaGKOBiCGStab:  Solving for Uy, Initial residual = 0.03730324115873995, Final residual = 0.002295628766469933, No Iterations 3
[OGL LOG][Proc: 0]: global_index_init: 2.484 [ms]
[OGL LOG][Proc: 0]Uz_local_coeffs: call_update: 0 [ms]
[OGL LOG][Proc: 0]Uz_non_local_coeffs: call_update: 0 [ms]
[OGL LOG][Proc: 0]Uz: update_local_matrix_data: 293.636 [ms]
[OGL LOG][Proc: 0]Uz: update_non_local_matrix_data: 0.783 [ms]
[OGL LOG][Proc: 0]Uz_matrix: call_update: 3.961 [ms]
[OGL LOG][Proc: 0]Uz_rhs: call_update: 15.016 [ms]
[OGL LOG][Preconditioner.H:121] Generate preconditioner BJ MaxBlockSize 1
[OGL LOG][Proc: 0]Uz: init_precond: 2.21 [ms]
[OGL LOG][StoppingCriterion.H:239] Creating stopping criterion with minIter 3 frequency 1
[OGL LOG][Proc: 0]Uz: generate_solver: 0.014 [ms]
[OGL LOG][Proc: 0]Uz: solve: 283.548 [ms]
[OGL LOG][Proc: 0]Uz: copy_x_back: 24.335 [ms]
[OGL LOG][lduLduBase.H:330] 
Statistics:
	Time per iteration: 94516 [mu s]
	Time per residual norm calculation: 169.000000 [mu s]
	Time per iteration and DOF: 3.746391 [ns]
	Retrieve results bandwidth 2.075000 [GByte/s]
[OGL LOG][Proc: 0]Uz: solve_multi_gpu: 332.602 [ms]
BJcudaGKOBiCGStab:  Solving for Uz, Initial residual = 0.03105998682334134, Final residual = 0.001971899152352231, No Iterations 3
[OGL LOG][Proc: 0]: global_index_init: 0.016 [ms]
[OGL LOG][Proc: 0]p_local_coeffs: call_update: 0 [ms]
[OGL LOG][Proc: 0]p_non_local_coeffs: call_update: 0 [ms]
[OGL LOG][Proc: 0]p: update_local_matrix_data: 226.984 [ms]
[OGL LOG][Proc: 0]p: update_non_local_matrix_data: 0.792 [ms]
[OGL LOG][Proc: 0]p_matrix: call_update: 3.853 [ms]
[OGL LOG][Proc: 0]p_rhs: call_update: 15.034 [ms]
[OGL LOG][Preconditioner.H:346] Generate preconditioner Multigrid MaxLevels 9 MinCoarseRows 10 ZeroGuess 1 Cycle v
[OGL LOG][Proc: 0]p: init_precond: 1131.033 [ms]
[OGL LOG][StoppingCriterion.H:239] Creating stopping criterion with minIter 19 frequency 1
[OGL LOG][Proc: 0]p: generate_solver: 0.008999999999999999 [ms]
[OGL LOG][Proc: 0]p: solve: 580.88 [ms]
[OGL LOG][Proc: 0]p: copy_x_back: 24.801 [ms]
[OGL LOG][lduLduBase.H:330] 
Statistics:
	Time per iteration: 27660 [mu s]
	Time per residual norm calculation: 189.000000 [mu s]
	Time per iteration and DOF: 1.096377 [ns]
	Retrieve results bandwidth 2.036000 [GByte/s]
[OGL LOG][Proc: 0]p: solve_multi_gpu: 1783.269 [ms]
MultigridcudaGKOCG:  Solving for p, Initial residual = 0.3278399262534099, Final residual = 0.003022651712604567, No Iterations 21
time step continuity errors : sum local = 0.0109997023355839, global = 0.0003935395780290064, cumulative = -0.001518978073958946
[OGL LOG][Proc: 0]: global_index_init: 0.026 [ms]
[OGL LOG][Proc: 0]nuTilda_local_coeffs: call_update: 0 [ms]
[OGL LOG][Proc: 0]nuTilda_non_local_coeffs: call_update: 0 [ms]
[OGL LOG][Proc: 0]nuTilda: update_local_matrix_data: 296.047 [ms]
[OGL LOG][Proc: 0]nuTilda: update_non_local_matrix_data: 0.797 [ms]
[OGL LOG][Proc: 0]nuTilda_matrix: call_update: 4.193 [ms]
[OGL LOG][Proc: 0]nuTilda_rhs: call_update: 14.454 [ms]
[OGL LOG][Preconditioner.H:121] Generate preconditioner BJ MaxBlockSize 1
[OGL LOG][Proc: 0]nuTilda: init_precond: 2.428 [ms]
[OGL LOG][StoppingCriterion.H:239] Creating stopping criterion with minIter 3 frequency 1
[OGL LOG][Proc: 0]nuTilda: generate_solver: 0.021 [ms]
[OGL LOG][Proc: 0]nuTilda: solve: 279.926 [ms]
[OGL LOG][Proc: 0]nuTilda: copy_x_back: 23.622 [ms]
[OGL LOG][lduLduBase.H:330] 
Statistics:
	Time per iteration: 139963 [mu s]
	Time per residual norm calculation: 194.000000 [mu s]
	Time per iteration and DOF: 5.547803 [ns]
	Retrieve results bandwidth 2.138000 [GByte/s]
[OGL LOG][Proc: 0]nuTilda: solve_multi_gpu: 328.237 [ms]
BJcudaGKOBiCGStab:  Solving for nuTilda, Initial residual = 0.01772165424670935, Final residual = 0.001332229931127837, No Iterations 2
ExecutionTime = 4159.06 s  ClockTime = 4168 s

Time = 100

velocityDampingConstraint velocityDamping damped 0 (0%) of cells, with max limit 300
[OGL LOG][Proc: 0]: global_index_init: 0.04 [ms]
[OGL LOG][Proc: 0]Ux_local_coeffs: call_update: 0 [ms]
[OGL LOG][Proc: 0]Ux_non_local_coeffs: call_update: 0 [ms]
[OGL LOG][Proc: 0]Ux: update_local_matrix_data: 294.819 [ms]
[OGL LOG][Proc: 0]Ux: update_non_local_matrix_data: 0.79 [ms]
[OGL LOG][Proc: 0]Ux_matrix: call_update: 4.11 [ms]
[OGL LOG][Proc: 0]Ux_rhs: call_update: 15.091 [ms]
[OGL LOG][Preconditioner.H:121] Generate preconditioner BJ MaxBlockSize 1
[OGL LOG][Proc: 0]Ux: init_precond: 2.219 [ms]
[OGL LOG][StoppingCriterion.H:239] Creating stopping criterion with minIter 4 frequency 1
[OGL LOG][Proc: 0]Ux: generate_solver: 0.015 [ms]
[OGL LOG][Proc: 0]Ux: solve: 281.183 [ms]
[OGL LOG][Proc: 0]Ux: copy_x_back: 23.878 [ms]
[OGL LOG][lduLduBase.H:330] 
Statistics:
	Time per iteration: 93727 [mu s]
	Time per residual norm calculation: 189.000000 [mu s]
	Time per iteration and DOF: 3.715117 [ns]
	Retrieve results bandwidth 2.115000 [GByte/s]
[OGL LOG][Proc: 0]Ux: solve_multi_gpu: 330.055 [ms]
BJcudaGKOBiCGStab:  Solving for Ux, Initial residual = 0.02417866166069186, Final residual = 0.001685760735470898, No Iterations 3
[OGL LOG][Proc: 0]: global_index_init: 0.023 [ms]
[OGL LOG][Proc: 0]Uy_local_coeffs: call_update: 0 [ms]
[OGL LOG][Proc: 0]Uy_non_local_coeffs: call_update: 0 [ms]
[OGL LOG][Proc: 0]Uy: update_local_matrix_data: 295.356 [ms]
[OGL LOG][Proc: 0]Uy: update_non_local_matrix_data: 0.849 [ms]
[OGL LOG][Proc: 0]Uy_matrix: call_update: 4.056 [ms]
[OGL LOG][Proc: 0]Uy_rhs: call_update: 14.702 [ms]
[OGL LOG][Preconditioner.H:121] Generate preconditioner BJ MaxBlockSize 1
[OGL LOG][Proc: 0]Uy: init_precond: 2.23 [ms]
[OGL LOG][StoppingCriterion.H:239] Creating stopping criterion with minIter 4 frequency 1
[OGL LOG][Proc: 0]Uy: generate_solver: 0.015 [ms]
[OGL LOG][Proc: 0]Uy: solve: 284.022 [ms]
[OGL LOG][Proc: 0]Uy: copy_x_back: 23.1 [ms]
[OGL LOG][lduLduBase.H:330] 
Statistics:
	Time per iteration: 94674 [mu s]
	Time per residual norm calculation: 179.000000 [mu s]
	Time per iteration and DOF: 3.752654 [ns]
	Retrieve results bandwidth 2.186000 [GByte/s]
[OGL LOG][Proc: 0]Uy: solve_multi_gpu: 330.942 [ms]
BJcudaGKOBiCGStab:  Solving for Uy, Initial residual = 0.03603862056101659, Final residual = 0.002206537092687802, No Iterations 3
[OGL LOG][Proc: 0]: global_index_init: 0.018 [ms]
[OGL LOG][Proc: 0]Uz_local_coeffs: call_update: 0 [ms]
[OGL LOG][Proc: 0]Uz_non_local_coeffs: call_update: 0 [ms]
[OGL LOG][Proc: 0]Uz: update_local_matrix_data: 294.535 [ms]
[OGL LOG][Proc: 0]Uz: update_non_local_matrix_data: 0.849 [ms]
[OGL LOG][Proc: 0]Uz_matrix: call_update: 4.245 [ms]
[OGL LOG][Proc: 0]Uz_rhs: call_update: 14.592 [ms]
[OGL LOG][Preconditioner.H:121] Generate preconditioner BJ MaxBlockSize 1
[OGL LOG][Proc: 0]Uz: init_precond: 2.083 [ms]
[OGL LOG][StoppingCriterion.H:239] Creating stopping criterion with minIter 4 frequency 1
[OGL LOG][Proc: 0]Uz: generate_solver: 0.014 [ms]
[OGL LOG][Proc: 0]Uz: solve: 281.9 [ms]
[OGL LOG][Proc: 0]Uz: copy_x_back: 29.737 [ms]
[OGL LOG][lduLduBase.H:330] 
Statistics:
	Time per iteration: 93966 [mu s]
	Time per residual norm calculation: 266.000000 [mu s]
	Time per iteration and DOF: 3.724591 [ns]
	Retrieve results bandwidth 1.698000 [GByte/s]
[OGL LOG][Proc: 0]Uz: solve_multi_gpu: 335.472 [ms]
BJcudaGKOBiCGStab:  Solving for Uz, Initial residual = 0.02988527487868861, Final residual = 0.002936826185367221, No Iterations 3
[OGL LOG][Proc: 0]: global_index_init: 0.017 [ms]
[OGL LOG][Proc: 0]p_local_coeffs: call_update: 0 [ms]
[OGL LOG][Proc: 0]p_non_local_coeffs: call_update: 0 [ms]
[OGL LOG][Proc: 0]p: update_local_matrix_data: 231.202 [ms]
[OGL LOG][Proc: 0]p: update_non_local_matrix_data: 0.909 [ms]
[OGL LOG][Proc: 0]p_matrix: call_update: 10.206 [ms]
[OGL LOG][Proc: 0]p_rhs: call_update: 14.789 [ms]
[OGL LOG][Preconditioner.H:346] Generate preconditioner Multigrid MaxLevels 9 MinCoarseRows 10 ZeroGuess 1 Cycle v
[OGL LOG][Proc: 0]p: init_precond: 1161.61 [ms]
[OGL LOG][StoppingCriterion.H:239] Creating stopping criterion with minIter 12 frequency 1
[OGL LOG][Proc: 0]p: generate_solver: 0.008999999999999999 [ms]
[OGL LOG][Proc: 0]p: solve: 1187.802 [ms]
[OGL LOG][Proc: 0]p: copy_x_back: 24.168 [ms]
[OGL LOG][lduLduBase.H:330] 
Statistics:
	Time per iteration: 19158 [mu s]
	Time per residual norm calculation: 173.000000 [mu s]
	Time per iteration and DOF: 0.759378 [ns]
	Retrieve results bandwidth 2.089000 [GByte/s]
[OGL LOG][Proc: 0]p: solve_multi_gpu: 2427.021 [ms]
MultigridcudaGKOCG:  Solving for p, Initial residual = 0.2796726122985604, Final residual = 0.002609352378904349, No Iterations 62
time step continuity errors : sum local = 0.00775709448399221, global = 5.513536018972445e-05, cumulative = -0.001463842713769222
[OGL LOG][Proc: 0]: global_index_init: 0.018 [ms]
[OGL LOG][Proc: 0]nuTilda_local_coeffs: call_update: 0 [ms]
[OGL LOG][Proc: 0]nuTilda_non_local_coeffs: call_update: 0 [ms]
[OGL LOG][Proc: 0]nuTilda: update_local_matrix_data: 300.413 [ms]
[OGL LOG][Proc: 0]nuTilda: update_non_local_matrix_data: 0.882 [ms]
[OGL LOG][Proc: 0]nuTilda_matrix: call_update: 3.105 [ms]
[OGL LOG][Proc: 0]nuTilda_rhs: call_update: 24.625 [ms]
[OGL LOG][Preconditioner.H:121] Generate preconditioner BJ MaxBlockSize 1
[OGL LOG][Proc: 0]nuTilda: init_precond: 1.924 [ms]
[OGL LOG][StoppingCriterion.H:239] Creating stopping criterion with minIter 3 frequency 1
[OGL LOG][Proc: 0]nuTilda: generate_solver: 0.018 [ms]
[OGL LOG][Proc: 0]nuTilda: solve: 292.624 [ms]
[OGL LOG][Proc: 0]nuTilda: copy_x_back: 23.833 [ms]
[OGL LOG][lduLduBase.H:330] 
Statistics:
	Time per iteration: 97541 [mu s]
	Time per residual norm calculation: 266.000000 [mu s]
	Time per iteration and DOF: 3.866295 [ns]
	Retrieve results bandwidth 2.119000 [GByte/s]
[OGL LOG][Proc: 0]nuTilda: solve_multi_gpu: 349.585 [ms]
BJcudaGKOBiCGStab:  Solving for nuTilda, Initial residual = 0.01752922880603067, Final residual = 0.0009533830884194385, No Iterations 3
ExecutionTime = 4186.55 s  ClockTime = 4196 s

End

Finalising parallel run
