/*---------------------------------------------------------------------------*\
| =========                 |                                                 |
| \\      /  F ield         | OpenFOAM: The Open Source CFD Toolbox           |
|  \\    /   O peration     | Version:  2306                                  |
|   \\  /    A nd           | Website:  www.openfoam.com                      |
|    \\/     M anipulation  |                                                 |
\*---------------------------------------------------------------------------*/
Build  : a6e826bd55-20230630 OPENFOAM=2306 version=v2306
Arch   : "LSB;label=32;scalar=64"
Exec   : icoFoam -parallel -case /home/greole/data/code/exasim_project/micro_benchmarks/LidDrivenCavity3D/workspace/0cabf6a4fd753c9dcddef83927ae81bc/case
Date   : Jul 11 2023
Time   : 14:34:37
Host   : nla-gpu2.ianm.kit.edu
PID    : 519154
I/O    : uncollated
Case   : /home/greole/data/code/exasim_project/micro_benchmarks/LidDrivenCavity3D/workspace/0cabf6a4fd753c9dcddef83927ae81bc/case
nProcs : 8
Hosts  :
(
    (nla-gpu2.ianm.kit.edu 8)
)
Pstream initialized with:
    floatTransfer      : false
    nProcsSimpleSum    : 0
    nonBlockingExchange: 0 (tuning: 0)
    exchange algorithm : -1
    commsType          : nonBlocking
    polling iterations : 0
trapFpe: Floating point exception trapping enabled (FOAM_SIGFPE).
fileModificationChecking : Monitoring run-time modified files using timeStampMaster (fileModificationSkew 5, maxFileModificationPolls 20)
allowSystemOperations : Allowing user-supplied system call operations

// * * * * * * * * * * * * * * * * * * * * * * * * * * * * * * * * * * * * * //
Create time

--> FOAM Warning : 
    From void* Foam::dlLibraryTable::openLibrary(const Foam::fileName&, bool)
    in file db/dynamicLibrary/dlLibraryTable/dlLibraryTable.C at line 188
    Could not load "libpetscFoam.so"
libpetscFoam.so: cannot open shared object file: No such file or directory
Create mesh for time = 0


PISO: Operating solver in PISO mode

Reading transportProperties

Reading field p

Reading field U

Reading/calculating face flux field phi


Starting time loop

Time = 0.00025

Courant Number mean: 8.24341e-18 max: 2.08167e-14
[INFO] MatrixAssemblyU: 108.175 [ms]
DILUPBiCGStab:  Solving for Ux, Initial residual = 1, Final residual = 0.00959752, No Iterations 5
DILUPBiCGStab:  Solving for Uy:  solution singularity
DILUPBiCGStab:  Solving for Uz:  solution singularity
[INFO] MomentumPredictor: 470.518 [ms]
[INFO] MatrixAssemblyPI: 105.394 [ms]
[INFO] AdjustPhi: 8.732 [ms]
[INFO] ConstrainPressure: 0.013 [ms]
[INFO] MatrixAssemblyPII: 29.454 [ms]
GAMG:  Solving for p, Initial residual = 1, Final residual = 8.82196e-05, No Iterations 29
[INFO] SolveP: 2863.62 [ms]
time step continuity errors : sum local = 6.77931e-09, global = -3.46544e-21, cumulative = -3.46544e-21
[INFO] ContinuityError: 15.251 [ms]
[INFO] CorrectBoundary: 0.758 [ms]
[INFO] PISOStep: 3060.78 [ms]
[INFO] MatrixAssemblyPI: 101.148 [ms]
[INFO] AdjustPhi: 6.509 [ms]
[INFO] ConstrainPressure: 0.004 [ms]
[INFO] MatrixAssemblyPII: 30.314 [ms]
GAMG:  Solving for p, Initial residual = 0.786542, Final residual = 7.52834e-05, No Iterations 24
[INFO] SolveP: 2209.43 [ms]
time step continuity errors : sum local = 7.23084e-09, global = -9.96307e-22, cumulative = -4.46175e-21
[INFO] ContinuityError: 14.79 [ms]
[INFO] CorrectBoundary: 0.707 [ms]
[INFO] PISOStep: 2399.4 [ms]
[INFO] TimeStep: 6054.41 [ms]
ExecutionTime = 6.8 s  ClockTime = 7 s

Time = 0.0005

Courant Number mean: 0.0159725 max: 0.41252
[INFO] MatrixAssemblyU: 79.929 [ms]
DILUPBiCGStab:  Solving for Ux, Initial residual = 0.129594, Final residual = 0.00510237, No Iterations 5
DILUPBiCGStab:  Solving for Uy, Initial residual = 0.426761, Final residual = 0.0132343, No Iterations 5
DILUPBiCGStab:  Solving for Uz, Initial residual = 0.991018, Final residual = 0.0348172, No Iterations 5
[INFO] MomentumPredictor: 874.898 [ms]
[INFO] MatrixAssemblyPI: 102.394 [ms]
[INFO] AdjustPhi: 7.661 [ms]
[INFO] ConstrainPressure: 0.004 [ms]
[INFO] MatrixAssemblyPII: 29.118 [ms]
GAMG:  Solving for p, Initial residual = 0.82414, Final residual = 8.44376e-05, No Iterations 30
[INFO] SolveP: 2739.15 [ms]
time step continuity errors : sum local = 1.23739e-08, global = -5.5447e-24, cumulative = -4.46729e-21
[INFO] ContinuityError: 14.132 [ms]
[INFO] CorrectBoundary: 0.431 [ms]
[INFO] PISOStep: 2930.3 [ms]
[INFO] MatrixAssemblyPI: 100.345 [ms]
[INFO] AdjustPhi: 6.323 [ms]
[INFO] ConstrainPressure: 0.003 [ms]
[INFO] MatrixAssemblyPII: 29.421 [ms]
GAMG:  Solving for p, Initial residual = 0.767416, Final residual = 9.84352e-05, No Iterations 30
[INFO] SolveP: 2743.83 [ms]
time step continuity errors : sum local = 1.47502e-08, global = -7.26497e-23, cumulative = -4.53994e-21
[INFO] ContinuityError: 15.498 [ms]
[INFO] CorrectBoundary: 0.686 [ms]
[INFO] PISOStep: 2931.39 [ms]
[INFO] TimeStep: 6829.89 [ms]
ExecutionTime = 13.6 s  ClockTime = 14 s

Time = 0.00075

Courant Number mean: 0.0243594 max: 0.471985
[INFO] MatrixAssemblyU: 79.277 [ms]
DILUPBiCGStab:  Solving for Ux, Initial residual = 0.054764, Final residual = 0.00175982, No Iterations 5
DILUPBiCGStab:  Solving for Uy, Initial residual = 0.182087, Final residual = 0.00707611, No Iterations 5
DILUPBiCGStab:  Solving for Uz, Initial residual = 0.824562, Final residual = 0.0304377, No Iterations 5
[INFO] MomentumPredictor: 869.695 [ms]
[INFO] MatrixAssemblyPI: 102.862 [ms]
[INFO] AdjustPhi: 6.549 [ms]
[INFO] ConstrainPressure: 0.004 [ms]
[INFO] MatrixAssemblyPII: 29.126 [ms]
GAMG:  Solving for p, Initial residual = 0.848938, Final residual = 5.83198e-05, No Iterations 20
[INFO] SolveP: 1842.67 [ms]
time step continuity errors : sum local = 7.87861e-09, global = -1.14744e-21, cumulative = -5.68738e-21
[INFO] ContinuityError: 15.774 [ms]
[INFO] CorrectBoundary: 0.67 [ms]
[INFO] PISOStep: 2032.92 [ms]
[INFO] MatrixAssemblyPI: 100.629 [ms]
[INFO] AdjustPhi: 6.941 [ms]
[INFO] ConstrainPressure: 0.003 [ms]
[INFO] MatrixAssemblyPII: 29.19 [ms]
GAMG:  Solving for p, Initial residual = 0.815722, Final residual = 6.95895e-05, No Iterations 22
[INFO] SolveP: 2017.63 [ms]
time step continuity errors : sum local = 9.14085e-09, global = -3.55403e-22, cumulative = -6.04279e-21
[INFO] ContinuityError: 14.158 [ms]
[INFO] CorrectBoundary: 0.406 [ms]
[INFO] PISOStep: 2203.83 [ms]
[INFO] TimeStep: 5199.45 [ms]
ExecutionTime = 18.77 s  ClockTime = 19 s

Time = 0.001

Courant Number mean: 0.0292349 max: 0.467843
[INFO] MatrixAssemblyU: 79.604 [ms]
DILUPBiCGStab:  Solving for Ux, Initial residual = 0.0346495, Final residual = 0.00116376, No Iterations 5
DILUPBiCGStab:  Solving for Uy, Initial residual = 0.129029, Final residual = 0.00438891, No Iterations 5
DILUPBiCGStab:  Solving for Uz, Initial residual = 0.646032, Final residual = 0.0202724, No Iterations 5
[INFO] MomentumPredictor: 867.014 [ms]
[INFO] MatrixAssemblyPI: 102.155 [ms]
[INFO] AdjustPhi: 6.127 [ms]
[INFO] ConstrainPressure: 0.004 [ms]
[INFO] MatrixAssemblyPII: 29.225 [ms]
GAMG:  Solving for p, Initial residual = 0.769607, Final residual = 9.29897e-05, No Iterations 34
[INFO] SolveP: 3102.51 [ms]
time step continuity errors : sum local = 1.13257e-08, global = 9.96546e-22, cumulative = -5.04624e-21
[INFO] ContinuityError: 15.192 [ms]
[INFO] CorrectBoundary: 0.677 [ms]
[INFO] PISOStep: 3292.1 [ms]
[INFO] MatrixAssemblyPI: 100.422 [ms]
[INFO] AdjustPhi: 7.115 [ms]
[INFO] ConstrainPressure: 0.005 [ms]
[INFO] MatrixAssemblyPII: 29.283 [ms]
GAMG:  Solving for p, Initial residual = 0.706896, Final residual = 9.50762e-05, No Iterations 31
[INFO] SolveP: 2830.34 [ms]
time step continuity errors : sum local = 1.1802e-08, global = -1.11019e-21, cumulative = -6.15643e-21
[INFO] ContinuityError: 14.63 [ms]
[INFO] CorrectBoundary: 0.533 [ms]
[INFO] PISOStep: 3017.7 [ms]
[INFO] TimeStep: 7270.67 [ms]
ExecutionTime = 26.01 s  ClockTime = 26 s

Time = 0.00125

Courant Number mean: 0.0333815 max: 0.472908
[INFO] MatrixAssemblyU: 79.063 [ms]
DILUPBiCGStab:  Solving for Ux, Initial residual = 0.0271033, Final residual = 0.000842674, No Iterations 5
DILUPBiCGStab:  Solving for Uy, Initial residual = 0.0811605, Final residual = 0.00325744, No Iterations 5
DILUPBiCGStab:  Solving for Uz, Initial residual = 0.547557, Final residual = 0.0220404, No Iterations 5
[INFO] MomentumPredictor: 870.784 [ms]
[INFO] MatrixAssemblyPI: 102.216 [ms]
[INFO] AdjustPhi: 6.964 [ms]
[INFO] ConstrainPressure: 0.004 [ms]
[INFO] MatrixAssemblyPII: 29.351 [ms]
GAMG:  Solving for p, Initial residual = 0.775115, Final residual = 9.69833e-05, No Iterations 19
[INFO] SolveP: 1746.07 [ms]
time step continuity errors : sum local = 9.80208e-09, global = 2.66262e-22, cumulative = -5.89017e-21
[INFO] ContinuityError: 14.67 [ms]
[INFO] CorrectBoundary: 0.399 [ms]
[INFO] PISOStep: 1935.9 [ms]
[INFO] MatrixAssemblyPI: 100.119 [ms]
[INFO] AdjustPhi: 7.437 [ms]
[INFO] ConstrainPressure: 0.004 [ms]
[INFO] MatrixAssemblyPII: 29.509 [ms]
GAMG:  Solving for p, Initial residual = 0.724077, Final residual = 9.0099e-05, No Iterations 20
[INFO] SolveP: 1836.64 [ms]
time step continuity errors : sum local = 8.95637e-09, global = -1.55219e-21, cumulative = -7.44236e-21
[INFO] ContinuityError: 14.107 [ms]
[INFO] CorrectBoundary: 0.454 [ms]
[INFO] PISOStep: 2024.54 [ms]
[INFO] TimeStep: 4924.19 [ms]
ExecutionTime = 30.92 s  ClockTime = 31 s

Time = 0.0015

Courant Number mean: 0.0366874 max: 0.475621
[INFO] MatrixAssemblyU: 78.334 [ms]
DILUPBiCGStab:  Solving for Ux, Initial residual = 0.0203825, Final residual = 0.000603398, No Iterations 5
DILUPBiCGStab:  Solving for Uy, Initial residual = 0.0656938, Final residual = 0.0022429, No Iterations 5
DILUPBiCGStab:  Solving for Uz, Initial residual = 0.422498, Final residual = 0.0163857, No Iterations 5
[INFO] MomentumPredictor: 867.03 [ms]
[INFO] MatrixAssemblyPI: 101.132 [ms]
[INFO] AdjustPhi: 6.469 [ms]
[INFO] ConstrainPressure: 0.004 [ms]
[INFO] MatrixAssemblyPII: 29.343 [ms]
GAMG:  Solving for p, Initial residual = 0.681947, Final residual = 9.84929e-05, No Iterations 51
[INFO] SolveP: 4625.26 [ms]
time step continuity errors : sum local = 9.16717e-09, global = -1.14543e-21, cumulative = -8.58779e-21
[INFO] ContinuityError: 14.686 [ms]
[INFO] CorrectBoundary: 0.594 [ms]
[INFO] PISOStep: 4813.48 [ms]
[INFO] MatrixAssemblyPI: 101.406 [ms]
[INFO] AdjustPhi: 5.573 [ms]
[INFO] ConstrainPressure: 0.004 [ms]
[INFO] MatrixAssemblyPII: 29.504 [ms]
GAMG:  Solving for p, Initial residual = 0.621269, Final residual = 9.89152e-05, No Iterations 47
[INFO] SolveP: 4266.5 [ms]
time step continuity errors : sum local = 9.26559e-09, global = 1.00659e-21, cumulative = -7.5812e-21
[INFO] ContinuityError: 15.385 [ms]
[INFO] CorrectBoundary: 1.074 [ms]
[INFO] PISOStep: 4454.53 [ms]
[INFO] TimeStep: 10226.6 [ms]
ExecutionTime = 41.1 s  ClockTime = 41 s

Time = 0.00175

Courant Number mean: 0.0396051 max: 0.477566
[INFO] MatrixAssemblyU: 78.248 [ms]
DILUPBiCGStab:  Solving for Ux, Initial residual = 0.0174078, Final residual = 0.000479034, No Iterations 5
DILUPBiCGStab:  Solving for Uy, Initial residual = 0.0487787, Final residual = 0.0016318, No Iterations 5
DILUPBiCGStab:  Solving for Uz, Initial residual = 0.350183, Final residual = 0.0159974, No Iterations 5
[INFO] MomentumPredictor: 868.549 [ms]
[INFO] MatrixAssemblyPI: 100.984 [ms]
[INFO] AdjustPhi: 6.639 [ms]
[INFO] ConstrainPressure: 0.004 [ms]
[INFO] MatrixAssemblyPII: 29.033 [ms]
GAMG:  Solving for p, Initial residual = 0.677682, Final residual = 9.47666e-05, No Iterations 53
[INFO] SolveP: 4798.07 [ms]
time step continuity errors : sum local = 7.37136e-09, global = -2.06095e-21, cumulative = -9.64215e-21
[INFO] ContinuityError: 14.46 [ms]
[INFO] CorrectBoundary: 0.505 [ms]
[INFO] PISOStep: 4985.53 [ms]
[INFO] MatrixAssemblyPI: 99.934 [ms]
[INFO] AdjustPhi: 6.672 [ms]
[INFO] ConstrainPressure: 0.004 [ms]
[INFO] MatrixAssemblyPII: 29.349 [ms]
GAMG:  Solving for p, Initial residual = 0.618104, Final residual = 9.86e-05, No Iterations 26
[INFO] SolveP: 2372.92 [ms]
time step continuity errors : sum local = 7.61066e-09, global = -2.26974e-21, cumulative = -1.19119e-20
[INFO] ContinuityError: 14.999 [ms]
[INFO] CorrectBoundary: 0.388 [ms]
[INFO] PISOStep: 2560.04 [ms]
[INFO] TimeStep: 8505.74 [ms]
ExecutionTime = 49.56 s  ClockTime = 50 s

Time = 0.002

Courant Number mean: 0.0421317 max: 0.479264
[INFO] MatrixAssemblyU: 79 [ms]
DILUPBiCGStab:  Solving for Ux, Initial residual = 0.0142484, Final residual = 0.000366228, No Iterations 5
DILUPBiCGStab:  Solving for Uy, Initial residual = 0.0416012, Final residual = 0.00126903, No Iterations 5
DILUPBiCGStab:  Solving for Uz, Initial residual = 0.276435, Final residual = 0.0117481, No Iterations 5
[INFO] MomentumPredictor: 867.593 [ms]
[INFO] MatrixAssemblyPI: 100.914 [ms]
[INFO] AdjustPhi: 7.137 [ms]
[INFO] ConstrainPressure: 0.004 [ms]
[INFO] MatrixAssemblyPII: 29.44 [ms]
GAMG:  Solving for p, Initial residual = 0.586708, Final residual = 9.78849e-05, No Iterations 29
[INFO] SolveP: 2643.49 [ms]
time step continuity errors : sum local = 7.24059e-09, global = -1.61361e-21, cumulative = -1.35255e-20
[INFO] ContinuityError: 14.638 [ms]
[INFO] CorrectBoundary: 0.53 [ms]
[INFO] PISOStep: 2830.51 [ms]
[INFO] MatrixAssemblyPI: 99.236 [ms]
[INFO] AdjustPhi: 8.339 [ms]
[INFO] ConstrainPressure: 0.004 [ms]
[INFO] MatrixAssemblyPII: 29.474 [ms]
GAMG:  Solving for p, Initial residual = 0.528997, Final residual = 9.77249e-05, No Iterations 50
[INFO] SolveP: 4522.69 [ms]
time step continuity errors : sum local = 7.21117e-09, global = -1.67512e-21, cumulative = -1.52006e-20
[INFO] ContinuityError: 14.184 [ms]
[INFO] CorrectBoundary: 0.494 [ms]
[INFO] PISOStep: 4709.28 [ms]
[INFO] TimeStep: 8499.87 [ms]
ExecutionTime = 58.03 s  ClockTime = 58 s

Time = 0.00225

Courant Number mean: 0.0444178 max: 0.48041
[INFO] MatrixAssemblyU: 77.94 [ms]
DILUPBiCGStab:  Solving for Ux, Initial residual = 0.0125372, Final residual = 0.000301392, No Iterations 5
DILUPBiCGStab:  Solving for Uy, Initial residual = 0.0334746, Final residual = 0.000894204, No Iterations 5
DILUPBiCGStab:  Solving for Uz, Initial residual = 0.234441, Final residual = 0.0114865, No Iterations 5
[INFO] MomentumPredictor: 867.309 [ms]
[INFO] MatrixAssemblyPI: 101.628 [ms]
[INFO] AdjustPhi: 7.075 [ms]
[INFO] ConstrainPressure: 0.004 [ms]
[INFO] MatrixAssemblyPII: 29.339 [ms]
GAMG:  Solving for p, Initial residual = 0.573722, Final residual = 8.73224e-05, No Iterations 26
[INFO] SolveP: 2372.13 [ms]
time step continuity errors : sum local = 5.61737e-09, global = -2.57661e-21, cumulative = -1.77772e-20
[INFO] ContinuityError: 15.214 [ms]
[INFO] CorrectBoundary: 0.367 [ms]
[INFO] PISOStep: 2561.27 [ms]
[INFO] MatrixAssemblyPI: 99.569 [ms]
[INFO] AdjustPhi: 6.954 [ms]
[INFO] ConstrainPressure: 0.004 [ms]
[INFO] MatrixAssemblyPII: 29.298 [ms]
GAMG:  Solving for p, Initial residual = 0.512837, Final residual = 9.55125e-05, No Iterations 44
[INFO] SolveP: 3992.01 [ms]
time step continuity errors : sum local = 6.11727e-09, global = -2.07622e-22, cumulative = -1.79849e-20
[INFO] ContinuityError: 15.029 [ms]
[INFO] CorrectBoundary: 0.406 [ms]
[INFO] PISOStep: 4178.56 [ms]
[INFO] TimeStep: 7698.37 [ms]
ExecutionTime = 65.7 s  ClockTime = 66 s

Time = 0.0025

Courant Number mean: 0.0464723 max: 0.481511
[INFO] MatrixAssemblyU: 78.688 [ms]
DILUPBiCGStab:  Solving for Ux, Initial residual = 0.010786, Final residual = 0.000242383, No Iterations 5
DILUPBiCGStab:  Solving for Uy, Initial residual = 0.0293505, Final residual = 0.000733869, No Iterations 5
DILUPBiCGStab:  Solving for Uz, Initial residual = 0.181877, Final residual = 0.00795396, No Iterations 5
[INFO] MomentumPredictor: 864.757 [ms]
[INFO] MatrixAssemblyPI: 101.06 [ms]
[INFO] AdjustPhi: 6.758 [ms]
[INFO] ConstrainPressure: 0.004 [ms]
[INFO] MatrixAssemblyPII: 29.26 [ms]
GAMG:  Solving for p, Initial residual = 0.49683, Final residual = 9.4629e-05, No Iterations 49
[INFO] SolveP: 4434.2 [ms]
time step continuity errors : sum local = 5.88595e-09, global = -3.08947e-21, cumulative = -2.10743e-20
[INFO] ContinuityError: 14.371 [ms]
[INFO] CorrectBoundary: 0.428 [ms]
[INFO] PISOStep: 4620.85 [ms]
[INFO] MatrixAssemblyPI: 99.127 [ms]
[INFO] AdjustPhi: 7.631 [ms]
[INFO] ConstrainPressure: 0.004 [ms]
[INFO] MatrixAssemblyPII: 29.448 [ms]
GAMG:  Solving for p, Initial residual = 0.444007, Final residual = 9.73855e-05, No Iterations 49
[INFO] SolveP: 4444.59 [ms]
time step continuity errors : sum local = 6.03651e-09, global = -7.48411e-22, cumulative = -2.18227e-20
[INFO] ContinuityError: 14.558 [ms]
[INFO] CorrectBoundary: 0.887 [ms]
[INFO] PISOStep: 4630.84 [ms]
[INFO] TimeStep: 10208.8 [ms]
ExecutionTime = 75.86 s  ClockTime = 76 s

Time = 0.00275

Courant Number mean: 0.0483599 max: 0.482276
[INFO] MatrixAssemblyU: 78.242 [ms]
DILUPBiCGStab:  Solving for Ux, Initial residual = 0.00966401, Final residual = 0.000204482, No Iterations 5
DILUPBiCGStab:  Solving for Uy, Initial residual = 0.0248291, Final residual = 0.000529228, No Iterations 5
DILUPBiCGStab:  Solving for Uz, Initial residual = 0.159899, Final residual = 0.00810717, No Iterations 5
[INFO] MomentumPredictor: 866.572 [ms]
[INFO] MatrixAssemblyPI: 100.992 [ms]
[INFO] AdjustPhi: 6.405 [ms]
[INFO] ConstrainPressure: 0.004 [ms]
[INFO] MatrixAssemblyPII: 29.392 [ms]
GAMG:  Solving for p, Initial residual = 0.472766, Final residual = 9.77261e-05, No Iterations 35
[INFO] SolveP: 3177.97 [ms]
time step continuity errors : sum local = 5.50504e-09, global = -1.92245e-21, cumulative = -2.37452e-20
[INFO] ContinuityError: 15.46 [ms]
[INFO] CorrectBoundary: 0.772 [ms]
[INFO] PISOStep: 3365.47 [ms]
[INFO] MatrixAssemblyPI: 99.48 [ms]
[INFO] AdjustPhi: 7.074 [ms]
[INFO] ConstrainPressure: 0.004 [ms]
[INFO] MatrixAssemblyPII: 29.06 [ms]
GAMG:  Solving for p, Initial residual = 0.418195, Final residual = 9.08461e-05, No Iterations 36
[INFO] SolveP: 3271.01 [ms]
time step continuity errors : sum local = 5.13104e-09, global = -5.90157e-21, cumulative = -2.96467e-20
[INFO] ContinuityError: 13.983 [ms]
[INFO] CorrectBoundary: 0.396 [ms]
[INFO] PISOStep: 3456.38 [ms]
[INFO] TimeStep: 7780.01 [ms]
ExecutionTime = 83.61 s  ClockTime = 84 s

Time = 0.003

Courant Number mean: 0.0500924 max: 0.483067
[INFO] MatrixAssemblyU: 79.077 [ms]
DILUPBiCGStab:  Solving for Ux, Initial residual = 0.00857539, Final residual = 0.000170901, No Iterations 5
DILUPBiCGStab:  Solving for Uy, Initial residual = 0.0221946, Final residual = 0.000439137, No Iterations 5
DILUPBiCGStab:  Solving for Uz, Initial residual = 0.129786, Final residual = 0.005969, No Iterations 5
[INFO] MomentumPredictor: 870.226 [ms]
[INFO] MatrixAssemblyPI: 101.472 [ms]
[INFO] AdjustPhi: 6.853 [ms]
[INFO] ConstrainPressure: 0.004 [ms]
[INFO] MatrixAssemblyPII: 29.528 [ms]
GAMG:  Solving for p, Initial residual = 0.415377, Final residual = 9.18594e-05, No Iterations 34
[INFO] SolveP: 3088.16 [ms]
time step continuity errors : sum local = 5.02367e-09, global = 7.42718e-23, cumulative = -2.95725e-20
[INFO] ContinuityError: 14.244 [ms]
[INFO] CorrectBoundary: 0.447 [ms]
[INFO] PISOStep: 3275.3 [ms]
[INFO] MatrixAssemblyPI: 100.719 [ms]
[INFO] AdjustPhi: 5.627 [ms]
[INFO] ConstrainPressure: 0.005 [ms]
[INFO] MatrixAssemblyPII: 29.358 [ms]
GAMG:  Solving for p, Initial residual = 0.368639, Final residual = 9.27114e-05, No Iterations 40
[INFO] SolveP: 3635.09 [ms]
time step continuity errors : sum local = 5.04229e-09, global = -2.60948e-21, cumulative = -3.2182e-20
[INFO] ContinuityError: 15.202 [ms]
[INFO] CorrectBoundary: 0.38 [ms]
[INFO] PISOStep: 3821.34 [ms]
[INFO] TimeStep: 8059.64 [ms]
ExecutionTime = 91.63 s  ClockTime = 92 s

Time = 0.00325

Courant Number mean: 0.0517014 max: 0.483627
[INFO] MatrixAssemblyU: 78.487 [ms]
DILUPBiCGStab:  Solving for Ux, Initial residual = 0.00778555, Final residual = 0.000146917, No Iterations 5
DILUPBiCGStab:  Solving for Uy, Initial residual = 0.0194238, Final residual = 0.00033936, No Iterations 5
DILUPBiCGStab:  Solving for Uz, Initial residual = 0.115853, Final residual = 0.00586272, No Iterations 5
[INFO] MomentumPredictor: 867.032 [ms]
[INFO] MatrixAssemblyPI: 102.235 [ms]
[INFO] AdjustPhi: 5.615 [ms]
[INFO] ConstrainPressure: 0.005 [ms]
[INFO] MatrixAssemblyPII: 29.161 [ms]
GAMG:  Solving for p, Initial residual = 0.38512, Final residual = 9.61477e-05, No Iterations 45
[INFO] SolveP: 4081.3 [ms]
time step continuity errors : sum local = 4.91459e-09, global = -3.66059e-21, cumulative = -3.58425e-20
[INFO] ContinuityError: 14.374 [ms]
[INFO] CorrectBoundary: 0.636 [ms]
[INFO] PISOStep: 4268.25 [ms]
[INFO] MatrixAssemblyPI: 99.632 [ms]
[INFO] AdjustPhi: 6.738 [ms]
[INFO] ConstrainPressure: 0.005 [ms]
[INFO] MatrixAssemblyPII: 29.154 [ms]
GAMG:  Solving for p, Initial residual = 0.33886, Final residual = 7.22611e-05, No Iterations 20
[INFO] SolveP: 1836.95 [ms]
time step continuity errors : sum local = 3.71172e-09, global = -4.02828e-21, cumulative = -3.98708e-20
[INFO] ContinuityError: 14.914 [ms]
[INFO] CorrectBoundary: 0.463 [ms]
[INFO] PISOStep: 2023.98 [ms]
[INFO] TimeStep: 7251.08 [ms]
ExecutionTime = 98.86 s  ClockTime = 99 s

Time = 0.0035

Courant Number mean: 0.0531957 max: 0.484223
[INFO] MatrixAssemblyU: 78.39 [ms]
DILUPBiCGStab:  Solving for Ux, Initial residual = 0.00705344, Final residual = 0.000126318, No Iterations 5
DILUPBiCGStab:  Solving for Uy, Initial residual = 0.0176229, Final residual = 0.000281376, No Iterations 5
DILUPBiCGStab:  Solving for Uz, Initial residual = 0.0975899, Final residual = 0.00457414, No Iterations 5
[INFO] MomentumPredictor: 866.355 [ms]
[INFO] MatrixAssemblyPI: 101.017 [ms]
[INFO] AdjustPhi: 7.093 [ms]
[INFO] ConstrainPressure: 0.004 [ms]
[INFO] MatrixAssemblyPII: 29.309 [ms]
GAMG:  Solving for p, Initial residual = 0.343141, Final residual = 7.3785e-05, No Iterations 19
[INFO] SolveP: 1743.34 [ms]
time step continuity errors : sum local = 3.63847e-09, global = -3.03473e-21, cumulative = -4.29056e-20
[INFO] ContinuityError: 13.916 [ms]
[INFO] CorrectBoundary: 0.438 [ms]
[INFO] PISOStep: 1929.73 [ms]
[INFO] MatrixAssemblyPI: 98.992 [ms]
[INFO] AdjustPhi: 6.625 [ms]
[INFO] ConstrainPressure: 0.004 [ms]
[INFO] MatrixAssemblyPII: 29.008 [ms]
GAMG:  Solving for p, Initial residual = 0.303475, Final residual = 9.38864e-05, No Iterations 32
[INFO] SolveP: 2909.37 [ms]
time step continuity errors : sum local = 4.62328e-09, global = -4.35054e-21, cumulative = -4.72561e-20
[INFO] ContinuityError: 14.059 [ms]
[INFO] CorrectBoundary: 0.401 [ms]
[INFO] PISOStep: 3092.96 [ms]
[INFO] TimeStep: 5980.8 [ms]
ExecutionTime = 104.81 s  ClockTime = 105 s

Time = 0.00375

Courant Number mean: 0.054596 max: 0.484659
[INFO] MatrixAssemblyU: 78.611 [ms]
DILUPBiCGStab:  Solving for Ux, Initial residual = 0.00647142, Final residual = 0.000110137, No Iterations 5
DILUPBiCGStab:  Solving for Uy, Initial residual = 0.0157907, Final residual = 0.00023478, No Iterations 5
DILUPBiCGStab:  Solving for Uz, Initial residual = 0.0865272, Final residual = 0.00422044, No Iterations 5
[INFO] MomentumPredictor: 867.243 [ms]
[INFO] MatrixAssemblyPI: 101.085 [ms]
[INFO] AdjustPhi: 6.91 [ms]
[INFO] ConstrainPressure: 0.004 [ms]
[INFO] MatrixAssemblyPII: 29.186 [ms]
GAMG:  Solving for p, Initial residual = 0.311151, Final residual = 9.52741e-05, No Iterations 35
[INFO] SolveP: 3177.39 [ms]
time step continuity errors : sum local = 4.53832e-09, global = -3.33264e-21, cumulative = -5.05887e-20
[INFO] ContinuityError: 14.008 [ms]
[INFO] CorrectBoundary: 0.415 [ms]
[INFO] PISOStep: 3363.79 [ms]
[INFO] MatrixAssemblyPI: 99.425 [ms]
[INFO] AdjustPhi: 6.874 [ms]
[INFO] ConstrainPressure: 0.004 [ms]
[INFO] MatrixAssemblyPII: 29.417 [ms]
GAMG:  Solving for p, Initial residual = 0.273075, Final residual = 6.43402e-05, No Iterations 28
[INFO] SolveP: 2555.59 [ms]
time step continuity errors : sum local = 3.05492e-09, global = -3.0354e-21, cumulative = -5.36241e-20
[INFO] ContinuityError: 14.831 [ms]
[INFO] CorrectBoundary: 0.407 [ms]
[INFO] PISOStep: 2741.64 [ms]
[INFO] TimeStep: 7064.57 [ms]
ExecutionTime = 111.84 s  ClockTime = 112 s

Time = 0.004

Courant Number mean: 0.0559081 max: 0.485123
[INFO] MatrixAssemblyU: 78.85 [ms]
DILUPBiCGStab:  Solving for Ux, Initial residual = 0.00594808, Final residual = 9.67001e-05, No Iterations 5
DILUPBiCGStab:  Solving for Uy, Initial residual = 0.0144998, Final residual = 0.000196762, No Iterations 5
DILUPBiCGStab:  Solving for Uz, Initial residual = 0.0749763, Final residual = 0.00343723, No Iterations 5
[INFO] MomentumPredictor: 864.075 [ms]
[INFO] MatrixAssemblyPI: 101.084 [ms]
[INFO] AdjustPhi: 7.36 [ms]
[INFO] ConstrainPressure: 0.004 [ms]
[INFO] MatrixAssemblyPII: 29.784 [ms]
GAMG:  Solving for p, Initial residual = 0.280633, Final residual = 9.18963e-05, No Iterations 30
[INFO] SolveP: 2727.17 [ms]
time step continuity errors : sum local = 4.21015e-09, global = -3.22133e-21, cumulative = -5.68455e-20
[INFO] ContinuityError: 13.881 [ms]
[INFO] CorrectBoundary: 0.513 [ms]
[INFO] PISOStep: 2914.31 [ms]
[INFO] MatrixAssemblyPI: 99.277 [ms]
[INFO] AdjustPhi: 6.557 [ms]
[INFO] ConstrainPressure: 0.004 [ms]
[INFO] MatrixAssemblyPII: 29.151 [ms]
GAMG:  Solving for p, Initial residual = 0.247415, Final residual = 9.14939e-05, No Iterations 29
[INFO] SolveP: 2645.08 [ms]
time step continuity errors : sum local = 4.17295e-09, global = -5.92978e-21, cumulative = -6.27753e-20
[INFO] ContinuityError: 15.934 [ms]
[INFO] CorrectBoundary: 0.54 [ms]
[INFO] PISOStep: 2830.86 [ms]
[INFO] TimeStep: 6701.36 [ms]
ExecutionTime = 118.52 s  ClockTime = 119 s

Time = 0.00425

Courant Number mean: 0.0571448 max: 0.485477
[INFO] MatrixAssemblyU: 78.095 [ms]
DILUPBiCGStab:  Solving for Ux, Initial residual = 0.00550286, Final residual = 8.51322e-05, No Iterations 5
DILUPBiCGStab:  Solving for Uy, Initial residual = 0.0132079, Final residual = 0.000174719, No Iterations 5
DILUPBiCGStab:  Solving for Uz, Initial residual = 0.0700459, Final residual = 0.00320531, No Iterations 5
[INFO] MomentumPredictor: 866.679 [ms]
[INFO] MatrixAssemblyPI: 101.452 [ms]
[INFO] AdjustPhi: 6.854 [ms]
[INFO] ConstrainPressure: 0.004 [ms]
[INFO] MatrixAssemblyPII: 29.115 [ms]
GAMG:  Solving for p, Initial residual = 0.251457, Final residual = 6.13473e-05, No Iterations 24
[INFO] SolveP: 2188.76 [ms]
time step continuity errors : sum local = 2.75723e-09, global = -3.89892e-21, cumulative = -6.66742e-20
[INFO] ContinuityError: 14.238 [ms]
[INFO] CorrectBoundary: 0.42 [ms]
[INFO] PISOStep: 2375.67 [ms]
[INFO] MatrixAssemblyPI: 98.745 [ms]
[INFO] AdjustPhi: 6.996 [ms]
[INFO] ConstrainPressure: 0.004 [ms]
[INFO] MatrixAssemblyPII: 29.084 [ms]
GAMG:  Solving for p, Initial residual = 0.220246, Final residual = 9.47566e-05, No Iterations 43
[INFO] SolveP: 3903.49 [ms]
time step continuity errors : sum local = 4.24895e-09, global = -3.62739e-21, cumulative = -7.03016e-20
[INFO] ContinuityError: 14.221 [ms]
[INFO] CorrectBoundary: 1.645 [ms]
[INFO] PISOStep: 4088.97 [ms]
[INFO] TimeStep: 7422.6 [ms]
ExecutionTime = 125.9 s  ClockTime = 127 s

Time = 0.0045

Courant Number mean: 0.0583122 max: 0.485852
[INFO] MatrixAssemblyU: 78.504 [ms]
DILUPBiCGStab:  Solving for Ux, Initial residual = 0.00511299, Final residual = 7.59088e-05, No Iterations 5
DILUPBiCGStab:  Solving for Uy, Initial residual = 0.0122503, Final residual = 0.000149822, No Iterations 5
DILUPBiCGStab:  Solving for Uz, Initial residual = 0.059907, Final residual = 0.00253648, No Iterations 5
[INFO] MomentumPredictor: 865.775 [ms]
[INFO] MatrixAssemblyPI: 100.841 [ms]
[INFO] AdjustPhi: 6.647 [ms]
[INFO] ConstrainPressure: 0.004 [ms]
[INFO] MatrixAssemblyPII: 29.178 [ms]
GAMG:  Solving for p, Initial residual = 0.227847, Final residual = 9.8337e-05, No Iterations 40
[INFO] SolveP: 3626.73 [ms]
time step continuity errors : sum local = 4.24165e-09, global = -3.52075e-21, cumulative = -7.38223e-20
[INFO] ContinuityError: 14.057 [ms]
[INFO] CorrectBoundary: 0.475 [ms]
[INFO] PISOStep: 3812.39 [ms]
[INFO] MatrixAssemblyPI: 98.655 [ms]
[INFO] AdjustPhi: 6.984 [ms]
[INFO] ConstrainPressure: 0.004 [ms]
[INFO] MatrixAssemblyPII: 29.112 [ms]
GAMG:  Solving for p, Initial residual = 0.200265, Final residual = 9.97743e-05, No Iterations 37
[INFO] SolveP: 3361.05 [ms]
time step continuity errors : sum local = 4.28451e-09, global = -2.81433e-21, cumulative = -7.66366e-20
[INFO] ContinuityError: 14.025 [ms]
[INFO] CorrectBoundary: 0.421 [ms]
[INFO] PISOStep: 3545.21 [ms]
[INFO] TimeStep: 8315.33 [ms]
ExecutionTime = 134.19 s  ClockTime = 135 s

Time = 0.00475

Courant Number mean: 0.0594177 max: 0.486145
[INFO] MatrixAssemblyU: 78.152 [ms]
DILUPBiCGStab:  Solving for Ux, Initial residual = 0.00476406, Final residual = 6.73285e-05, No Iterations 5
DILUPBiCGStab:  Solving for Uy, Initial residual = 0.011294, Final residual = 0.000137745, No Iterations 5
DILUPBiCGStab:  Solving for Uz, Initial residual = 0.0536591, Final residual = 0.00221856, No Iterations 5
[INFO] MomentumPredictor: 865.011 [ms]
[INFO] MatrixAssemblyPI: 101.059 [ms]
[INFO] AdjustPhi: 6.373 [ms]
[INFO] ConstrainPressure: 0.004 [ms]
[INFO] MatrixAssemblyPII: 29.086 [ms]
GAMG:  Solving for p, Initial residual = 0.202404, Final residual = 5.48906e-05, No Iterations 28
[INFO] SolveP: 2550.42 [ms]
time step continuity errors : sum local = 2.34211e-09, global = -3.87389e-22, cumulative = -7.7024e-20
[INFO] ContinuityError: 14.294 [ms]
[INFO] CorrectBoundary: 0.722 [ms]
[INFO] PISOStep: 2737.27 [ms]
[INFO] MatrixAssemblyPI: 99.05 [ms]
[INFO] AdjustPhi: 6.53 [ms]
[INFO] ConstrainPressure: 0.004 [ms]
[INFO] MatrixAssemblyPII: 29.063 [ms]
GAMG:  Solving for p, Initial residual = 0.176896, Final residual = 7.62688e-05, No Iterations 22
[INFO] SolveP: 2011.93 [ms]
time step continuity errors : sum local = 3.25287e-09, global = -2.22314e-21, cumulative = -7.92472e-20
[INFO] ContinuityError: 14.404 [ms]
[INFO] CorrectBoundary: 0.39 [ms]
[INFO] PISOStep: 2196.79 [ms]
[INFO] TimeStep: 5890.61 [ms]
ExecutionTime = 140.05 s  ClockTime = 141 s

Time = 0.005

Courant Number mean: 0.0604665 max: 0.486449
[INFO] MatrixAssemblyU: 79.1 [ms]
DILUPBiCGStab:  Solving for Ux, Initial residual = 0.00446149, Final residual = 6.06673e-05, No Iterations 5
DILUPBiCGStab:  Solving for Uy, Initial residual = 0.0105605, Final residual = 0.000120948, No Iterations 5
DILUPBiCGStab:  Solving for Uz, Initial residual = 0.0474036, Final residual = 0.0018227, No Iterations 5
[INFO] MomentumPredictor: 863.591 [ms]
[INFO] MatrixAssemblyPI: 101.287 [ms]
[INFO] AdjustPhi: 5.902 [ms]
[INFO] ConstrainPressure: 0.004 [ms]
[INFO] MatrixAssemblyPII: 29.238 [ms]
GAMG:  Solving for p, Initial residual = 0.183855, Final residual = 9.05156e-05, No Iterations 38
[INFO] SolveP: 3446.31 [ms]
time step continuity errors : sum local = 3.73055e-09, global = -4.50322e-21, cumulative = -8.37504e-20
[INFO] ContinuityError: 14.504 [ms]
[INFO] CorrectBoundary: 0.561 [ms]
[INFO] PISOStep: 3632.3 [ms]
[INFO] MatrixAssemblyPI: 99.157 [ms]
[INFO] AdjustPhi: 6.978 [ms]
[INFO] ConstrainPressure: 0.004 [ms]
[INFO] MatrixAssemblyPII: 29.015 [ms]
GAMG:  Solving for p, Initial residual = 0.161281, Final residual = 9.54137e-05, No Iterations 38
[INFO] SolveP: 3451.98 [ms]
time step continuity errors : sum local = 3.93747e-09, global = -6.14215e-21, cumulative = -8.98925e-20
[INFO] ContinuityError: 14.774 [ms]
[INFO] CorrectBoundary: 0.399 [ms]
[INFO] PISOStep: 3637.76 [ms]
[INFO] TimeStep: 8226.14 [ms]
ExecutionTime = 148.24 s  ClockTime = 149 s

End

Finalising parallel run
