/*---------------------------------------------------------------------------*\
| =========                 |                                                 |
| \\      /  F ield         | OpenFOAM: The Open Source CFD Toolbox           |
|  \\    /   O peration     | Version:  2306                                  |
|   \\  /    A nd           | Website:  www.openfoam.com                      |
|    \\/     M anipulation  |                                                 |
\*---------------------------------------------------------------------------*/
Build  : c423ebec-20231012 OPENFOAM=2306 version=v2306
Arch   : "LSB;label=32;scalar=64"
Exec   : simpleFoam -parallel -case /hkfs/work/workspace/scratch/eq4036-windsorbody_setup/workspace/c4f9a9f61be6a5220493cf60827ad70e/case
Date   : Feb 16 2024
Time   : 14:52:52
Host   : hkn0813.localdomain
PID    : 2226246
I/O    : uncollated
Case   : /hkfs/work/workspace/scratch/eq4036-windsorbody_setup/workspace/c4f9a9f61be6a5220493cf60827ad70e/case
nProcs : 8
Hosts  :
(
    (hkn0813.localdomain 8)
)
Pstream initialized with:
    floatTransfer      : false
    nProcsSimpleSum    : 0
    nonBlockingExchange: 0 (tuning: 0)
    exchange algorithm : -1
    commsType          : nonBlocking
    polling iterations : 0
trapFpe: Floating point exception trapping enabled (FOAM_SIGFPE).
fileModificationChecking : Monitoring run-time modified files using timeStampMaster (fileModificationSkew 5, maxFileModificationPolls 20)
allowSystemOperations : Allowing user-supplied system call operations

// * * * * * * * * * * * * * * * * * * * * * * * * * * * * * * * * * * * * * //
Create time

--> FOAM Warning : 
    From void* Foam::dlLibraryTable::openLibrary(const Foam::fileName&, bool)
    in file db/dynamicLibrary/dlLibraryTable/dlLibraryTable.C at line 188
    Could not load "libpetscFoam.so"
libpetscFoam.so: cannot open shared object file: No such file or directory
Create mesh for time = 0


SIMPLE: convergence criteria
    field p	 tolerance 1e-08
    field U	 tolerance 1e-08
    field k	 tolerance 1e-08
    field omega	 tolerance 1e-08
    field nuTilda	 tolerance 1e-08

Reading field p

Reading field U

Reading/calculating face flux field phi

Selecting incompressible transport model Newtonian
Selecting turbulence model type RAS
Selecting RAS turbulence model SpalartAllmaras
Selecting patchDistMethod meshWave
ft2 term: inactive
RAS
{
    RASModel        SpalartAllmaras;
    turbulence      on;
    printCoeffs     on;
    sigmaNut        0.66666;
    kappa           0.41;
    Cb1             0.1355;
    Cb2             0.622;
    Cw2             0.3;
    Cw3             2;
    Cv1             7.1;
    Cs              0.3;
    ck              0.07000000000000001;
    ft2             false;
    Ct3             1.2;
    Ct4             0.5;
}

No MRF models present

Creating finite volume options from "system/fvOptions"

Selecting finite volume options type velocityDampingConstraint
    Source: velocityDamping
    - selecting all cells
    - selected 6307136 cell(s) with volume 27.82583051606852

Starting time loop

--> FOAM Warning : 
    From bool Foam::functionObjectList::read()
    in file db/functionObjects/functionObjectList/functionObjectList.C at line 1035
    Reading "system/controlDict" at line 2 to 41
    Entry 'lref' is not a dictionary
--> FOAM Warning : 
    From bool Foam::functionObjectList::read()
    in file db/functionObjects/functionObjectList/functionObjectList.C at line 1035
    Reading "system/controlDict" at line 2 to 41
    Entry 'Aref' is not a dictionary
--> FOAM Warning : 
    From bool Foam::functionObjectList::read()
    in file db/functionObjects/functionObjectList/functionObjectList.C at line 1035
    Reading "system/controlDict" at line 2 to 41
    Entry 'yawAngle' is not a dictionary
--> FOAM Warning : 
    From bool Foam::functionObjectList::read()
    in file db/functionObjects/functionObjectList/functionObjectList.C at line 1035
    Reading "system/controlDict" at line 2 to 41
    Entry 'lDomain' is not a dictionary
--> FOAM Warning : 
    From bool Foam::functionObjectList::read()
    in file db/functionObjects/functionObjectList/functionObjectList.C at line 1035
    Reading "system/controlDict" at line 2 to 41
    Entry 'bDomain' is not a dictionary
--> FOAM Warning : 
    From bool Foam::functionObjectList::read()
    in file db/functionObjects/functionObjectList/functionObjectList.C at line 1035
    Reading "system/controlDict" at line 2 to 41
    Entry 'hDomain' is not a dictionary
--> FOAM Warning : 
    From bool Foam::functionObjectList::read()
    in file db/functionObjects/functionObjectList/functionObjectList.C at line 1035
    Reading "system/controlDict" at line 2 to 41
    Entry 'xCenter' is not a dictionary
--> FOAM Warning : 
    From bool Foam::functionObjectList::read()
    in file db/functionObjects/functionObjectList/functionObjectList.C at line 1035
    Reading "system/controlDict" at line 2 to 41
    Entry 'yCenter' is not a dictionary
--> FOAM Warning : 
    From bool Foam::functionObjectList::read()
    in file db/functionObjects/functionObjectList/functionObjectList.C at line 1035
    Reading "system/controlDict" at line 2 to 41
    Entry 'zCenter' is not a dictionary
--> FOAM Warning : 
    From bool Foam::functionObjectList::read()
    in file db/functionObjects/functionObjectList/functionObjectList.C at line 1035
    Reading "system/controlDict" at line 2 to 41
    Entry 'inletPatch' is not a dictionary
--> FOAM Warning : 
    From bool Foam::functionObjectList::read()
    in file db/functionObjects/functionObjectList/functionObjectList.C at line 1035
    Reading "system/controlDict" at line 2 to 41
    Entry 'outletPatch' is not a dictionary
--> FOAM Warning : 
    From bool Foam::functionObjectList::read()
    in file db/functionObjects/functionObjectList/functionObjectList.C at line 1035
    Reading "system/controlDict" at line 2 to 41
    Entry 'wallPatches' is not a dictionary
--> FOAM Warning : 
    From bool Foam::functionObjectList::read()
    in file db/functionObjects/functionObjectList/functionObjectList.C at line 1035
    Reading "system/controlDict" at line 2 to 41
    Entry 'forcesWallPatches' is not a dictionary
--> FOAM Warning : 
    From bool Foam::functionObjectList::read()
    in file db/functionObjects/functionObjectList/functionObjectList.C at line 1035
    Reading "system/controlDict" at line 2 to 41
    Entry 'symmPatches' is not a dictionary
--> FOAM Warning : 
    From bool Foam::functionObjectList::read()
    in file db/functionObjects/functionObjectList/functionObjectList.C at line 1035
    Reading "system/controlDict" at line 2 to 41
    Entry 'Uinf' is not a dictionary
--> FOAM Warning : 
    From bool Foam::functionObjectList::read()
    in file db/functionObjects/functionObjectList/functionObjectList.C at line 1035
    Reading "system/controlDict" at line 2 to 41
    Entry 'UinfMag' is not a dictionary
--> FOAM Warning : 
    From bool Foam::functionObjectList::read()
    in file db/functionObjects/functionObjectList/functionObjectList.C at line 1035
    Reading "system/controlDict" at line 2 to 41
    Entry 'nu' is not a dictionary
--> FOAM Warning : 
    From bool Foam::functionObjectList::read()
    in file db/functionObjects/functionObjectList/functionObjectList.C at line 1035
    Reading "system/controlDict" at line 2 to 41
    Entry 'pref' is not a dictionary
--> FOAM Warning : 
    From bool Foam::functionObjectList::read()
    in file db/functionObjects/functionObjectList/functionObjectList.C at line 1035
    Reading "system/controlDict" at line 2 to 41
    Entry 'viscRatio' is not a dictionary
--> FOAM Warning : 
    From bool Foam::functionObjectList::read()
    in file db/functionObjects/functionObjectList/functionObjectList.C at line 1035
    Reading "system/controlDict" at line 2 to 41
    Entry 'Tu' is not a dictionary
--> FOAM Warning : 
    From bool Foam::functionObjectList::read()
    in file db/functionObjects/functionObjectList/functionObjectList.C at line 1035
    Reading "system/controlDict" at line 2 to 41
    Entry 'LESturbModel' is not a dictionary
--> FOAM Warning : 
    From bool Foam::functionObjectList::read()
    in file db/functionObjects/functionObjectList/functionObjectList.C at line 1035
    Reading "system/controlDict" at line 2 to 41
    Entry 'RASturbModel' is not a dictionary
--> FOAM Warning : 
    From bool Foam::functionObjectList::read()
    in file db/functionObjects/functionObjectList/functionObjectList.C at line 1035
    Reading "system/controlDict" at line 2 to 41
    Entry 'deltaTurb' is not a dictionary
--> FOAM Warning : 
    From bool Foam::functionObjectList::read()
    in file db/functionObjects/functionObjectList/functionObjectList.C at line 1035
    Reading "system/controlDict" at line 2 to 41
    Entry 'dt' is not a dictionary
--> FOAM Warning : 
    From bool Foam::functionObjectList::read()
    in file db/functionObjects/functionObjectList/functionObjectList.C at line 1035
    Reading "system/controlDict" at line 2 to 41
    Entry 'tAvg' is not a dictionary
--> FOAM Warning : 
    From bool Foam::functionObjectList::read()
    in file db/functionObjects/functionObjectList/functionObjectList.C at line 1035
    Reading "system/controlDict" at line 2 to 41
    Entry 'tEnd' is not a dictionary
--> FOAM Warning : 
    From bool Foam::functionObjectList::read()
    in file db/functionObjects/functionObjectList/functionObjectList.C at line 1035
    Reading "system/controlDict" at line 2 to 41
    Entry 'writeInterval_' is not a dictionary
--> FOAM Warning : 
    From bool Foam::functionObjectList::read()
    in file db/functionObjects/functionObjectList/functionObjectList.C at line 1035
    Reading "system/controlDict" at line 2 to 41
    Entry 'nCores' is not a dictionary
--> FOAM Warning : 
    From bool Foam::functionObjectList::read()
    in file db/functionObjects/functionObjectList/functionObjectList.C at line 1035
    Reading "system/controlDict" at line 2 to 41
    Entry 'interpScheme' is not a dictionary
--> FOAM Warning : 
    From bool Foam::functionObjectList::read()
    in file db/functionObjects/functionObjectList/functionObjectList.C at line 1035
    Reading "system/controlDict" at line 2 to 41
    Entry 'probeField' is not a dictionary
wallShearStress wallShearStress:
    processing wall patches: 
        Windsor_Body
        CFDWT_Floor
        Windsor_Pins
        Windsor_Base

pressure calc_cp:
    Operating mode: staticCoeff
    Not including hydrostatic effects

forceCoeffs forceCoeffsAll:
    rho: rhoInf
    Freestream density (rhoInf) set to 1
    Not including porosity effects
    magUInf: 40
    lRef   : 0.6375
    Aref   : 0.1124
    rhoInf : 1
    Selecting all coefficients
    - Drag force: Cd
    - Drag force front: Cd(f)
    - Drag force rear: Cd(r)
    - Lift force: Cl
    - Lift force front: Cl(f)
    - Lift force rear: Cl(r)
    - Pitch moment: CmPitch
    - Roll moment: CmRoll
    - Yaw moment: CmYaw
    - Side force: Cs
    - Side force front: Cs(f)
    - Side force rear: Cs(r)


forceCoeffs dragCoeffBase:
    rho: rhoInf
    Freestream density (rhoInf) set to 1
    Not including porosity effects
    magUInf: 40
    lRef   : 0.6375
    Aref   : 0.1124
    rhoInf : 1
    Selecting coefficients:
    - Drag force: Cd


--> FOAM Warning : 
    From virtual void Foam::probes::findElements(const Foam::fvMesh&)
    in file probes/probes.C at line 249
    Location (-2 0 1.3) seems to be on multiple domains: cell 382251 on my domain 0 and cell 560069 on some other domain.
This might happen if the probe location is on a processor patch. Change the location slightly to prevent this.
--> FOAM Warning : 
    From virtual void Foam::probes::findElements(const Foam::fvMesh&)
    in file probes/probes.C at line 263
    Location (-2 0 1.3) seems to be on multiple domains: cell 1138605 on my domain 0 and face 2399942 on some other domain.
This might happen if the probe location is on a processor patch. Change the location slightly to prevent this.
Time = 1

velocityDampingConstraint velocityDamping damped 0 (0%) of cells, with max limit 300
smoothSolver:  Solving for Ux, Initial residual = 0.9999999999991636, Final residual = 0.08527777798209522, No Iterations 3
smoothSolver:  Solving for Uy, Initial residual = 1, Final residual = 0.06548336654478541, No Iterations 6
smoothSolver:  Solving for Uz, Initial residual = 1, Final residual = 0.01751088895689031, No Iterations 2
[OGL LOG][lduLduBase.H:119] Initialising OGL
	OGL commit:  e75313f+
	Branch: dev 
	Build type: Debug
	Ginkgo version: 1.8.0 ( develop)
	Ginkgo commit: sparse-communicator
	MPI is GPU aware: 1
	Forces host buffer based communication: 0
	CPU ranks per GPU: 1
	Matrix format: Coo
	End OGL_INFO
[OGL LOG][Proc: 0]: global_index_init: 19.023 [ms]
[OGL LOG][Proc: 0]p_local_cols: call_init: 1.314 [ms]
[OGL LOG][Proc: 0]p_local_rows: call_init: 0.386 [ms]
[OGL LOG][Proc: 0]p_local_ldu_map: call_init: 0.438 [ms]
[OGL LOG][Proc: 0]p_local_coeffs: call_init: 3.852 [ms]
[OGL LOG][Proc: 0]p_non_local_cols: call_init: 0.433 [ms]
[OGL LOG][Proc: 0]p_non_local_rows: call_init: 0.248 [ms]
[OGL LOG][Proc: 0]p_non_local_ldu_map: call_init: 0.16 [ms]
[OGL LOG][Proc: 0]p_non_local_coeffs: call_init: 0.212 [ms]
[OGL LOG][Proc: 0]p: init_local_sparsity_pattern: 23805.489 [ms]
[OGL LOG][Proc: 0]p: init_non_local_sparsity_pattern: 3811.203 [ms]
[OGL LOG][Proc: 0]p: update_local_matrix_data: 59.259 [ms]
[OGL LOG][Proc: 0]p: update_non_local_matrix_data: 0.5600000000000001 [ms]
[OGL LOG][Proc: 0]device_partition: call_init: 0.203 [ms]
[OGL LOG][Proc: 0]p_matrix: call_init: 73.068 [ms]
[OGL LOG][Proc: 0]p_rhs: call_init: 1.638 [ms]
[OGL LOG][Proc: 0]p_solution: call_init: 2.247 [ms]
[OGL LOG][Preconditioner.H:346] Generate preconditioner Multigrid MaxLevels 9 MinCoarseRows 10 ZeroGuess 1 Cycle v
[OGL LOG][Proc: 0]p: init_precond: 386.786 [ms]
[OGL LOG][StoppingCriterion.H:239] Creating stopping criterion with minIter 0 frequency 1
[OGL LOG][Proc: 0]p: generate_solver: 0.031 [ms]
[OGL LOG][Proc: 0]p: solve: 1113.276 [ms]
[OGL LOG][Proc: 0]p: copy_x_back: 2.337 [ms]
[OGL LOG][lduLduBase.H:330] 
Statistics:
	Time per iteration: 10213 [mu s]
	Time per residual norm calculation: 1271.000000 [mu s]
	Time per iteration and DOF: 1.619277 [ns]
	Retrieve results bandwidth 2.692000 [GByte/s]
[OGL LOG][Proc: 0]p: solve_multi_gpu: 1637.015 [ms]
MultigridcudaGKOCG:  Solving for p, Initial residual = 1.000000000000319, Final residual = 0.009287966988192816, No Iterations 109
time step continuity errors : sum local = 0.00337545714167588, global = 2.571790101262807e-05, cumulative = 2.571790101262807e-05
smoothSolver:  Solving for nuTilda, Initial residual = 0.9999999949473926, Final residual = 0.05253544365443723, No Iterations 3
ExecutionTime = 40.59 s  ClockTime = 41 s

--> FOAM Warning : 
    From virtual bool Foam::functionObjects::fieldSelection::checkSelection()
    in file functionObjects/fieldSelections/fieldSelection/fieldSelection.C at line 166
    Field k not found
--> FOAM Warning : 
    From virtual bool Foam::functionObjects::fieldSelection::checkSelection()
    in file functionObjects/fieldSelections/fieldSelection/fieldSelection.C at line 166
    Field gammaInt not found
--> FOAM Warning : 
    From virtual bool Foam::functionObjects::fieldSelection::checkSelection()
    in file functionObjects/fieldSelections/fieldSelection/fieldSelection.C at line 166
    Field omega not found
--> FOAM Warning : 
    From virtual bool Foam::functionObjects::fieldSelection::checkSelection()
    in file functionObjects/fieldSelections/fieldSelection/fieldSelection.C at line 166
    Field ReThetat not found
--> FOAM Warning : 
    From virtual bool Foam::functionObjects::fieldSelection::checkSelection()
    in file functionObjects/fieldSelections/fieldSelection/fieldSelection.C at line 166
    Field epsilon not found
--> FOAM Warning : 
    From virtual bool Foam::functionObjects::solverFieldSelection::updateSelection()
    in file functionObjects/fieldSelections/solverFieldSelection/solverFieldSelection.C at line 85
    Valid solver fields are: 3(U nuTilda p)Time = 2

velocityDampingConstraint velocityDamping damped 0 (0%) of cells, with max limit 300
smoothSolver:  Solving for Ux, Initial residual = 0.4347641342606492, Final residual = 0.02789084002341397, No Iterations 5
smoothSolver:  Solving for Uy, Initial residual = 0.5811374855800953, Final residual = 0.03770987117183097, No Iterations 5
smoothSolver:  Solving for Uz, Initial residual = 0.5438261189448568, Final residual = 0.05431542413519139, No Iterations 4
[OGL LOG][Proc: 0]: global_index_init: 0.021 [ms]
[OGL LOG][Proc: 0]p_local_coeffs: call_update: 0.001 [ms]
[OGL LOG][Proc: 0]p_non_local_coeffs: call_update: 0 [ms]
[OGL LOG][Proc: 0]p: update_local_matrix_data: 29.866 [ms]
[OGL LOG][Proc: 0]p: update_non_local_matrix_data: 0.473 [ms]
[OGL LOG][Proc: 0]p_matrix: call_update: 2.505 [ms]
[OGL LOG][Proc: 0]p_rhs: call_update: 0.915 [ms]
[OGL LOG][Preconditioner.H:346] Generate preconditioner Multigrid MaxLevels 9 MinCoarseRows 10 ZeroGuess 1 Cycle v
[OGL LOG][Proc: 0]p: init_precond: 316.098 [ms]
[OGL LOG][StoppingCriterion.H:239] Creating stopping criterion with minIter 65 frequency 2
[OGL LOG][Proc: 0]p: generate_solver: 0.008999999999999999 [ms]
[OGL LOG][Proc: 0]p: solve: 578.619 [ms]
[OGL LOG][Proc: 0]p: copy_x_back: 2.17 [ms]
[OGL LOG][lduLduBase.H:330] 
Statistics:
	Time per iteration: 8636 [mu s]
	Time per residual norm calculation: 1270.000000 [mu s]
	Time per iteration and DOF: 1.369243 [ns]
	Retrieve results bandwidth 2.899000 [GByte/s]
[OGL LOG][Proc: 0]p: solve_multi_gpu: 922.3630000000001 [ms]
MultigridcudaGKOCG:  Solving for p, Initial residual = 0.4317702244382198, Final residual = 0.002336710747914315, No Iterations 67
time step continuity errors : sum local = 0.05094532350484959, global = 0.009394146230840601, cumulative = 0.00941986413185323
smoothSolver:  Solving for nuTilda, Initial residual = 0.2988410378441237, Final residual = 0.01990787747586965, No Iterations 2
ExecutionTime = 44.83 s  ClockTime = 46 s

Time = 3

velocityDampingConstraint velocityDamping damped 4600 (0.07000000000000001%) of cells, with max limit 300
smoothSolver:  Solving for Ux, Initial residual = 0.2907345912894592, Final residual = 0.01820577150932418, No Iterations 2
smoothSolver:  Solving for Uy, Initial residual = 0.2825228559469966, Final residual = 0.02607039488345925, No Iterations 4
smoothSolver:  Solving for Uz, Initial residual = 0.257936682114096, Final residual = 0.02248983099165685, No Iterations 4
[OGL LOG][Proc: 0]: global_index_init: 0.017 [ms]
[OGL LOG][Proc: 0]p_local_coeffs: call_update: 0 [ms]
[OGL LOG][Proc: 0]p_non_local_coeffs: call_update: 0 [ms]
[OGL LOG][Proc: 0]p: update_local_matrix_data: 26.476 [ms]
[OGL LOG][Proc: 0]p: update_non_local_matrix_data: 0.466 [ms]
[OGL LOG][Proc: 0]p_matrix: call_update: 2.38 [ms]
[OGL LOG][Proc: 0]p_rhs: call_update: 0.926 [ms]
[OGL LOG][Preconditioner.H:346] Generate preconditioner Multigrid MaxLevels 9 MinCoarseRows 10 ZeroGuess 1 Cycle v
[OGL LOG][Proc: 0]p: init_precond: 279.143 [ms]
[OGL LOG][StoppingCriterion.H:239] Creating stopping criterion with minIter 40 frequency 2
[OGL LOG][Proc: 0]p: generate_solver: 0.008999999999999999 [ms]
[OGL LOG][Proc: 0]p: solve: 834.516 [ms]
[OGL LOG][Proc: 0]p: copy_x_back: 2.327 [ms]
[OGL LOG][lduLduBase.H:330] 
Statistics:
	Time per iteration: 8973 [mu s]
	Time per residual norm calculation: 1403.000000 [mu s]
	Time per iteration and DOF: 1.422674 [ns]
	Retrieve results bandwidth 2.704000 [GByte/s]
[OGL LOG][Proc: 0]p: solve_multi_gpu: 1145.188 [ms]
MultigridcudaGKOCG:  Solving for p, Initial residual = 0.3653194569190417, Final residual = 0.003313280357384781, No Iterations 93
time step continuity errors : sum local = 0.01935179944168878, global = -9.055688842493043e-05, cumulative = 0.009329307243428299
smoothSolver:  Solving for nuTilda, Initial residual = 0.3317847205117819, Final residual = 0.02753420293804861, No Iterations 1
ExecutionTime = 49.15 s  ClockTime = 50 s

Time = 4

velocityDampingConstraint velocityDamping damped 44 (0%) of cells, with max limit 300
smoothSolver:  Solving for Ux, Initial residual = 0.03644847575370915, Final residual = 0.002925222197907209, No Iterations 4
smoothSolver:  Solving for Uy, Initial residual = 0.05348807019290222, Final residual = 0.004689074610379597, No Iterations 4
smoothSolver:  Solving for Uz, Initial residual = 0.05003250694378465, Final residual = 0.004451469106871631, No Iterations 4
[OGL LOG][Proc: 0]: global_index_init: 0.017 [ms]
[OGL LOG][Proc: 0]p_local_coeffs: call_update: 0 [ms]
[OGL LOG][Proc: 0]p_non_local_coeffs: call_update: 0 [ms]
[OGL LOG][Proc: 0]p: update_local_matrix_data: 26.377 [ms]
[OGL LOG][Proc: 0]p: update_non_local_matrix_data: 0.486 [ms]
[OGL LOG][Proc: 0]p_matrix: call_update: 2.624 [ms]
[OGL LOG][Proc: 0]p_rhs: call_update: 0.857 [ms]
[OGL LOG][Preconditioner.H:346] Generate preconditioner Multigrid MaxLevels 9 MinCoarseRows 10 ZeroGuess 1 Cycle v
[OGL LOG][Proc: 0]p: init_precond: 295.596 [ms]
[OGL LOG][StoppingCriterion.H:239] Creating stopping criterion with minIter 55 frequency 2
[OGL LOG][Proc: 0]p: generate_solver: 0.008999999999999999 [ms]
[OGL LOG][Proc: 0]p: solve: 499.703 [ms]
[OGL LOG][Proc: 0]p: copy_x_back: 1.992 [ms]
[OGL LOG][lduLduBase.H:330] 
Statistics:
	Time per iteration: 8766 [mu s]
	Time per residual norm calculation: 1268.000000 [mu s]
	Time per iteration and DOF: 1.389854 [ns]
	Retrieve results bandwidth 3.159000 [GByte/s]
[OGL LOG][Proc: 0]p: solve_multi_gpu: 824.741 [ms]
MultigridcudaGKOCG:  Solving for p, Initial residual = 0.4624849432859466, Final residual = 0.001645696526972316, No Iterations 57
time step continuity errors : sum local = 0.01613045754575619, global = -0.002949788848980365, cumulative = 0.006379518394447933
smoothSolver:  Solving for nuTilda, Initial residual = 0.1526349399337648, Final residual = 0.006649403980607071, No Iterations 3
ExecutionTime = 53.27 s  ClockTime = 54 s

Time = 5

velocityDampingConstraint velocityDamping damped 1375 (0.02%) of cells, with max limit 300
smoothSolver:  Solving for Ux, Initial residual = 0.1803443871069704, Final residual = 0.01553819198771262, No Iterations 3
smoothSolver:  Solving for Uy, Initial residual = 0.2598629724628406, Final residual = 0.02116340933632238, No Iterations 4
smoothSolver:  Solving for Uz, Initial residual = 0.2186108935556432, Final residual = 0.01680282679792207, No Iterations 4
[OGL LOG][Proc: 0]: global_index_init: 0.017 [ms]
[OGL LOG][Proc: 0]p_local_coeffs: call_update: 0 [ms]
[OGL LOG][Proc: 0]p_non_local_coeffs: call_update: 0 [ms]
[OGL LOG][Proc: 0]p: update_local_matrix_data: 26.606 [ms]
[OGL LOG][Proc: 0]p: update_non_local_matrix_data: 0.452 [ms]
[OGL LOG][Proc: 0]p_matrix: call_update: 2.58 [ms]
[OGL LOG][Proc: 0]p_rhs: call_update: 0.88 [ms]
[OGL LOG][Preconditioner.H:346] Generate preconditioner Multigrid MaxLevels 9 MinCoarseRows 10 ZeroGuess 1 Cycle v
[OGL LOG][Proc: 0]p: init_precond: 290.072 [ms]
[OGL LOG][StoppingCriterion.H:239] Creating stopping criterion with minIter 34 frequency 1
[OGL LOG][Proc: 0]p: generate_solver: 0.008999999999999999 [ms]
[OGL LOG][Proc: 0]p: solve: 807.5700000000001 [ms]
[OGL LOG][Proc: 0]p: copy_x_back: 2.284 [ms]
[OGL LOG][lduLduBase.H:330] 
Statistics:
	Time per iteration: 9176 [mu s]
	Time per residual norm calculation: 1262.000000 [mu s]
	Time per iteration and DOF: 1.454860 [ns]
	Retrieve results bandwidth 2.755000 [GByte/s]
[OGL LOG][Proc: 0]p: solve_multi_gpu: 1126.986 [ms]
MultigridcudaGKOCG:  Solving for p, Initial residual = 0.3276949744119516, Final residual = 0.003207099643826343, No Iterations 88
time step continuity errors : sum local = 0.02892711346060347, global = -8.899625922703799e-08, cumulative = 0.006379429398188707
smoothSolver:  Solving for nuTilda, Initial residual = 0.1178343696462719, Final residual = 0.01040041430965953, No Iterations 2
ExecutionTime = 57.65 s  ClockTime = 58 s

Time = 6

velocityDampingConstraint velocityDamping damped 114 (0%) of cells, with max limit 300
smoothSolver:  Solving for Ux, Initial residual = 0.1344052823670033, Final residual = 0.01264263136469866, No Iterations 4
smoothSolver:  Solving for Uy, Initial residual = 0.2509187351717728, Final residual = 0.01528486477774098, No Iterations 5
smoothSolver:  Solving for Uz, Initial residual = 0.2035147655205335, Final residual = 0.01950585232607278, No Iterations 4
[OGL LOG][Proc: 0]: global_index_init: 0.017 [ms]
[OGL LOG][Proc: 0]p_local_coeffs: call_update: 0 [ms]
[OGL LOG][Proc: 0]p_non_local_coeffs: call_update: 0 [ms]
[OGL LOG][Proc: 0]p: update_local_matrix_data: 26.757 [ms]
[OGL LOG][Proc: 0]p: update_non_local_matrix_data: 0.471 [ms]
[OGL LOG][Proc: 0]p_matrix: call_update: 2.552 [ms]
[OGL LOG][Proc: 0]p_rhs: call_update: 0.889 [ms]
[OGL LOG][Preconditioner.H:346] Generate preconditioner Multigrid MaxLevels 9 MinCoarseRows 10 ZeroGuess 1 Cycle v
[OGL LOG][Proc: 0]p: init_precond: 281.962 [ms]
[OGL LOG][StoppingCriterion.H:239] Creating stopping criterion with minIter 52 frequency 2
[OGL LOG][Proc: 0]p: generate_solver: 0.01 [ms]
[OGL LOG][Proc: 0]p: solve: 525.716 [ms]
[OGL LOG][Proc: 0]p: copy_x_back: 2.201 [ms]
[OGL LOG][lduLduBase.H:330] 
Statistics:
	Time per iteration: 8910 [mu s]
	Time per residual norm calculation: 1269.000000 [mu s]
	Time per iteration and DOF: 1.412686 [ns]
	Retrieve results bandwidth 2.859000 [GByte/s]
[OGL LOG][Proc: 0]p: solve_multi_gpu: 837.059 [ms]
MultigridcudaGKOCG:  Solving for p, Initial residual = 0.3782077802926669, Final residual = 0.003757792930110597, No Iterations 59
time step continuity errors : sum local = 0.02854459878242186, global = -0.006533864792866884, cumulative = -0.0001544353946781769
smoothSolver:  Solving for nuTilda, Initial residual = 0.07911461769505836, Final residual = 0.00494032857286025, No Iterations 3
ExecutionTime = 61.82 s  ClockTime = 63 s

Time = 7

velocityDampingConstraint velocityDamping damped 410 (0.01%) of cells, with max limit 300
smoothSolver:  Solving for Ux, Initial residual = 0.09357822501916814, Final residual = 0.006189487753802019, No Iterations 4
smoothSolver:  Solving for Uy, Initial residual = 0.1094068858670659, Final residual = 0.008442064291988087, No Iterations 4
smoothSolver:  Solving for Uz, Initial residual = 0.1030781728456234, Final residual = 0.007841183759642285, No Iterations 4
[OGL LOG][Proc: 0]: global_index_init: 0.024 [ms]
[OGL LOG][Proc: 0]p_local_coeffs: call_update: 0 [ms]
[OGL LOG][Proc: 0]p_non_local_coeffs: call_update: 0 [ms]
[OGL LOG][Proc: 0]p: update_local_matrix_data: 25.74 [ms]
[OGL LOG][Proc: 0]p: update_non_local_matrix_data: 0.467 [ms]
[OGL LOG][Proc: 0]p_matrix: call_update: 2.451 [ms]
[OGL LOG][Proc: 0]p_rhs: call_update: 1.156 [ms]
[OGL LOG][Preconditioner.H:346] Generate preconditioner Multigrid MaxLevels 9 MinCoarseRows 10 ZeroGuess 1 Cycle v
[OGL LOG][Proc: 0]p: init_precond: 298.153 [ms]
[OGL LOG][StoppingCriterion.H:239] Creating stopping criterion with minIter 35 frequency 1
[OGL LOG][Proc: 0]p: generate_solver: 0.008999999999999999 [ms]
[OGL LOG][Proc: 0]p: solve: 349.884 [ms]
[OGL LOG][Proc: 0]p: copy_x_back: 2.113 [ms]
[OGL LOG][lduLduBase.H:330] 
Statistics:
	Time per iteration: 9207 [mu s]
	Time per residual norm calculation: 1116.000000 [mu s]
	Time per iteration and DOF: 1.459775 [ns]
	Retrieve results bandwidth 2.978000 [GByte/s]
[OGL LOG][Proc: 0]p: solve_multi_gpu: 677.016 [ms]
MultigridcudaGKOCG:  Solving for p, Initial residual = 0.2591942652159794, Final residual = 0.002560454712265721, No Iterations 38
time step continuity errors : sum local = 0.02013323492247992, global = -0.004112318662635779, cumulative = -0.004266754057313956
smoothSolver:  Solving for nuTilda, Initial residual = 0.06381343586179701, Final residual = 0.003959607491677853, No Iterations 3
ExecutionTime = 65.81 s  ClockTime = 67 s

Time = 8

velocityDampingConstraint velocityDamping damped 523 (0.01%) of cells, with max limit 300
smoothSolver:  Solving for Ux, Initial residual = 0.1219744212385181, Final residual = 0.009711650131628728, No Iterations 4
smoothSolver:  Solving for Uy, Initial residual = 0.1761397789153601, Final residual = 0.01588670432920005, No Iterations 4
smoothSolver:  Solving for Uz, Initial residual = 0.1694894612804773, Final residual = 0.01493104105046118, No Iterations 4
[OGL LOG][Proc: 0]: global_index_init: 0.017 [ms]
[OGL LOG][Proc: 0]p_local_coeffs: call_update: 0 [ms]
[OGL LOG][Proc: 0]p_non_local_coeffs: call_update: 0 [ms]
[OGL LOG][Proc: 0]p: update_local_matrix_data: 26.841 [ms]
[OGL LOG][Proc: 0]p: update_non_local_matrix_data: 0.45 [ms]
[OGL LOG][Proc: 0]p_matrix: call_update: 2.592 [ms]
[OGL LOG][Proc: 0]p_rhs: call_update: 0.862 [ms]
[OGL LOG][Preconditioner.H:346] Generate preconditioner Multigrid MaxLevels 9 MinCoarseRows 10 ZeroGuess 1 Cycle v
[OGL LOG][Proc: 0]p: init_precond: 307.352 [ms]
[OGL LOG][StoppingCriterion.H:239] Creating stopping criterion with minIter 22 frequency 1
[OGL LOG][Proc: 0]p: generate_solver: 0.008999999999999999 [ms]
[OGL LOG][Proc: 0]p: solve: 813.091 [ms]
[OGL LOG][Proc: 0]p: copy_x_back: 2.237 [ms]
[OGL LOG][lduLduBase.H:330] 
Statistics:
	Time per iteration: 9239 [mu s]
	Time per residual norm calculation: 1265.000000 [mu s]
	Time per iteration and DOF: 1.464849 [ns]
	Retrieve results bandwidth 2.813000 [GByte/s]
[OGL LOG][Proc: 0]p: solve_multi_gpu: 1149.286 [ms]
MultigridcudaGKOCG:  Solving for p, Initial residual = 0.2794979503056163, Final residual = 0.002667223436247677, No Iterations 88
time step continuity errors : sum local = 0.0185382867369997, global = 0.0002574853354208101, cumulative = -0.004009268721893146
smoothSolver:  Solving for nuTilda, Initial residual = 0.04897236530890346, Final residual = 0.003791091737666687, No Iterations 3
ExecutionTime = 70.25 s  ClockTime = 71 s

Time = 9

velocityDampingConstraint velocityDamping damped 17 (0%) of cells, with max limit 300
smoothSolver:  Solving for Ux, Initial residual = 0.07413988469522149, Final residual = 0.005898498175332176, No Iterations 4
smoothSolver:  Solving for Uy, Initial residual = 0.1082878892992051, Final residual = 0.01021697964259135, No Iterations 4
smoothSolver:  Solving for Uz, Initial residual = 0.1022217306234423, Final residual = 0.009237305318180898, No Iterations 4
[OGL LOG][Proc: 0]: global_index_init: 0.023 [ms]
[OGL LOG][Proc: 0]p_local_coeffs: call_update: 0 [ms]
[OGL LOG][Proc: 0]p_non_local_coeffs: call_update: 0 [ms]
[OGL LOG][Proc: 0]p: update_local_matrix_data: 26.091 [ms]
[OGL LOG][Proc: 0]p: update_non_local_matrix_data: 0.428 [ms]
[OGL LOG][Proc: 0]p_matrix: call_update: 3.687 [ms]
[OGL LOG][Proc: 0]p_rhs: call_update: 0.879 [ms]
[OGL LOG][Preconditioner.H:346] Generate preconditioner Multigrid MaxLevels 9 MinCoarseRows 10 ZeroGuess 1 Cycle v
[OGL LOG][Proc: 0]p: init_precond: 292.662 [ms]
[OGL LOG][StoppingCriterion.H:239] Creating stopping criterion with minIter 52 frequency 2
[OGL LOG][Proc: 0]p: generate_solver: 0.008999999999999999 [ms]
[OGL LOG][Proc: 0]p: solve: 761.258 [ms]
[OGL LOG][Proc: 0]p: copy_x_back: 2.146 [ms]
[OGL LOG][lduLduBase.H:330] 
Statistics:
	Time per iteration: 8750 [mu s]
	Time per residual norm calculation: 1267.000000 [mu s]
	Time per iteration and DOF: 1.387317 [ns]
	Retrieve results bandwidth 2.932000 [GByte/s]
[OGL LOG][Proc: 0]p: solve_multi_gpu: 1092.798 [ms]
MultigridcudaGKOCG:  Solving for p, Initial residual = 0.5480077446519147, Final residual = 0.005131400011728541, No Iterations 87
time step continuity errors : sum local = 0.01963941778906586, global = 0.000276678920945002, cumulative = -0.003732589800948144
smoothSolver:  Solving for nuTilda, Initial residual = 0.04221653814948806, Final residual = 0.003173252675310898, No Iterations 3
ExecutionTime = 74.62 s  ClockTime = 75 s

Time = 10

velocityDampingConstraint velocityDamping damped 34 (0%) of cells, with max limit 300
smoothSolver:  Solving for Ux, Initial residual = 0.02893730659474215, Final residual = 0.002021101013366938, No Iterations 4
smoothSolver:  Solving for Uy, Initial residual = 0.060041906736267, Final residual = 0.004504655872012841, No Iterations 4
smoothSolver:  Solving for Uz, Initial residual = 0.05805410001273888, Final residual = 0.004424699116982726, No Iterations 4
[OGL LOG][Proc: 0]: global_index_init: 0.017 [ms]
[OGL LOG][Proc: 0]p_local_coeffs: call_update: 0 [ms]
[OGL LOG][Proc: 0]p_non_local_coeffs: call_update: 0 [ms]
[OGL LOG][Proc: 0]p: update_local_matrix_data: 26.388 [ms]
[OGL LOG][Proc: 0]p: update_non_local_matrix_data: 0.47 [ms]
[OGL LOG][Proc: 0]p_matrix: call_update: 2.178 [ms]
[OGL LOG][Proc: 0]p_rhs: call_update: 1.147 [ms]
[OGL LOG][Preconditioner.H:346] Generate preconditioner Multigrid MaxLevels 9 MinCoarseRows 10 ZeroGuess 1 Cycle v
[OGL LOG][Proc: 0]p: init_precond: 312.669 [ms]
[OGL LOG][StoppingCriterion.H:239] Creating stopping criterion with minIter 52 frequency 2
[OGL LOG][Proc: 0]p: generate_solver: 0.01 [ms]
[OGL LOG][Proc: 0]p: solve: 451.576 [ms]
[OGL LOG][Proc: 0]p: copy_x_back: 2.286 [ms]
[OGL LOG][lduLduBase.H:330] 
Statistics:
	Time per iteration: 8520 [mu s]
	Time per residual norm calculation: 1417.000000 [mu s]
	Time per iteration and DOF: 1.350851 [ns]
	Retrieve results bandwidth 2.752000 [GByte/s]
[OGL LOG][Proc: 0]p: solve_multi_gpu: 796.417 [ms]
MultigridcudaGKOCG:  Solving for p, Initial residual = 0.3745186808782602, Final residual = 0.001011611135582256, No Iterations 53
time step continuity errors : sum local = 0.004747399273872483, global = 0.000104090425556919, cumulative = -0.003628499375391225
smoothSolver:  Solving for nuTilda, Initial residual = 0.0354883949228155, Final residual = 0.002971745846980928, No Iterations 3
ExecutionTime = 78.7 s  ClockTime = 80 s

Time = 11

velocityDampingConstraint velocityDamping damped 186 (0%) of cells, with max limit 300
smoothSolver:  Solving for Ux, Initial residual = 0.03958766170163627, Final residual = 0.003163219646487662, No Iterations 4
smoothSolver:  Solving for Uy, Initial residual = 0.1040496346935166, Final residual = 0.009107146415294889, No Iterations 4
smoothSolver:  Solving for Uz, Initial residual = 0.09699699019347657, Final residual = 0.008444697237089854, No Iterations 4
[OGL LOG][Proc: 0]: global_index_init: 0.109 [ms]
[OGL LOG][Proc: 0]p_local_coeffs: call_update: 0 [ms]
[OGL LOG][Proc: 0]p_non_local_coeffs: call_update: 0 [ms]
[OGL LOG][Proc: 0]p: update_local_matrix_data: 25.618 [ms]
[OGL LOG][Proc: 0]p: update_non_local_matrix_data: 0.496 [ms]
[OGL LOG][Proc: 0]p_matrix: call_update: 2.621 [ms]
[OGL LOG][Proc: 0]p_rhs: call_update: 0.823 [ms]
[OGL LOG][Preconditioner.H:346] Generate preconditioner Multigrid MaxLevels 9 MinCoarseRows 10 ZeroGuess 1 Cycle v
[OGL LOG][Proc: 0]p: init_precond: 304.833 [ms]
[OGL LOG][StoppingCriterion.H:239] Creating stopping criterion with minIter 31 frequency 1
[OGL LOG][Proc: 0]p: generate_solver: 0.008999999999999999 [ms]
[OGL LOG][Proc: 0]p: solve: 811.92 [ms]
[OGL LOG][Proc: 0]p: copy_x_back: 2.113 [ms]
[OGL LOG][lduLduBase.H:330] 
Statistics:
	Time per iteration: 9332 [mu s]
	Time per residual norm calculation: 1117.000000 [mu s]
	Time per iteration and DOF: 1.479594 [ns]
	Retrieve results bandwidth 2.978000 [GByte/s]
[OGL LOG][Proc: 0]p: solve_multi_gpu: 1147.939 [ms]
MultigridcudaGKOCG:  Solving for p, Initial residual = 0.4139604212217845, Final residual = 0.003624960899468379, No Iterations 87
time step continuity errors : sum local = 0.01467513567456697, global = -0.0001128968676809398, cumulative = -0.003741396243072165
smoothSolver:  Solving for nuTilda, Initial residual = 0.03219535819861, Final residual = 0.002585110129696534, No Iterations 3
ExecutionTime = 83.11 s  ClockTime = 84 s

Time = 12

velocityDampingConstraint velocityDamping damped 9 (0%) of cells, with max limit 300
smoothSolver:  Solving for Ux, Initial residual = 0.03977948408013176, Final residual = 0.003395763986201045, No Iterations 4
smoothSolver:  Solving for Uy, Initial residual = 0.08141717799685118, Final residual = 0.007201900845542977, No Iterations 4
smoothSolver:  Solving for Uz, Initial residual = 0.07978217149832627, Final residual = 0.006789373917498852, No Iterations 4
[OGL LOG][Proc: 0]: global_index_init: 0.08 [ms]
[OGL LOG][Proc: 0]p_local_coeffs: call_update: 0 [ms]
[OGL LOG][Proc: 0]p_non_local_coeffs: call_update: 0 [ms]
[OGL LOG][Proc: 0]p: update_local_matrix_data: 28.177 [ms]
[OGL LOG][Proc: 0]p: update_non_local_matrix_data: 0.481 [ms]
[OGL LOG][Proc: 0]p_matrix: call_update: 2.19 [ms]
[OGL LOG][Proc: 0]p_rhs: call_update: 1.252 [ms]
[OGL LOG][Preconditioner.H:346] Generate preconditioner Multigrid MaxLevels 9 MinCoarseRows 10 ZeroGuess 1 Cycle v
[OGL LOG][Proc: 0]p: init_precond: 298.668 [ms]
[OGL LOG][StoppingCriterion.H:239] Creating stopping criterion with minIter 52 frequency 2
[OGL LOG][Proc: 0]p: generate_solver: 0.008999999999999999 [ms]
[OGL LOG][Proc: 0]p: solve: 736.115 [ms]
[OGL LOG][Proc: 0]p: copy_x_back: 2.22 [ms]
[OGL LOG][lduLduBase.H:330] 
Statistics:
	Time per iteration: 8660 [mu s]
	Time per residual norm calculation: 1264.000000 [mu s]
	Time per iteration and DOF: 1.373048 [ns]
	Retrieve results bandwidth 2.834000 [GByte/s]
[OGL LOG][Proc: 0]p: solve_multi_gpu: 1062.185 [ms]
MultigridcudaGKOCG:  Solving for p, Initial residual = 0.501795116641204, Final residual = 0.0045775055409677, No Iterations 85
time step continuity errors : sum local = 0.01372045287514883, global = -0.0004421179413819298, cumulative = -0.004183514184454095
smoothSolver:  Solving for nuTilda, Initial residual = 0.02866701465308403, Final residual = 0.00252450847372849, No Iterations 3
ExecutionTime = 87.45999999999999 s  ClockTime = 88 s

Time = 13

velocityDampingConstraint velocityDamping damped 5 (0%) of cells, with max limit 300
smoothSolver:  Solving for Ux, Initial residual = 0.02934974434456975, Final residual = 0.002384569223888585, No Iterations 4
smoothSolver:  Solving for Uy, Initial residual = 0.0592155014920234, Final residual = 0.004818219090502331, No Iterations 4
smoothSolver:  Solving for Uz, Initial residual = 0.05970199299774526, Final residual = 0.004605640626717009, No Iterations 4
[OGL LOG][Proc: 0]: global_index_init: 0.175 [ms]
[OGL LOG][Proc: 0]p_local_coeffs: call_update: 0 [ms]
[OGL LOG][Proc: 0]p_non_local_coeffs: call_update: 0 [ms]
[OGL LOG][Proc: 0]p: update_local_matrix_data: 25.576 [ms]
[OGL LOG][Proc: 0]p: update_non_local_matrix_data: 0.487 [ms]
[OGL LOG][Proc: 0]p_matrix: call_update: 2.303 [ms]
[OGL LOG][Proc: 0]p_rhs: call_update: 1.156 [ms]
[OGL LOG][Preconditioner.H:346] Generate preconditioner Multigrid MaxLevels 9 MinCoarseRows 10 ZeroGuess 1 Cycle v
[OGL LOG][Proc: 0]p: init_precond: 279.88 [ms]
[OGL LOG][StoppingCriterion.H:239] Creating stopping criterion with minIter 51 frequency 2
[OGL LOG][Proc: 0]p: generate_solver: 0.008999999999999999 [ms]
[OGL LOG][Proc: 0]p: solve: 472.683 [ms]
[OGL LOG][Proc: 0]p: copy_x_back: 2.173 [ms]
[OGL LOG][lduLduBase.H:330] 
Statistics:
	Time per iteration: 8918 [mu s]
	Time per residual norm calculation: 1262.000000 [mu s]
	Time per iteration and DOF: 1.413954 [ns]
	Retrieve results bandwidth 2.895000 [GByte/s]
[OGL LOG][Proc: 0]p: solve_multi_gpu: 784.89 [ms]
MultigridcudaGKOCG:  Solving for p, Initial residual = 0.4088567486301745, Final residual = 0.001501218487130743, No Iterations 53
time step continuity errors : sum local = 0.005008087629663043, global = 0.0009674345966357684, cumulative = -0.003216079587818326
smoothSolver:  Solving for nuTilda, Initial residual = 0.02777367523994339, Final residual = 0.002340182713580131, No Iterations 3
ExecutionTime = 91.53 s  ClockTime = 92 s

Time = 14

velocityDampingConstraint velocityDamping damped 75 (0%) of cells, with max limit 300
smoothSolver:  Solving for Ux, Initial residual = 0.03630882860892953, Final residual = 0.002950126973856889, No Iterations 4
smoothSolver:  Solving for Uy, Initial residual = 0.06985069478954337, Final residual = 0.006267732928682267, No Iterations 4
smoothSolver:  Solving for Uz, Initial residual = 0.06803160538118105, Final residual = 0.005908409517496807, No Iterations 4
[OGL LOG][Proc: 0]: global_index_init: 0.02 [ms]
[OGL LOG][Proc: 0]p_local_coeffs: call_update: 0 [ms]
[OGL LOG][Proc: 0]p_non_local_coeffs: call_update: 0 [ms]
[OGL LOG][Proc: 0]p: update_local_matrix_data: 27.979 [ms]
[OGL LOG][Proc: 0]p: update_non_local_matrix_data: 0.424 [ms]
[OGL LOG][Proc: 0]p_matrix: call_update: 2.592 [ms]
[OGL LOG][Proc: 0]p_rhs: call_update: 0.898 [ms]
[OGL LOG][Preconditioner.H:346] Generate preconditioner Multigrid MaxLevels 9 MinCoarseRows 10 ZeroGuess 1 Cycle v
[OGL LOG][Proc: 0]p: init_precond: 309.103 [ms]
[OGL LOG][StoppingCriterion.H:239] Creating stopping criterion with minIter 31 frequency 1
[OGL LOG][Proc: 0]p: generate_solver: 0.008999999999999999 [ms]
[OGL LOG][Proc: 0]p: solve: 772.0599999999999 [ms]
[OGL LOG][Proc: 0]p: copy_x_back: 2.325 [ms]
[OGL LOG][lduLduBase.H:330] 
Statistics:
	Time per iteration: 9083 [mu s]
	Time per residual norm calculation: 1264.000000 [mu s]
	Time per iteration and DOF: 1.440115 [ns]
	Retrieve results bandwidth 2.706000 [GByte/s]
[OGL LOG][Proc: 0]p: solve_multi_gpu: 1110.682 [ms]
MultigridcudaGKOCG:  Solving for p, Initial residual = 0.3779614210377386, Final residual = 0.003653019115723674, No Iterations 85
time step continuity errors : sum local = 0.01071741236896368, global = 0.0001055059512781127, cumulative = -0.003110573636540213
smoothSolver:  Solving for nuTilda, Initial residual = 0.02582275828559041, Final residual = 0.002365084727780473, No Iterations 3
ExecutionTime = 95.92 s  ClockTime = 97 s

Time = 15

velocityDampingConstraint velocityDamping damped 12 (0%) of cells, with max limit 300
smoothSolver:  Solving for Ux, Initial residual = 0.02741878789700649, Final residual = 0.002248256478940538, No Iterations 4
smoothSolver:  Solving for Uy, Initial residual = 0.04850265993026664, Final residual = 0.004238633078052144, No Iterations 4
smoothSolver:  Solving for Uz, Initial residual = 0.04754307361868879, Final residual = 0.004014995202688553, No Iterations 4
[OGL LOG][Proc: 0]: global_index_init: 0.281 [ms]
[OGL LOG][Proc: 0]p_local_coeffs: call_update: 0 [ms]
[OGL LOG][Proc: 0]p_non_local_coeffs: call_update: 0 [ms]
[OGL LOG][Proc: 0]p: update_local_matrix_data: 25.534 [ms]
[OGL LOG][Proc: 0]p: update_non_local_matrix_data: 0.491 [ms]
[OGL LOG][Proc: 0]p_matrix: call_update: 2.111 [ms]
[OGL LOG][Proc: 0]p_rhs: call_update: 1.304 [ms]
[OGL LOG][Preconditioner.H:346] Generate preconditioner Multigrid MaxLevels 9 MinCoarseRows 10 ZeroGuess 1 Cycle v
[OGL LOG][Proc: 0]p: init_precond: 290.639 [ms]
[OGL LOG][StoppingCriterion.H:239] Creating stopping criterion with minIter 51 frequency 2
[OGL LOG][Proc: 0]p: generate_solver: 0.008999999999999999 [ms]
[OGL LOG][Proc: 0]p: solve: 464.58 [ms]
[OGL LOG][Proc: 0]p: copy_x_back: 2.167 [ms]
[OGL LOG][lduLduBase.H:330] 
Statistics:
	Time per iteration: 8765 [mu s]
	Time per residual norm calculation: 1269.000000 [mu s]
	Time per iteration and DOF: 1.389696 [ns]
	Retrieve results bandwidth 2.903000 [GByte/s]
[OGL LOG][Proc: 0]p: solve_multi_gpu: 786.397 [ms]
MultigridcudaGKOCG:  Solving for p, Initial residual = 0.3004120971475323, Final residual = 0.002671985153033918, No Iterations 53
time step continuity errors : sum local = 0.008761673185089473, global = 0.001643340893605487, cumulative = -0.001467232742934726
smoothSolver:  Solving for nuTilda, Initial residual = 0.02579442326480364, Final residual = 0.002210124611167275, No Iterations 3
ExecutionTime = 99.98 s  ClockTime = 101 s

Time = 16

velocityDampingConstraint velocityDamping damped 0 (0%) of cells, with max limit 300
smoothSolver:  Solving for Ux, Initial residual = 0.01768084150877204, Final residual = 0.001322703359351596, No Iterations 4
smoothSolver:  Solving for Uy, Initial residual = 0.03815430832899887, Final residual = 0.002869671372663687, No Iterations 4
smoothSolver:  Solving for Uz, Initial residual = 0.04192033103833946, Final residual = 0.003254317594710714, No Iterations 4
[OGL LOG][Proc: 0]: global_index_init: 0.05 [ms]
[OGL LOG][Proc: 0]p_local_coeffs: call_update: 0 [ms]
[OGL LOG][Proc: 0]p_non_local_coeffs: call_update: 0 [ms]
[OGL LOG][Proc: 0]p: update_local_matrix_data: 31.497 [ms]
[OGL LOG][Proc: 0]p: update_non_local_matrix_data: 0.463 [ms]
[OGL LOG][Proc: 0]p_matrix: call_update: 2.674 [ms]
[OGL LOG][Proc: 0]p_rhs: call_update: 1.933 [ms]
[OGL LOG][Preconditioner.H:346] Generate preconditioner Multigrid MaxLevels 9 MinCoarseRows 10 ZeroGuess 1 Cycle v
[OGL LOG][Proc: 0]p: init_precond: 366.348 [ms]
[OGL LOG][StoppingCriterion.H:239] Creating stopping criterion with minIter 31 frequency 1
[OGL LOG][Proc: 0]p: generate_solver: 0.01 [ms]
[OGL LOG][Proc: 0]p: solve: 321.056 [ms]
[OGL LOG][Proc: 0]p: copy_x_back: 2.291 [ms]
[OGL LOG][lduLduBase.H:330] 
Statistics:
	Time per iteration: 9442 [mu s]
	Time per residual norm calculation: 1258.000000 [mu s]
	Time per iteration and DOF: 1.497034 [ns]
	Retrieve results bandwidth 2.746000 [GByte/s]
[OGL LOG][Proc: 0]p: solve_multi_gpu: 715.458 [ms]
MultigridcudaGKOCG:  Solving for p, Initial residual = 0.4770778129512327, Final residual = 0.004538062725302907, No Iterations 34
time step continuity errors : sum local = 0.009448941760342701, global = 0.0006484704670206941, cumulative = -0.000818762275914032
smoothSolver:  Solving for nuTilda, Initial residual = 0.02365314617076719, Final residual = 0.002229769525994, No Iterations 3
ExecutionTime = 103.84 s  ClockTime = 105 s

Time = 17

velocityDampingConstraint velocityDamping damped 1 (0%) of cells, with max limit 300
smoothSolver:  Solving for Ux, Initial residual = 0.01568048639185839, Final residual = 0.001151841648887304, No Iterations 4
smoothSolver:  Solving for Uy, Initial residual = 0.04328541671558358, Final residual = 0.003578154072177201, No Iterations 4
smoothSolver:  Solving for Uz, Initial residual = 0.04591921368207905, Final residual = 0.003854173208947151, No Iterations 4
[OGL LOG][Proc: 0]: global_index_init: 0.018 [ms]
[OGL LOG][Proc: 0]p_local_coeffs: call_update: 0 [ms]
[OGL LOG][Proc: 0]p_non_local_coeffs: call_update: 0 [ms]
[OGL LOG][Proc: 0]p: update_local_matrix_data: 25.832 [ms]
[OGL LOG][Proc: 0]p: update_non_local_matrix_data: 0.435 [ms]
[OGL LOG][Proc: 0]p_matrix: call_update: 2.381 [ms]
[OGL LOG][Proc: 0]p_rhs: call_update: 1.11 [ms]
[OGL LOG][Preconditioner.H:346] Generate preconditioner Multigrid MaxLevels 9 MinCoarseRows 10 ZeroGuess 1 Cycle v
[OGL LOG][Proc: 0]p: init_precond: 295.854 [ms]
[OGL LOG][StoppingCriterion.H:239] Creating stopping criterion with minIter 20 frequency 1
[OGL LOG][Proc: 0]p: generate_solver: 0.011 [ms]
[OGL LOG][Proc: 0]p: solve: 767.764 [ms]
[OGL LOG][Proc: 0]p: copy_x_back: 2.849 [ms]
[OGL LOG][lduLduBase.H:330] 
Statistics:
	Time per iteration: 9140 [mu s]
	Time per residual norm calculation: 1265.000000 [mu s]
	Time per iteration and DOF: 1.449152 [ns]
	Retrieve results bandwidth 2.208000 [GByte/s]
[OGL LOG][Proc: 0]p: solve_multi_gpu: 1096.167 [ms]
MultigridcudaGKOCG:  Solving for p, Initial residual = 0.4299573963755914, Final residual = 0.004005782969573934, No Iterations 84
time step continuity errors : sum local = 0.008227131159374804, global = -0.0001618740991728611, cumulative = -0.000980636375086893
smoothSolver:  Solving for nuTilda, Initial residual = 0.02474708529004184, Final residual = 0.002074027394114208, No Iterations 3
ExecutionTime = 108.21 s  ClockTime = 109 s

Time = 18

velocityDampingConstraint velocityDamping damped 1 (0%) of cells, with max limit 300
smoothSolver:  Solving for Ux, Initial residual = 0.01489703628567047, Final residual = 0.001215661548295085, No Iterations 4
smoothSolver:  Solving for Uy, Initial residual = 0.03617188162873219, Final residual = 0.00295726522546273, No Iterations 4
smoothSolver:  Solving for Uz, Initial residual = 0.03700018702120314, Final residual = 0.003004764496955145, No Iterations 4
[OGL LOG][Proc: 0]: global_index_init: 0.114 [ms]
[OGL LOG][Proc: 0]p_local_coeffs: call_update: 0 [ms]
[OGL LOG][Proc: 0]p_non_local_coeffs: call_update: 0 [ms]
[OGL LOG][Proc: 0]p: update_local_matrix_data: 26.228 [ms]
[OGL LOG][Proc: 0]p: update_non_local_matrix_data: 0.456 [ms]
[OGL LOG][Proc: 0]p_matrix: call_update: 2.251 [ms]
[OGL LOG][Proc: 0]p_rhs: call_update: 1.125 [ms]
[OGL LOG][Preconditioner.H:346] Generate preconditioner Multigrid MaxLevels 9 MinCoarseRows 10 ZeroGuess 1 Cycle v
[OGL LOG][Proc: 0]p: init_precond: 283.727 [ms]
[OGL LOG][StoppingCriterion.H:239] Creating stopping criterion with minIter 50 frequency 2
[OGL LOG][Proc: 0]p: generate_solver: 0.008999999999999999 [ms]
[OGL LOG][Proc: 0]p: solve: 666.755 [ms]
[OGL LOG][Proc: 0]p: copy_x_back: 2.19 [ms]
[OGL LOG][lduLduBase.H:330] 
Statistics:
	Time per iteration: 9133 [mu s]
	Time per residual norm calculation: 1262.000000 [mu s]
	Time per iteration and DOF: 1.448042 [ns]
	Retrieve results bandwidth 2.873000 [GByte/s]
[OGL LOG][Proc: 0]p: solve_multi_gpu: 982.139 [ms]
MultigridcudaGKOCG:  Solving for p, Initial residual = 0.3815120889469747, Final residual = 0.00357836806129025, No Iterations 73
time step continuity errors : sum local = 0.007126322888319304, global = -0.0007614481314940935, cumulative = -0.001742084506580986
smoothSolver:  Solving for nuTilda, Initial residual = 0.02207665735916029, Final residual = 0.002113058302722418, No Iterations 3
ExecutionTime = 112.45 s  ClockTime = 114 s

Time = 19

velocityDampingConstraint velocityDamping damped 1 (0%) of cells, with max limit 300
smoothSolver:  Solving for Ux, Initial residual = 0.01443071244017713, Final residual = 0.00127158830010262, No Iterations 4
smoothSolver:  Solving for Uy, Initial residual = 0.03542236590475913, Final residual = 0.003043848333780644, No Iterations 4
smoothSolver:  Solving for Uz, Initial residual = 0.03536794901474163, Final residual = 0.002934952886043228, No Iterations 4
[OGL LOG][Proc: 0]: global_index_init: 0.128 [ms]
[OGL LOG][Proc: 0]p_local_coeffs: call_update: 0 [ms]
[OGL LOG][Proc: 0]p_non_local_coeffs: call_update: 0 [ms]
[OGL LOG][Proc: 0]p: update_local_matrix_data: 24.998 [ms]
[OGL LOG][Proc: 0]p: update_non_local_matrix_data: 0.513 [ms]
[OGL LOG][Proc: 0]p_matrix: call_update: 2.354 [ms]
[OGL LOG][Proc: 0]p_rhs: call_update: 1.083 [ms]
[OGL LOG][Preconditioner.H:346] Generate preconditioner Multigrid MaxLevels 9 MinCoarseRows 10 ZeroGuess 1 Cycle v
[OGL LOG][Proc: 0]p: init_precond: 297.943 [ms]
[OGL LOG][StoppingCriterion.H:239] Creating stopping criterion with minIter 43 frequency 2
[OGL LOG][Proc: 0]p: generate_solver: 0.008999999999999999 [ms]
[OGL LOG][Proc: 0]p: solve: 411.79 [ms]
[OGL LOG][Proc: 0]p: copy_x_back: 2.161 [ms]
[OGL LOG][lduLduBase.H:330] 
Statistics:
	Time per iteration: 9150 [mu s]
	Time per residual norm calculation: 1275.000000 [mu s]
	Time per iteration and DOF: 1.450738 [ns]
	Retrieve results bandwidth 2.912000 [GByte/s]
[OGL LOG][Proc: 0]p: solve_multi_gpu: 745.071 [ms]
MultigridcudaGKOCG:  Solving for p, Initial residual = 0.3904167316540618, Final residual = 0.002203380219701049, No Iterations 45
time step continuity errors : sum local = 0.004085327793073821, global = 0.00015403152992617, cumulative = -0.001588052976654816
smoothSolver:  Solving for nuTilda, Initial residual = 0.02552743658836043, Final residual = 0.001971683995679228, No Iterations 3
ExecutionTime = 116.46 s  ClockTime = 118 s

Time = 20

velocityDampingConstraint velocityDamping damped 0 (0%) of cells, with max limit 300
smoothSolver:  Solving for Ux, Initial residual = 0.01452879076286557, Final residual = 0.001244960230666719, No Iterations 4
smoothSolver:  Solving for Uy, Initial residual = 0.03317038103206677, Final residual = 0.00300556648154538, No Iterations 4
smoothSolver:  Solving for Uz, Initial residual = 0.03303578880911146, Final residual = 0.002860054083653155, No Iterations 4
[OGL LOG][Proc: 0]: global_index_init: 0.015 [ms]
[OGL LOG][Proc: 0]p_local_coeffs: call_update: 0 [ms]
[OGL LOG][Proc: 0]p_non_local_coeffs: call_update: 0 [ms]
[OGL LOG][Proc: 0]p: update_local_matrix_data: 26.377 [ms]
[OGL LOG][Proc: 0]p: update_non_local_matrix_data: 0.468 [ms]
[OGL LOG][Proc: 0]p_matrix: call_update: 2.307 [ms]
[OGL LOG][Proc: 0]p_rhs: call_update: 1.119 [ms]
[OGL LOG][Preconditioner.H:346] Generate preconditioner Multigrid MaxLevels 9 MinCoarseRows 10 ZeroGuess 1 Cycle v
[OGL LOG][Proc: 0]p: init_precond: 316.418 [ms]
[OGL LOG][StoppingCriterion.H:239] Creating stopping criterion with minIter 27 frequency 1
[OGL LOG][Proc: 0]p: generate_solver: 0.008999999999999999 [ms]
[OGL LOG][Proc: 0]p: solve: 743.726 [ms]
[OGL LOG][Proc: 0]p: copy_x_back: 2.295 [ms]
[OGL LOG][lduLduBase.H:330] 
Statistics:
	Time per iteration: 9069 [mu s]
	Time per residual norm calculation: 1410.000000 [mu s]
	Time per iteration and DOF: 1.437895 [ns]
	Retrieve results bandwidth 2.741000 [GByte/s]
[OGL LOG][Proc: 0]p: solve_multi_gpu: 1090.794 [ms]
MultigridcudaGKOCG:  Solving for p, Initial residual = 0.3936070662535414, Final residual = 0.00387220667685932, No Iterations 82
time step continuity errors : sum local = 0.005892999824690072, global = 0.0001297588180413859, cumulative = -0.001458294158613431
smoothSolver:  Solving for nuTilda, Initial residual = 0.02098003331497265, Final residual = 0.002049493025127734, No Iterations 3
ExecutionTime = 120.8 s  ClockTime = 122 s

Time = 21

velocityDampingConstraint velocityDamping damped 3 (0%) of cells, with max limit 300
smoothSolver:  Solving for Ux, Initial residual = 0.01192027697904472, Final residual = 0.001006537494870251, No Iterations 4
smoothSolver:  Solving for Uy, Initial residual = 0.02562869910446434, Final residual = 0.002277115162119471, No Iterations 4
smoothSolver:  Solving for Uz, Initial residual = 0.0267517498189864, Final residual = 0.002241990801602381, No Iterations 4
[OGL LOG][Proc: 0]: global_index_init: 0.049 [ms]
[OGL LOG][Proc: 0]p_local_coeffs: call_update: 0 [ms]
[OGL LOG][Proc: 0]p_non_local_coeffs: call_update: 0 [ms]
[OGL LOG][Proc: 0]p: update_local_matrix_data: 25.833 [ms]
[OGL LOG][Proc: 0]p: update_non_local_matrix_data: 0.505 [ms]
[OGL LOG][Proc: 0]p_matrix: call_update: 2.687 [ms]
[OGL LOG][Proc: 0]p_rhs: call_update: 0.918 [ms]
[OGL LOG][Preconditioner.H:346] Generate preconditioner Multigrid MaxLevels 9 MinCoarseRows 10 ZeroGuess 1 Cycle v
[OGL LOG][Proc: 0]p: init_precond: 306.798 [ms]
[OGL LOG][StoppingCriterion.H:239] Creating stopping criterion with minIter 49 frequency 2
[OGL LOG][Proc: 0]p: generate_solver: 0.008999999999999999 [ms]
[OGL LOG][Proc: 0]p: solve: 442.158 [ms]
[OGL LOG][Proc: 0]p: copy_x_back: 2.017 [ms]
[OGL LOG][lduLduBase.H:330] 
Statistics:
	Time per iteration: 8669 [mu s]
	Time per residual norm calculation: 1266.000000 [mu s]
	Time per iteration and DOF: 1.374475 [ns]
	Retrieve results bandwidth 3.119000 [GByte/s]
[OGL LOG][Proc: 0]p: solve_multi_gpu: 778.662 [ms]
MultigridcudaGKOCG:  Solving for p, Initial residual = 0.2975871182301257, Final residual = 0.00259404115826502, No Iterations 51
time step continuity errors : sum local = 0.004462785721316722, global = 0.000880712777418708, cumulative = -0.0005775813811947225
smoothSolver:  Solving for nuTilda, Initial residual = 0.02880213221448141, Final residual = 0.001901637768321441, No Iterations 3
ExecutionTime = 124.84 s  ClockTime = 126 s

Time = 22

velocityDampingConstraint velocityDamping damped 0 (0%) of cells, with max limit 300
smoothSolver:  Solving for Ux, Initial residual = 0.009778833629724402, Final residual = 0.000806140294735194, No Iterations 4
smoothSolver:  Solving for Uy, Initial residual = 0.02434441607975731, Final residual = 0.001982880487476433, No Iterations 4
smoothSolver:  Solving for Uz, Initial residual = 0.02708259947547647, Final residual = 0.002185437436836257, No Iterations 4
[OGL LOG][Proc: 0]: global_index_init: 0.04 [ms]
[OGL LOG][Proc: 0]p_local_coeffs: call_update: 0 [ms]
[OGL LOG][Proc: 0]p_non_local_coeffs: call_update: 0 [ms]
[OGL LOG][Proc: 0]p: update_local_matrix_data: 26.81 [ms]
[OGL LOG][Proc: 0]p: update_non_local_matrix_data: 0.443 [ms]
[OGL LOG][Proc: 0]p_matrix: call_update: 2.104 [ms]
[OGL LOG][Proc: 0]p_rhs: call_update: 1.253 [ms]
[OGL LOG][Preconditioner.H:346] Generate preconditioner Multigrid MaxLevels 9 MinCoarseRows 10 ZeroGuess 1 Cycle v
[OGL LOG][Proc: 0]p: init_precond: 308.44 [ms]
[OGL LOG][StoppingCriterion.H:239] Creating stopping criterion with minIter 30 frequency 1
[OGL LOG][Proc: 0]p: generate_solver: 0.008999999999999999 [ms]
[OGL LOG][Proc: 0]p: solve: 327.819 [ms]
[OGL LOG][Proc: 0]p: copy_x_back: 2.281 [ms]
[OGL LOG][lduLduBase.H:330] 
Statistics:
	Time per iteration: 9106 [mu s]
	Time per residual norm calculation: 1273.000000 [mu s]
	Time per iteration and DOF: 1.443761 [ns]
	Retrieve results bandwidth 2.758000 [GByte/s]
[OGL LOG][Proc: 0]p: solve_multi_gpu: 664.9109999999999 [ms]
MultigridcudaGKOCG:  Solving for p, Initial residual = 0.3416941430047026, Final residual = 0.003203185168038138, No Iterations 36
time step continuity errors : sum local = 0.004596575187235286, global = 0.0006027488243078642, cumulative = 2.516744311314176e-05
smoothSolver:  Solving for nuTilda, Initial residual = 0.01997703190448247, Final residual = 0.001988737336781069, No Iterations 3
ExecutionTime = 128.76 s  ClockTime = 130 s

Time = 23

velocityDampingConstraint velocityDamping damped 0 (0%) of cells, with max limit 300
smoothSolver:  Solving for Ux, Initial residual = 0.008925102932885043, Final residual = 0.0007286567674528917, No Iterations 4
smoothSolver:  Solving for Uy, Initial residual = 0.02484871412446502, Final residual = 0.002085200740817067, No Iterations 4
smoothSolver:  Solving for Uz, Initial residual = 0.02636424043566511, Final residual = 0.00218135790840987, No Iterations 4
[OGL LOG][Proc: 0]: global_index_init: 0.258 [ms]
[OGL LOG][Proc: 0]p_local_coeffs: call_update: 0 [ms]
[OGL LOG][Proc: 0]p_non_local_coeffs: call_update: 0 [ms]
[OGL LOG][Proc: 0]p: update_local_matrix_data: 24.38 [ms]
[OGL LOG][Proc: 0]p: update_non_local_matrix_data: 0.487 [ms]
[OGL LOG][Proc: 0]p_matrix: call_update: 1.931 [ms]
[OGL LOG][Proc: 0]p_rhs: call_update: 1.447 [ms]
[OGL LOG][Preconditioner.H:346] Generate preconditioner Multigrid MaxLevels 9 MinCoarseRows 10 ZeroGuess 1 Cycle v
[OGL LOG][Proc: 0]p: init_precond: 303.63 [ms]
[OGL LOG][StoppingCriterion.H:239] Creating stopping criterion with minIter 21 frequency 1
[OGL LOG][Proc: 0]p: generate_solver: 0.008999999999999999 [ms]
[OGL LOG][Proc: 0]p: solve: 507.015 [ms]
[OGL LOG][Proc: 0]p: copy_x_back: 2.134 [ms]
[OGL LOG][lduLduBase.H:330] 
Statistics:
	Time per iteration: 9566 [mu s]
	Time per residual norm calculation: 1261.000000 [mu s]
	Time per iteration and DOF: 1.516695 [ns]
	Retrieve results bandwidth 2.948000 [GByte/s]
[OGL LOG][Proc: 0]p: solve_multi_gpu: 846.126 [ms]
MultigridcudaGKOCG:  Solving for p, Initial residual = 0.2734241134047439, Final residual = 0.002664376620866185, No Iterations 53
time step continuity errors : sum local = 0.004126943465420062, global = -0.0009003952341888777, cumulative = -0.000875227791075736
smoothSolver:  Solving for nuTilda, Initial residual = 0.03169212995106874, Final residual = 0.001826733733210534, No Iterations 3
ExecutionTime = 132.85 s  ClockTime = 134 s

Time = 24

velocityDampingConstraint velocityDamping damped 0 (0%) of cells, with max limit 300
smoothSolver:  Solving for Ux, Initial residual = 0.008966320691207307, Final residual = 0.0007522038547680632, No Iterations 4
smoothSolver:  Solving for Uy, Initial residual = 0.02370263617416167, Final residual = 0.002051953845893915, No Iterations 4
smoothSolver:  Solving for Uz, Initial residual = 0.02398930543142428, Final residual = 0.002030645728682372, No Iterations 4
[OGL LOG][Proc: 0]: global_index_init: 0.06900000000000001 [ms]
[OGL LOG][Proc: 0]p_local_coeffs: call_update: 0 [ms]
[OGL LOG][Proc: 0]p_non_local_coeffs: call_update: 0 [ms]
[OGL LOG][Proc: 0]p: update_local_matrix_data: 28.59 [ms]
[OGL LOG][Proc: 0]p: update_non_local_matrix_data: 0.463 [ms]
[OGL LOG][Proc: 0]p_matrix: call_update: 2.661 [ms]
[OGL LOG][Proc: 0]p_rhs: call_update: 0.769 [ms]
[OGL LOG][Preconditioner.H:346] Generate preconditioner Multigrid MaxLevels 9 MinCoarseRows 10 ZeroGuess 1 Cycle v
[OGL LOG][Proc: 0]p: init_precond: 289.351 [ms]
[OGL LOG][StoppingCriterion.H:239] Creating stopping criterion with minIter 31 frequency 1
[OGL LOG][Proc: 0]p: generate_solver: 0.008999999999999999 [ms]
[OGL LOG][Proc: 0]p: solve: 634.838 [ms]
[OGL LOG][Proc: 0]p: copy_x_back: 2.291 [ms]
[OGL LOG][lduLduBase.H:330] 
Statistics:
	Time per iteration: 9335 [mu s]
	Time per residual norm calculation: 1269.000000 [mu s]
	Time per iteration and DOF: 1.480070 [ns]
	Retrieve results bandwidth 2.746000 [GByte/s]
[OGL LOG][Proc: 0]p: solve_multi_gpu: 952.308 [ms]
MultigridcudaGKOCG:  Solving for p, Initial residual = 0.217193780830663, Final residual = 0.001914318182669744, No Iterations 68
time step continuity errors : sum local = 0.003377688180516294, global = 3.766088486779257e-05, cumulative = -0.0008375669062079434
smoothSolver:  Solving for nuTilda, Initial residual = 0.01874087130770531, Final residual = 0.001091836260617208, No Iterations 4
ExecutionTime = 137.09 s  ClockTime = 138 s

Time = 25

velocityDampingConstraint velocityDamping damped 0 (0%) of cells, with max limit 300
smoothSolver:  Solving for Ux, Initial residual = 0.008579709830241177, Final residual = 0.0007788723793752621, No Iterations 4
smoothSolver:  Solving for Uy, Initial residual = 0.02325969743740718, Final residual = 0.002080111384931696, No Iterations 4
smoothSolver:  Solving for Uz, Initial residual = 0.02342877701338458, Final residual = 0.002044450763429486, No Iterations 4
[OGL LOG][Proc: 0]: global_index_init: 0.08 [ms]
[OGL LOG][Proc: 0]p_local_coeffs: call_update: 0 [ms]
[OGL LOG][Proc: 0]p_non_local_coeffs: call_update: 0 [ms]
[OGL LOG][Proc: 0]p: update_local_matrix_data: 24.67 [ms]
[OGL LOG][Proc: 0]p: update_non_local_matrix_data: 0.453 [ms]
[OGL LOG][Proc: 0]p_matrix: call_update: 2.413 [ms]
[OGL LOG][Proc: 0]p_rhs: call_update: 1.01 [ms]
[OGL LOG][Preconditioner.H:346] Generate preconditioner Multigrid MaxLevels 9 MinCoarseRows 10 ZeroGuess 1 Cycle v
[OGL LOG][Proc: 0]p: init_precond: 290.187 [ms]
[OGL LOG][StoppingCriterion.H:239] Creating stopping criterion with minIter 40 frequency 1
[OGL LOG][Proc: 0]p: generate_solver: 0.008999999999999999 [ms]
[OGL LOG][Proc: 0]p: solve: 384.8 [ms]
[OGL LOG][Proc: 0]p: copy_x_back: 2.093 [ms]
[OGL LOG][lduLduBase.H:330] 
Statistics:
	Time per iteration: 9385 [mu s]
	Time per residual norm calculation: 1266.000000 [mu s]
	Time per iteration and DOF: 1.487997 [ns]
	Retrieve results bandwidth 3.006000 [GByte/s]
[OGL LOG][Proc: 0]p: solve_multi_gpu: 706.4059999999999 [ms]
MultigridcudaGKOCG:  Solving for p, Initial residual = 0.3090266032699686, Final residual = 0.002334694995529825, No Iterations 41
time step continuity errors : sum local = 0.002615857074731111, global = 0.0002200364470390188, cumulative = -0.0006175304591689246
smoothSolver:  Solving for nuTilda, Initial residual = 0.03174349948080832, Final residual = 0.001749132207990584, No Iterations 3
ExecutionTime = 141.03 s  ClockTime = 142 s

Time = 26

velocityDampingConstraint velocityDamping damped 0 (0%) of cells, with max limit 300
smoothSolver:  Solving for Ux, Initial residual = 0.008660430051456034, Final residual = 0.0007695499132302483, No Iterations 4
smoothSolver:  Solving for Uy, Initial residual = 0.02101611773697804, Final residual = 0.001920028617747945, No Iterations 4
smoothSolver:  Solving for Uz, Initial residual = 0.02125160470114252, Final residual = 0.00187529225791932, No Iterations 4
[OGL LOG][Proc: 0]: global_index_init: 0.126 [ms]
[OGL LOG][Proc: 0]p_local_coeffs: call_update: 0 [ms]
[OGL LOG][Proc: 0]p_non_local_coeffs: call_update: 0 [ms]
[OGL LOG][Proc: 0]p: update_local_matrix_data: 28.375 [ms]
[OGL LOG][Proc: 0]p: update_non_local_matrix_data: 0.441 [ms]
[OGL LOG][Proc: 0]p_matrix: call_update: 2.145 [ms]
[OGL LOG][Proc: 0]p_rhs: call_update: 1.221 [ms]
[OGL LOG][Preconditioner.H:346] Generate preconditioner Multigrid MaxLevels 9 MinCoarseRows 10 ZeroGuess 1 Cycle v
[OGL LOG][Proc: 0]p: init_precond: 283.401 [ms]
[OGL LOG][StoppingCriterion.H:239] Creating stopping criterion with minIter 24 frequency 1
[OGL LOG][Proc: 0]p: generate_solver: 0.008999999999999999 [ms]
[OGL LOG][Proc: 0]p: solve: 736.671 [ms]
[OGL LOG][Proc: 0]p: copy_x_back: 2.336 [ms]
[OGL LOG][lduLduBase.H:330] 
Statistics:
	Time per iteration: 9444 [mu s]
	Time per residual norm calculation: 1270.000000 [mu s]
	Time per iteration and DOF: 1.497352 [ns]
	Retrieve results bandwidth 2.693000 [GByte/s]
[OGL LOG][Proc: 0]p: solve_multi_gpu: 1049.544 [ms]
MultigridcudaGKOCG:  Solving for p, Initial residual = 0.2542787376204973, Final residual = 0.002527930895686988, No Iterations 78
time step continuity errors : sum local = 0.002954242482094287, global = 0.0001033923955818767, cumulative = -0.0005141380635870479
smoothSolver:  Solving for nuTilda, Initial residual = 0.01738856559151775, Final residual = 0.001054388820062477, No Iterations 4
ExecutionTime = 145.36 s  ClockTime = 146 s

Time = 27

velocityDampingConstraint velocityDamping damped 0 (0%) of cells, with max limit 300
smoothSolver:  Solving for Ux, Initial residual = 0.007589162058012771, Final residual = 0.0006592014391254882, No Iterations 4
smoothSolver:  Solving for Uy, Initial residual = 0.0189243652863199, Final residual = 0.001735003735152803, No Iterations 4
smoothSolver:  Solving for Uz, Initial residual = 0.01936690859337813, Final residual = 0.001698660544527435, No Iterations 4
[OGL LOG][Proc: 0]: global_index_init: 0.017 [ms]
[OGL LOG][Proc: 0]p_local_coeffs: call_update: 0 [ms]
[OGL LOG][Proc: 0]p_non_local_coeffs: call_update: 0 [ms]
[OGL LOG][Proc: 0]p: update_local_matrix_data: 24.798 [ms]
[OGL LOG][Proc: 0]p: update_non_local_matrix_data: 0.477 [ms]
[OGL LOG][Proc: 0]p_matrix: call_update: 2.418 [ms]
[OGL LOG][Proc: 0]p_rhs: call_update: 0.983 [ms]
[OGL LOG][Preconditioner.H:346] Generate preconditioner Multigrid MaxLevels 9 MinCoarseRows 10 ZeroGuess 1 Cycle v
[OGL LOG][Proc: 0]p: init_precond: 312.928 [ms]
[OGL LOG][StoppingCriterion.H:239] Creating stopping criterion with minIter 46 frequency 2
[OGL LOG][Proc: 0]p: generate_solver: 0.008999999999999999 [ms]
[OGL LOG][Proc: 0]p: solve: 577.298 [ms]
[OGL LOG][Proc: 0]p: copy_x_back: 2.216 [ms]
[OGL LOG][lduLduBase.H:330] 
Statistics:
	Time per iteration: 8616 [mu s]
	Time per residual norm calculation: 1404.000000 [mu s]
	Time per iteration and DOF: 1.366072 [ns]
	Retrieve results bandwidth 2.839000 [GByte/s]
[OGL LOG][Proc: 0]p: solve_multi_gpu: 922.491 [ms]
MultigridcudaGKOCG:  Solving for p, Initial residual = 0.2298498582949415, Final residual = 0.001959127881435335, No Iterations 67
time step continuity errors : sum local = 0.002210512870997631, global = -1.890446103933731e-05, cumulative = -0.0005330425246263852
smoothSolver:  Solving for nuTilda, Initial residual = 0.03066763423306101, Final residual = 0.001680420567196316, No Iterations 3
ExecutionTime = 149.52 s  ClockTime = 151 s

Time = 28

velocityDampingConstraint velocityDamping damped 0 (0%) of cells, with max limit 300
smoothSolver:  Solving for Ux, Initial residual = 0.006795388565811218, Final residual = 0.0005921329863252339, No Iterations 4
smoothSolver:  Solving for Uy, Initial residual = 0.01881321675225705, Final residual = 0.001695016152664584, No Iterations 4
smoothSolver:  Solving for Uz, Initial residual = 0.01951054762450689, Final residual = 0.001684017141625095, No Iterations 4
[OGL LOG][Proc: 0]: global_index_init: 0.019 [ms]
[OGL LOG][Proc: 0]p_local_coeffs: call_update: 0 [ms]
[OGL LOG][Proc: 0]p_non_local_coeffs: call_update: 0 [ms]
[OGL LOG][Proc: 0]p: update_local_matrix_data: 25.024 [ms]
[OGL LOG][Proc: 0]p: update_non_local_matrix_data: 0.466 [ms]
[OGL LOG][Proc: 0]p_matrix: call_update: 2.281 [ms]
[OGL LOG][Proc: 0]p_rhs: call_update: 1.075 [ms]
[OGL LOG][Preconditioner.H:346] Generate preconditioner Multigrid MaxLevels 9 MinCoarseRows 10 ZeroGuess 1 Cycle v
[OGL LOG][Proc: 0]p: init_precond: 287.49 [ms]
[OGL LOG][StoppingCriterion.H:239] Creating stopping criterion with minIter 40 frequency 2
[OGL LOG][Proc: 0]p: generate_solver: 0.008999999999999999 [ms]
[OGL LOG][Proc: 0]p: solve: 623.275 [ms]
[OGL LOG][Proc: 0]p: copy_x_back: 2.167 [ms]
[OGL LOG][lduLduBase.H:330] 
Statistics:
	Time per iteration: 9032 [mu s]
	Time per residual norm calculation: 1269.000000 [mu s]
	Time per iteration and DOF: 1.432029 [ns]
	Retrieve results bandwidth 2.903000 [GByte/s]
[OGL LOG][Proc: 0]p: solve_multi_gpu: 942.308 [ms]
MultigridcudaGKOCG:  Solving for p, Initial residual = 0.1793304320350816, Final residual = 0.001723879165948254, No Iterations 69
time step continuity errors : sum local = 0.002309007663535406, global = -0.0002082421909999558, cumulative = -0.000741284715626341
smoothSolver:  Solving for nuTilda, Initial residual = 0.01606610161560589, Final residual = 0.001011914992203917, No Iterations 4
ExecutionTime = 153.71 s  ClockTime = 155 s

Time = 29

velocityDampingConstraint velocityDamping damped 0 (0%) of cells, with max limit 300
smoothSolver:  Solving for Ux, Initial residual = 0.006584362825235929, Final residual = 0.0005708824241911171, No Iterations 4
smoothSolver:  Solving for Uy, Initial residual = 0.01887498621386014, Final residual = 0.001706360201316363, No Iterations 4
smoothSolver:  Solving for Uz, Initial residual = 0.01930041107679738, Final residual = 0.001667311709262029, No Iterations 4
[OGL LOG][Proc: 0]: global_index_init: 0.02 [ms]
[OGL LOG][Proc: 0]p_local_coeffs: call_update: 0 [ms]
[OGL LOG][Proc: 0]p_non_local_coeffs: call_update: 0 [ms]
[OGL LOG][Proc: 0]p: update_local_matrix_data: 25.475 [ms]
[OGL LOG][Proc: 0]p: update_non_local_matrix_data: 0.487 [ms]
[OGL LOG][Proc: 0]p_matrix: call_update: 2.296 [ms]
[OGL LOG][Proc: 0]p_rhs: call_update: 1.119 [ms]
[OGL LOG][Preconditioner.H:346] Generate preconditioner Multigrid MaxLevels 9 MinCoarseRows 10 ZeroGuess 1 Cycle v
[OGL LOG][Proc: 0]p: init_precond: 286.975 [ms]
[OGL LOG][StoppingCriterion.H:239] Creating stopping criterion with minIter 41 frequency 1
[OGL LOG][Proc: 0]p: generate_solver: 0.008999999999999999 [ms]
[OGL LOG][Proc: 0]p: solve: 624.3440000000001 [ms]
[OGL LOG][Proc: 0]p: copy_x_back: 2.183 [ms]
[OGL LOG][lduLduBase.H:330] 
Statistics:
	Time per iteration: 9318 [mu s]
	Time per residual norm calculation: 1255.000000 [mu s]
	Time per iteration and DOF: 1.477374 [ns]
	Retrieve results bandwidth 2.882000 [GByte/s]
[OGL LOG][Proc: 0]p: solve_multi_gpu: 943.3049999999999 [ms]
MultigridcudaGKOCG:  Solving for p, Initial residual = 0.180737293218874, Final residual = 0.00179377808440053, No Iterations 67
time step continuity errors : sum local = 0.002136778492147794, global = -0.0001051626038715565, cumulative = -0.0008464473194978975
smoothSolver:  Solving for nuTilda, Initial residual = 0.02861912196679671, Final residual = 0.00161124347339138, No Iterations 3
ExecutionTime = 157.91 s  ClockTime = 159 s

Time = 30

velocityDampingConstraint velocityDamping damped 0 (0%) of cells, with max limit 300
smoothSolver:  Solving for Ux, Initial residual = 0.006375957002091077, Final residual = 0.0005671263739973951, No Iterations 4
smoothSolver:  Solving for Uy, Initial residual = 0.01852602362841925, Final residual = 0.001687871900901807, No Iterations 4
smoothSolver:  Solving for Uz, Initial residual = 0.01866962129266538, Final residual = 0.001624080783982616, No Iterations 4
[OGL LOG][Proc: 0]: global_index_init: 0.09 [ms]
[OGL LOG][Proc: 0]p_local_coeffs: call_update: 0 [ms]
[OGL LOG][Proc: 0]p_non_local_coeffs: call_update: 0 [ms]
[OGL LOG][Proc: 0]p: update_local_matrix_data: 28.951 [ms]
[OGL LOG][Proc: 0]p: update_non_local_matrix_data: 0.48 [ms]
[OGL LOG][Proc: 0]p_matrix: call_update: 2.3 [ms]
[OGL LOG][Proc: 0]p_rhs: call_update: 1.085 [ms]
[OGL LOG][Preconditioner.H:346] Generate preconditioner Multigrid MaxLevels 9 MinCoarseRows 10 ZeroGuess 1 Cycle v
[OGL LOG][Proc: 0]p: init_precond: 291.686 [ms]
[OGL LOG][StoppingCriterion.H:239] Creating stopping criterion with minIter 40 frequency 1
[OGL LOG][Proc: 0]p: generate_solver: 0.008999999999999999 [ms]
[OGL LOG][Proc: 0]p: solve: 381.596 [ms]
[OGL LOG][Proc: 0]p: copy_x_back: 2.334 [ms]
[OGL LOG][lduLduBase.H:330] 
Statistics:
	Time per iteration: 9307 [mu s]
	Time per residual norm calculation: 1258.000000 [mu s]
	Time per iteration and DOF: 1.475630 [ns]
	Retrieve results bandwidth 2.696000 [GByte/s]
[OGL LOG][Proc: 0]p: solve_multi_gpu: 702.021 [ms]
MultigridcudaGKOCG:  Solving for p, Initial residual = 0.2363353902194462, Final residual = 0.001936463688257785, No Iterations 41
time step continuity errors : sum local = 0.001603095433634006, global = -0.0003535082644664191, cumulative = -0.001199955583964317
smoothSolver:  Solving for nuTilda, Initial residual = 0.01489397449601411, Final residual = 0.0009679705956753074, No Iterations 4
ExecutionTime = 161.89 s  ClockTime = 163 s

Time = 31

velocityDampingConstraint velocityDamping damped 0 (0%) of cells, with max limit 300
smoothSolver:  Solving for Ux, Initial residual = 0.00628941984812804, Final residual = 0.0005617866049690136, No Iterations 4
smoothSolver:  Solving for Uy, Initial residual = 0.01796528662013938, Final residual = 0.001648396702585999, No Iterations 4
smoothSolver:  Solving for Uz, Initial residual = 0.0180380167428, Final residual = 0.001597381173882421, No Iterations 4
[OGL LOG][Proc: 0]: global_index_init: 0.018 [ms]
[OGL LOG][Proc: 0]p_local_coeffs: call_update: 0 [ms]
[OGL LOG][Proc: 0]p_non_local_coeffs: call_update: 0 [ms]
[OGL LOG][Proc: 0]p: update_local_matrix_data: 25.209 [ms]
[OGL LOG][Proc: 0]p: update_non_local_matrix_data: 0.493 [ms]
[OGL LOG][Proc: 0]p_matrix: call_update: 2.446 [ms]
[OGL LOG][Proc: 0]p_rhs: call_update: 0.967 [ms]
[OGL LOG][Preconditioner.H:346] Generate preconditioner Multigrid MaxLevels 9 MinCoarseRows 10 ZeroGuess 1 Cycle v
[OGL LOG][Proc: 0]p: init_precond: 300.622 [ms]
[OGL LOG][StoppingCriterion.H:239] Creating stopping criterion with minIter 24 frequency 1
[OGL LOG][Proc: 0]p: generate_solver: 0.008999999999999999 [ms]
[OGL LOG][Proc: 0]p: solve: 301.176 [ms]
[OGL LOG][Proc: 0]p: copy_x_back: 2.173 [ms]
[OGL LOG][lduLduBase.H:330] 
Statistics:
	Time per iteration: 10385 [mu s]
	Time per residual norm calculation: 1270.000000 [mu s]
	Time per iteration and DOF: 1.646548 [ns]
	Retrieve results bandwidth 2.895000 [GByte/s]
[OGL LOG][Proc: 0]p: solve_multi_gpu: 634.082 [ms]
MultigridcudaGKOCG:  Solving for p, Initial residual = 0.2302898296914302, Final residual = 0.002028816814035341, No Iterations 29
time step continuity errors : sum local = 0.001564796827175183, global = 3.684968708235207e-06, cumulative = -0.001196270615256081
smoothSolver:  Solving for nuTilda, Initial residual = 0.02668662922336395, Final residual = 0.001547616195928735, No Iterations 3
ExecutionTime = 165.78 s  ClockTime = 167 s

Time = 32

velocityDampingConstraint velocityDamping damped 0 (0%) of cells, with max limit 300
smoothSolver:  Solving for Ux, Initial residual = 0.006209738051144615, Final residual = 0.0005460716787333934, No Iterations 4
smoothSolver:  Solving for Uy, Initial residual = 0.01688968199149316, Final residual = 0.001552751992906418, No Iterations 4
smoothSolver:  Solving for Uz, Initial residual = 0.01691559240808857, Final residual = 0.001527658559959817, No Iterations 4
[OGL LOG][Proc: 0]: global_index_init: 0.119 [ms]
[OGL LOG][Proc: 0]p_local_coeffs: call_update: 0 [ms]
[OGL LOG][Proc: 0]p_non_local_coeffs: call_update: 0 [ms]
[OGL LOG][Proc: 0]p: update_local_matrix_data: 27.999 [ms]
[OGL LOG][Proc: 0]p: update_non_local_matrix_data: 0.462 [ms]
[OGL LOG][Proc: 0]p_matrix: call_update: 2.461 [ms]
[OGL LOG][Proc: 0]p_rhs: call_update: 0.863 [ms]
[OGL LOG][Preconditioner.H:346] Generate preconditioner Multigrid MaxLevels 9 MinCoarseRows 10 ZeroGuess 1 Cycle v
[OGL LOG][Proc: 0]p: init_precond: 293.155 [ms]
[OGL LOG][StoppingCriterion.H:239] Creating stopping criterion with minIter 17 frequency 1
[OGL LOG][Proc: 0]p: generate_solver: 0.008999999999999999 [ms]
[OGL LOG][Proc: 0]p: solve: 645.754 [ms]
[OGL LOG][Proc: 0]p: copy_x_back: 2.347 [ms]
[OGL LOG][lduLduBase.H:330] 
Statistics:
	Time per iteration: 9638 [mu s]
	Time per residual norm calculation: 1264.000000 [mu s]
	Time per iteration and DOF: 1.528110 [ns]
	Retrieve results bandwidth 2.681000 [GByte/s]
[OGL LOG][Proc: 0]p: solve_multi_gpu: 967.224 [ms]
MultigridcudaGKOCG:  Solving for p, Initial residual = 0.2280460119863284, Final residual = 0.002076097038459531, No Iterations 67
time step continuity errors : sum local = 0.001473503863424161, global = 9.642164306228971e-05, cumulative = -0.001099848972193791
smoothSolver:  Solving for nuTilda, Initial residual = 0.01391324204149566, Final residual = 0.0009280719009237462, No Iterations 4
ExecutionTime = 170.01 s  ClockTime = 171 s

Time = 33

velocityDampingConstraint velocityDamping damped 0 (0%) of cells, with max limit 300
smoothSolver:  Solving for Ux, Initial residual = 0.005860552586169424, Final residual = 0.0005115863720565467, No Iterations 4
smoothSolver:  Solving for Uy, Initial residual = 0.01624233713183806, Final residual = 0.001483374905606183, No Iterations 4
smoothSolver:  Solving for Uz, Initial residual = 0.01628569926825141, Final residual = 0.001470338387096826, No Iterations 4
[OGL LOG][Proc: 0]: global_index_init: 0.017 [ms]
[OGL LOG][Proc: 0]p_local_coeffs: call_update: 0 [ms]
[OGL LOG][Proc: 0]p_non_local_coeffs: call_update: 0 [ms]
[OGL LOG][Proc: 0]p: update_local_matrix_data: 26.147 [ms]
[OGL LOG][Proc: 0]p: update_non_local_matrix_data: 0.502 [ms]
[OGL LOG][Proc: 0]p_matrix: call_update: 2.545 [ms]
[OGL LOG][Proc: 0]p_rhs: call_update: 0.876 [ms]
[OGL LOG][Preconditioner.H:346] Generate preconditioner Multigrid MaxLevels 9 MinCoarseRows 10 ZeroGuess 1 Cycle v
[OGL LOG][Proc: 0]p: init_precond: 288.462 [ms]
[OGL LOG][StoppingCriterion.H:239] Creating stopping criterion with minIter 40 frequency 1
[OGL LOG][Proc: 0]p: generate_solver: 0.008999999999999999 [ms]
[OGL LOG][Proc: 0]p: solve: 606.359 [ms]
[OGL LOG][Proc: 0]p: copy_x_back: 2.236 [ms]
[OGL LOG][lduLduBase.H:330] 
Statistics:
	Time per iteration: 9328 [mu s]
	Time per residual norm calculation: 1408.000000 [mu s]
	Time per iteration and DOF: 1.478960 [ns]
	Retrieve results bandwidth 2.814000 [GByte/s]
[OGL LOG][Proc: 0]p: solve_multi_gpu: 926.389 [ms]
MultigridcudaGKOCG:  Solving for p, Initial residual = 0.1750858209567512, Final residual = 0.001683555048469254, No Iterations 65
time step continuity errors : sum local = 0.001435410032161144, global = -4.885618376109892e-06, cumulative = -0.001104734590569901
smoothSolver:  Solving for nuTilda, Initial residual = 0.02499502514862346, Final residual = 0.00148828951798979, No Iterations 3
ExecutionTime = 174.18 s  ClockTime = 175 s

Time = 34

velocityDampingConstraint velocityDamping damped 0 (0%) of cells, with max limit 300
smoothSolver:  Solving for Ux, Initial residual = 0.005462672011254056, Final residual = 0.0004836357708948268, No Iterations 4
smoothSolver:  Solving for Uy, Initial residual = 0.01617143979197613, Final residual = 0.001486703641281362, No Iterations 4
smoothSolver:  Solving for Uz, Initial residual = 0.01627343302911537, Final residual = 0.001471468784115221, No Iterations 4
[OGL LOG][Proc: 0]: global_index_init: 0.102 [ms]
[OGL LOG][Proc: 0]p_local_coeffs: call_update: 0 [ms]
[OGL LOG][Proc: 0]p_non_local_coeffs: call_update: 0 [ms]
[OGL LOG][Proc: 0]p: update_local_matrix_data: 27.086 [ms]
[OGL LOG][Proc: 0]p: update_non_local_matrix_data: 0.496 [ms]
[...]
smoothSolver:  Solving for nuTilda, Initial residual = 0.006411856523632366, Final residual = 0.0004697658550407871, No Iterations 4
ExecutionTime = 399.37 s  ClockTime = 401 s

Time = 91

velocityDampingConstraint velocityDamping damped 0 (0%) of cells, with max limit 300
smoothSolver:  Solving for Ux, Initial residual = 0.002767050168148592, Final residual = 0.0002701433890969926, No Iterations 4
smoothSolver:  Solving for Uy, Initial residual = 0.01197976719697757, Final residual = 0.001177891991793166, No Iterations 4
smoothSolver:  Solving for Uz, Initial residual = 0.01290013120403915, Final residual = 0.001270881851858128, No Iterations 4
[OGL LOG][Proc: 0]: global_index_init: 0.051 [ms]
[OGL LOG][Proc: 0]p_local_coeffs: call_update: 0 [ms]
[OGL LOG][Proc: 0]p_non_local_coeffs: call_update: 0 [ms]
[OGL LOG][Proc: 0]p: update_local_matrix_data: 25.166 [ms]
[OGL LOG][Proc: 0]p: update_non_local_matrix_data: 0.459 [ms]
[OGL LOG][Proc: 0]p_matrix: call_update: 2.379 [ms]
[OGL LOG][Proc: 0]p_rhs: call_update: 0.832 [ms]
[OGL LOG][Preconditioner.H:346] Generate preconditioner Multigrid MaxLevels 9 MinCoarseRows 10 ZeroGuess 1 Cycle v
[OGL LOG][Proc: 0]p: init_precond: 305.549 [ms]
[OGL LOG][StoppingCriterion.H:239] Creating stopping criterion with minIter 29 frequency 1
[OGL LOG][Proc: 0]p: generate_solver: 0.008999999999999999 [ms]
[OGL LOG][Proc: 0]p: solve: 276.984 [ms]
[OGL LOG][Proc: 0]p: copy_x_back: 2.08 [ms]
[OGL LOG][lduLduBase.H:330] 
Statistics:
	Time per iteration: 9232 [mu s]
	Time per residual norm calculation: 1268.000000 [mu s]
	Time per iteration and DOF: 1.463739 [ns]
	Retrieve results bandwidth 3.025000 [GByte/s]
[OGL LOG][Proc: 0]p: solve_multi_gpu: 613.069 [ms]
MultigridcudaGKOCG:  Solving for p, Initial residual = 0.04414306266808529, Final residual = 0.0003213017154720495, No Iterations 30
time step continuity errors : sum local = 0.0002442976752651042, global = 4.505809874637399e-05, cumulative = -0.001524343255346496
smoothSolver:  Solving for nuTilda, Initial residual = 0.009462131637337343, Final residual = 0.0008213245154551272, No Iterations 3
ExecutionTime = 403.22 s  ClockTime = 405 s

Time = 92

velocityDampingConstraint velocityDamping damped 0 (0%) of cells, with max limit 300
smoothSolver:  Solving for Ux, Initial residual = 0.002725416483137104, Final residual = 0.0002678391613873616, No Iterations 4
smoothSolver:  Solving for Uy, Initial residual = 0.01203328146041913, Final residual = 0.001184445926610651, No Iterations 4
smoothSolver:  Solving for Uz, Initial residual = 0.01294674395141386, Final residual = 0.001277802178879316, No Iterations 4
[OGL LOG][Proc: 0]: global_index_init: 0.018 [ms]
[OGL LOG][Proc: 0]p_local_coeffs: call_update: 0 [ms]
[OGL LOG][Proc: 0]p_non_local_coeffs: call_update: 0 [ms]
[OGL LOG][Proc: 0]p: update_local_matrix_data: 28.979 [ms]
[OGL LOG][Proc: 0]p: update_non_local_matrix_data: 0.439 [ms]
[OGL LOG][Proc: 0]p_matrix: call_update: 2.571 [ms]
[OGL LOG][Proc: 0]p_rhs: call_update: 0.819 [ms]
[OGL LOG][Preconditioner.H:346] Generate preconditioner Multigrid MaxLevels 9 MinCoarseRows 10 ZeroGuess 1 Cycle v
[OGL LOG][Proc: 0]p: init_precond: 306.479 [ms]
[OGL LOG][StoppingCriterion.H:239] Creating stopping criterion with minIter 18 frequency 1
[OGL LOG][Proc: 0]p: generate_solver: 0.008999999999999999 [ms]
[OGL LOG][Proc: 0]p: solve: 197.612 [ms]
[OGL LOG][Proc: 0]p: copy_x_back: 2.084 [ms]
[OGL LOG][lduLduBase.H:330] 
Statistics:
	Time per iteration: 10400 [mu s]
	Time per residual norm calculation: 1121.000000 [mu s]
	Time per iteration and DOF: 1.648926 [ns]
	Retrieve results bandwidth 3.019000 [GByte/s]
[OGL LOG][Proc: 0]p: solve_multi_gpu: 529.729 [ms]
MultigridcudaGKOCG:  Solving for p, Initial residual = 0.04368278685350652, Final residual = 0.0003336954720313303, No Iterations 19
time step continuity errors : sum local = 0.0002546230742930372, global = -1.540198575561513e-05, cumulative = -0.001539745241102111
smoothSolver:  Solving for nuTilda, Initial residual = 0.006355198617944775, Final residual = 0.0004680713821526297, No Iterations 4
ExecutionTime = 407 s  ClockTime = 409 s

Time = 93

velocityDampingConstraint velocityDamping damped 0 (0%) of cells, with max limit 300
smoothSolver:  Solving for Ux, Initial residual = 0.00272747557188103, Final residual = 0.0002665420590239046, No Iterations 4
smoothSolver:  Solving for Uy, Initial residual = 0.01207915952348944, Final residual = 0.001190372221035412, No Iterations 4
smoothSolver:  Solving for Uz, Initial residual = 0.01296872969330047, Final residual = 0.001281089319999307, No Iterations 4
[OGL LOG][Proc: 0]: global_index_init: 0.016 [ms]
[OGL LOG][Proc: 0]p_local_coeffs: call_update: 0 [ms]
[OGL LOG][Proc: 0]p_non_local_coeffs: call_update: 0 [ms]
[OGL LOG][Proc: 0]p: update_local_matrix_data: 25.717 [ms]
[OGL LOG][Proc: 0]p: update_non_local_matrix_data: 0.417 [ms]
[OGL LOG][Proc: 0]p_matrix: call_update: 2.446 [ms]
[OGL LOG][Proc: 0]p_rhs: call_update: 0.956 [ms]
[OGL LOG][Preconditioner.H:346] Generate preconditioner Multigrid MaxLevels 9 MinCoarseRows 10 ZeroGuess 1 Cycle v
[OGL LOG][Proc: 0]p: init_precond: 294.615 [ms]
[OGL LOG][StoppingCriterion.H:239] Creating stopping criterion with minIter 11 frequency 1
[OGL LOG][Proc: 0]p: generate_solver: 0.008999999999999999 [ms]
[OGL LOG][Proc: 0]p: solve: 265.239 [ms]
[OGL LOG][Proc: 0]p: copy_x_back: 2.049 [ms]
[OGL LOG][lduLduBase.H:330] 
Statistics:
	Time per iteration: 11051 [mu s]
	Time per residual norm calculation: 1412.000000 [mu s]
	Time per iteration and DOF: 1.752142 [ns]
	Retrieve results bandwidth 3.071000 [GByte/s]
[OGL LOG][Proc: 0]p: solve_multi_gpu: 590.557 [ms]
MultigridcudaGKOCG:  Solving for p, Initial residual = 0.04329213319088009, Final residual = 0.0003965251946222728, No Iterations 24
time step continuity errors : sum local = 0.0003012383117017442, global = -9.050250454929515e-05, cumulative = -0.001630247745651406
smoothSolver:  Solving for nuTilda, Initial residual = 0.009256173979356451, Final residual = 0.0008190200373869707, No Iterations 3
ExecutionTime = 410.82 s  ClockTime = 413 s

Time = 94

velocityDampingConstraint velocityDamping damped 0 (0%) of cells, with max limit 300
smoothSolver:  Solving for Ux, Initial residual = 0.002694462568511184, Final residual = 0.0002646359548891044, No Iterations 4
smoothSolver:  Solving for Uy, Initial residual = 0.012118766709328, Final residual = 0.001195399883509484, No Iterations 4
smoothSolver:  Solving for Uz, Initial residual = 0.01298378459532126, Final residual = 0.0012821332887434, No Iterations 4
[OGL LOG][Proc: 0]: global_index_init: 0.022 [ms]
[OGL LOG][Proc: 0]p_local_coeffs: call_update: 0 [ms]
[OGL LOG][Proc: 0]p_non_local_coeffs: call_update: 0 [ms]
[OGL LOG][Proc: 0]p: update_local_matrix_data: 28.865 [ms]
[OGL LOG][Proc: 0]p: update_non_local_matrix_data: 0.446 [ms]
[OGL LOG][Proc: 0]p_matrix: call_update: 2.572 [ms]
[OGL LOG][Proc: 0]p_rhs: call_update: 0.89 [ms]
[OGL LOG][Preconditioner.H:346] Generate preconditioner Multigrid MaxLevels 9 MinCoarseRows 10 ZeroGuess 1 Cycle v
[OGL LOG][Proc: 0]p: init_precond: 279.294 [ms]
[OGL LOG][StoppingCriterion.H:239] Creating stopping criterion with minIter 14 frequency 1
[OGL LOG][Proc: 0]p: generate_solver: 0.008999999999999999 [ms]
[OGL LOG][Proc: 0]p: solve: 489.493 [ms]
[OGL LOG][Proc: 0]p: copy_x_back: 2.167 [ms]
[OGL LOG][lduLduBase.H:330] 
Statistics:
	Time per iteration: 9989 [mu s]
	Time per residual norm calculation: 1115.000000 [mu s]
	Time per iteration and DOF: 1.583762 [ns]
	Retrieve results bandwidth 2.903000 [GByte/s]
[OGL LOG][Proc: 0]p: solve_multi_gpu: 794.428 [ms]
MultigridcudaGKOCG:  Solving for p, Initial residual = 0.04317250677207113, Final residual = 0.0004163604699138114, No Iterations 49
time step continuity errors : sum local = 0.0003140684806841032, global = -1.44758563239717e-05, cumulative = -0.001644723601975378
smoothSolver:  Solving for nuTilda, Initial residual = 0.006288772571662504, Final residual = 0.0004656117500058639, No Iterations 4
ExecutionTime = 414.85 s  ClockTime = 417 s

Time = 95

velocityDampingConstraint velocityDamping damped 0 (0%) of cells, with max limit 300
smoothSolver:  Solving for Ux, Initial residual = 0.002713644452290171, Final residual = 0.0002652447361015448, No Iterations 4
smoothSolver:  Solving for Uy, Initial residual = 0.01214668804296813, Final residual = 0.001197368488851343, No Iterations 4
smoothSolver:  Solving for Uz, Initial residual = 0.0129941267595597, Final residual = 0.001280111165358494, No Iterations 4
[OGL LOG][Proc: 0]: global_index_init: 0.122 [ms]
[OGL LOG][Proc: 0]p_local_coeffs: call_update: 0 [ms]
[OGL LOG][Proc: 0]p_non_local_coeffs: call_update: 0 [ms]
[OGL LOG][Proc: 0]p: update_local_matrix_data: 25.264 [ms]
[OGL LOG][Proc: 0]p: update_non_local_matrix_data: 0.476 [ms]
[OGL LOG][Proc: 0]p_matrix: call_update: 2.473 [ms]
[OGL LOG][Proc: 0]p_rhs: call_update: 0.957 [ms]
[OGL LOG][Preconditioner.H:346] Generate preconditioner Multigrid MaxLevels 9 MinCoarseRows 10 ZeroGuess 1 Cycle v
[OGL LOG][Proc: 0]p: init_precond: 317.486 [ms]
[OGL LOG][StoppingCriterion.H:239] Creating stopping criterion with minIter 29 frequency 1
[OGL LOG][Proc: 0]p: generate_solver: 0.008999999999999999 [ms]
[OGL LOG][Proc: 0]p: solve: 273.944 [ms]
[OGL LOG][Proc: 0]p: copy_x_back: 2.003 [ms]
[OGL LOG][lduLduBase.H:330] 
Statistics:
	Time per iteration: 9131 [mu s]
	Time per residual norm calculation: 1121.000000 [mu s]
	Time per iteration and DOF: 1.447725 [ns]
	Retrieve results bandwidth 3.141000 [GByte/s]
[OGL LOG][Proc: 0]p: solve_multi_gpu: 620.419 [ms]
MultigridcudaGKOCG:  Solving for p, Initial residual = 0.04651512319612532, Final residual = 0.0002909342730001613, No Iterations 30
time step continuity errors : sum local = 0.0002013998682214524, global = 4.089765989174707e-05, cumulative = -0.001603825942083631
smoothSolver:  Solving for nuTilda, Initial residual = 0.009046670214773289, Final residual = 0.0008146916176005824, No Iterations 3
ExecutionTime = 418.69 s  ClockTime = 421 s

Time = 96

velocityDampingConstraint velocityDamping damped 0 (0%) of cells, with max limit 300
smoothSolver:  Solving for Ux, Initial residual = 0.002705474788944174, Final residual = 0.0002646295630302196, No Iterations 4
smoothSolver:  Solving for Uy, Initial residual = 0.01217185953864362, Final residual = 0.001198061008108743, No Iterations 4
smoothSolver:  Solving for Uz, Initial residual = 0.01299622228428637, Final residual = 0.001277969526902103, No Iterations 4
[OGL LOG][Proc: 0]: global_index_init: 0.017 [ms]
[OGL LOG][Proc: 0]p_local_coeffs: call_update: 0 [ms]
[OGL LOG][Proc: 0]p_non_local_coeffs: call_update: 0 [ms]
[OGL LOG][Proc: 0]p: update_local_matrix_data: 29.306 [ms]
[OGL LOG][Proc: 0]p: update_non_local_matrix_data: 0.53 [ms]
[OGL LOG][Proc: 0]p_matrix: call_update: 2.134 [ms]
[OGL LOG][Proc: 0]p_rhs: call_update: 1.243 [ms]
[OGL LOG][Preconditioner.H:346] Generate preconditioner Multigrid MaxLevels 9 MinCoarseRows 10 ZeroGuess 1 Cycle v
[OGL LOG][Proc: 0]p: init_precond: 303.261 [ms]
[OGL LOG][StoppingCriterion.H:239] Creating stopping criterion with minIter 18 frequency 1
[OGL LOG][Proc: 0]p: generate_solver: 0.008 [ms]
[OGL LOG][Proc: 0]p: solve: 472.104 [ms]
[OGL LOG][Proc: 0]p: copy_x_back: 2.155 [ms]
[OGL LOG][lduLduBase.H:330] 
Statistics:
	Time per iteration: 9634 [mu s]
	Time per residual norm calculation: 1261.000000 [mu s]
	Time per iteration and DOF: 1.527476 [ns]
	Retrieve results bandwidth 2.920000 [GByte/s]
[OGL LOG][Proc: 0]p: solve_multi_gpu: 801.706 [ms]
MultigridcudaGKOCG:  Solving for p, Initial residual = 0.04597968279147153, Final residual = 0.0004438361131928872, No Iterations 49
time step continuity errors : sum local = 0.0003061342219759311, global = -7.494639628056182e-06, cumulative = -0.001611320581711687
smoothSolver:  Solving for nuTilda, Initial residual = 0.006210886460683222, Final residual = 0.0004617082966517756, No Iterations 4
ExecutionTime = 422.75 s  ClockTime = 425 s

Time = 97

velocityDampingConstraint velocityDamping damped 0 (0%) of cells, with max limit 300
smoothSolver:  Solving for Ux, Initial residual = 0.002691900717165368, Final residual = 0.0002626687538229523, No Iterations 4
smoothSolver:  Solving for Uy, Initial residual = 0.01217883183292049, Final residual = 0.001196646119664745, No Iterations 4
smoothSolver:  Solving for Uz, Initial residual = 0.01295593824094172, Final residual = 0.001272825177207376, No Iterations 4
[OGL LOG][Proc: 0]: global_index_init: 0.077 [ms]
[OGL LOG][Proc: 0]p_local_coeffs: call_update: 0 [ms]
[OGL LOG][Proc: 0]p_non_local_coeffs: call_update: 0 [ms]
[OGL LOG][Proc: 0]p: update_local_matrix_data: 25.156 [ms]
[OGL LOG][Proc: 0]p: update_non_local_matrix_data: 0.452 [ms]
[OGL LOG][Proc: 0]p_matrix: call_update: 2.53 [ms]
[OGL LOG][Proc: 0]p_rhs: call_update: 0.853 [ms]
[OGL LOG][Preconditioner.H:346] Generate preconditioner Multigrid MaxLevels 9 MinCoarseRows 10 ZeroGuess 1 Cycle v
[OGL LOG][Proc: 0]p: init_precond: 304.941 [ms]
[OGL LOG][StoppingCriterion.H:239] Creating stopping criterion with minIter 29 frequency 1
[OGL LOG][Proc: 0]p: generate_solver: 0.008999999999999999 [ms]
[OGL LOG][Proc: 0]p: solve: 276.527 [ms]
[OGL LOG][Proc: 0]p: copy_x_back: 2.197 [ms]
[OGL LOG][lduLduBase.H:330] 
Statistics:
	Time per iteration: 9217 [mu s]
	Time per residual norm calculation: 1266.000000 [mu s]
	Time per iteration and DOF: 1.461361 [ns]
	Retrieve results bandwidth 2.864000 [GByte/s]
[OGL LOG][Proc: 0]p: solve_multi_gpu: 613.158 [ms]
MultigridcudaGKOCG:  Solving for p, Initial residual = 0.04172666849900195, Final residual = 0.0004065745194863587, No Iterations 30
time step continuity errors : sum local = 0.0003036726345538368, global = 6.134610582519876e-05, cumulative = -0.001549974475886488
smoothSolver:  Solving for nuTilda, Initial residual = 0.008838082763827672, Final residual = 0.000808394451075716, No Iterations 3
ExecutionTime = 426.59 s  ClockTime = 428 s

Time = 98

velocityDampingConstraint velocityDamping damped 0 (0%) of cells, with max limit 300
smoothSolver:  Solving for Ux, Initial residual = 0.002646653245433086, Final residual = 0.0002598627465853595, No Iterations 4
smoothSolver:  Solving for Uy, Initial residual = 0.01218178075718011, Final residual = 0.001195087596479807, No Iterations 4
smoothSolver:  Solving for Uz, Initial residual = 0.01289759112892648, Final residual = 0.001266551700849477, No Iterations 4
[OGL LOG][Proc: 0]: global_index_init: 0.019 [ms]
[OGL LOG][Proc: 0]p_local_coeffs: call_update: 0 [ms]
[OGL LOG][Proc: 0]p_non_local_coeffs: call_update: 0 [ms]
[OGL LOG][Proc: 0]p: update_local_matrix_data: 29.245 [ms]
[OGL LOG][Proc: 0]p: update_non_local_matrix_data: 0.446 [ms]
[OGL LOG][Proc: 0]p_matrix: call_update: 2.242 [ms]
[OGL LOG][Proc: 0]p_rhs: call_update: 1.196 [ms]
[OGL LOG][Preconditioner.H:346] Generate preconditioner Multigrid MaxLevels 9 MinCoarseRows 10 ZeroGuess 1 Cycle v
[OGL LOG][Proc: 0]p: init_precond: 298.675 [ms]
[OGL LOG][StoppingCriterion.H:239] Creating stopping criterion with minIter 18 frequency 1
[OGL LOG][Proc: 0]p: generate_solver: 0.008999999999999999 [ms]
[OGL LOG][Proc: 0]p: solve: 214.62 [ms]
[OGL LOG][Proc: 0]p: copy_x_back: 2.139 [ms]
[OGL LOG][lduLduBase.H:330] 
Statistics:
	Time per iteration: 11295 [mu s]
	Time per residual norm calculation: 1265.000000 [mu s]
	Time per iteration and DOF: 1.790829 [ns]
	Retrieve results bandwidth 2.941000 [GByte/s]
[OGL LOG][Proc: 0]p: solve_multi_gpu: 540.866 [ms]
MultigridcudaGKOCG:  Solving for p, Initial residual = 0.04129737493520646, Final residual = 0.0003618395902537095, No Iterations 19
time step continuity errors : sum local = 0.0002704165258086874, global = 2.243930706096434e-05, cumulative = -0.001527535168825524
smoothSolver:  Solving for nuTilda, Initial residual = 0.006125359559864227, Final residual = 0.0004571747475585142, No Iterations 4
ExecutionTime = 430.37 s  ClockTime = 432 s

Time = 99

velocityDampingConstraint velocityDamping damped 0 (0%) of cells, with max limit 300
smoothSolver:  Solving for Ux, Initial residual = 0.002644835947242464, Final residual = 0.0002580552335216582, No Iterations 4
smoothSolver:  Solving for Uy, Initial residual = 0.01218157597603541, Final residual = 0.001193785591146167, No Iterations 4
smoothSolver:  Solving for Uz, Initial residual = 0.01282584955921486, Final residual = 0.001258767384308484, No Iterations 4
[OGL LOG][Proc: 0]: global_index_init: 0.195 [ms]
[OGL LOG][Proc: 0]p_local_coeffs: call_update: 0 [ms]
[OGL LOG][Proc: 0]p_non_local_coeffs: call_update: 0 [ms]
[OGL LOG][Proc: 0]p: update_local_matrix_data: 25.35 [ms]
[OGL LOG][Proc: 0]p: update_non_local_matrix_data: 0.443 [ms]
[OGL LOG][Proc: 0]p_matrix: call_update: 2.138 [ms]
[OGL LOG][Proc: 0]p_rhs: call_update: 1.037 [ms]
[OGL LOG][Preconditioner.H:346] Generate preconditioner Multigrid MaxLevels 9 MinCoarseRows 10 ZeroGuess 1 Cycle v
[OGL LOG][Proc: 0]p: init_precond: 319.274 [ms]
[OGL LOG][StoppingCriterion.H:239] Creating stopping criterion with minIter 11 frequency 1
[OGL LOG][Proc: 0]p: generate_solver: 0.008999999999999999 [ms]
[OGL LOG][Proc: 0]p: solve: 243.902 [ms]
[OGL LOG][Proc: 0]p: copy_x_back: 2.214 [ms]
[OGL LOG][lduLduBase.H:330] 
Statistics:
	Time per iteration: 10162 [mu s]
	Time per residual norm calculation: 1265.000000 [mu s]
	Time per iteration and DOF: 1.611191 [ns]
	Retrieve results bandwidth 2.842000 [GByte/s]
[OGL LOG][Proc: 0]p: solve_multi_gpu: 595.295 [ms]
MultigridcudaGKOCG:  Solving for p, Initial residual = 0.0407125699544832, Final residual = 0.0003541106568172571, No Iterations 24
time step continuity errors : sum local = 0.000263498941747634, global = -4.34899267595146e-05, cumulative = -0.001571025095585039
smoothSolver:  Solving for nuTilda, Initial residual = 0.008630628666689998, Final residual = 0.0008012887750527671, No Iterations 3
ExecutionTime = 434.2 s  ClockTime = 436 s

Time = 100

velocityDampingConstraint velocityDamping damped 0 (0%) of cells, with max limit 300
smoothSolver:  Solving for Ux, Initial residual = 0.002607328834140718, Final residual = 0.0002556406245931791, No Iterations 4
smoothSolver:  Solving for Uy, Initial residual = 0.01218150998575293, Final residual = 0.001193675937793732, No Iterations 4
smoothSolver:  Solving for Uz, Initial residual = 0.01276351606368342, Final residual = 0.001252116336941424, No Iterations 4
[OGL LOG][Proc: 0]: global_index_init: 0.016 [ms]
[OGL LOG][Proc: 0]p_local_coeffs: call_update: 0 [ms]
[OGL LOG][Proc: 0]p_non_local_coeffs: call_update: 0 [ms]
[OGL LOG][Proc: 0]p: update_local_matrix_data: 29.143 [ms]
[OGL LOG][Proc: 0]p: update_non_local_matrix_data: 0.466 [ms]
[OGL LOG][Proc: 0]p_matrix: call_update: 2.615 [ms]
[OGL LOG][Proc: 0]p_rhs: call_update: 0.79 [ms]
[OGL LOG][Preconditioner.H:346] Generate preconditioner Multigrid MaxLevels 9 MinCoarseRows 10 ZeroGuess 1 Cycle v
[OGL LOG][Proc: 0]p: init_precond: 300.688 [ms]
[OGL LOG][StoppingCriterion.H:239] Creating stopping criterion with minIter 14 frequency 1
[OGL LOG][Proc: 0]p: generate_solver: 0.008999999999999999 [ms]
[OGL LOG][Proc: 0]p: solve: 545.21 [ms]
[OGL LOG][Proc: 0]p: copy_x_back: 2.247 [ms]
[OGL LOG][lduLduBase.H:330] 
Statistics:
	Time per iteration: 9565 [mu s]
	Time per residual norm calculation: 1264.000000 [mu s]
	Time per iteration and DOF: 1.516536 [ns]
	Retrieve results bandwidth 2.800000 [GByte/s]
[OGL LOG][Proc: 0]p: solve_multi_gpu: 874.41 [ms]
MultigridcudaGKOCG:  Solving for p, Initial residual = 0.04033412351167718, Final residual = 0.0003846787713923181, No Iterations 57
time step continuity errors : sum local = 0.0002854587632716338, global = -1.376208421445845e-05, cumulative = -0.001584787179799497
smoothSolver:  Solving for nuTilda, Initial residual = 0.00603209851581389, Final residual = 0.0004528242653834892, No Iterations 4
ExecutionTime = 438.36 s  ClockTime = 440 s

End

Finalising parallel run
