/*---------------------------------------------------------------------------*\
| =========                 |                                                 |
| \\      /  F ield         | OpenFOAM: The Open Source CFD Toolbox           |
|  \\    /   O peration     | Version:  2306                                  |
|   \\  /    A nd           | Website:  www.openfoam.com                      |
|    \\/     M anipulation  |                                                 |
\*---------------------------------------------------------------------------*/
Build  : a6e826bd55-20230630 OPENFOAM=2306 version=v2306
Arch   : "LSB;label=32;scalar=64"
Exec   : icoFoam -parallel -case /tmp/lidDrivenCavity/workspace/a5211938cd8725ffadbb9d34ddda5375/case
Date   : Jan 09 2024
Time   : 21:24:03
Host   : nla-gpu2.ianm.kit.edu
PID    : 398482
I/O    : uncollated
Case   : /tmp/lidDrivenCavity/workspace/a5211938cd8725ffadbb9d34ddda5375/case
nProcs : 32
Hosts  :
(
    (nla-gpu2.ianm.kit.edu 32)
)
Pstream initialized with:
    floatTransfer      : false
    nProcsSimpleSum    : 0
    nonBlockingExchange: 0 (tuning: 0)
    exchange algorithm : -1
    commsType          : nonBlocking
    polling iterations : 0
trapFpe: Floating point exception trapping enabled (FOAM_SIGFPE).
fileModificationChecking : Monitoring run-time modified files using timeStampMaster (fileModificationSkew 5, maxFileModificationPolls 20)
allowSystemOperations : Allowing user-supplied system call operations

// * * * * * * * * * * * * * * * * * * * * * * * * * * * * * * * * * * * * * //
Create time

--> FOAM Warning : 
    From void* Foam::dlLibraryTable::openLibrary(const Foam::fileName&, bool)
    in file db/dynamicLibrary/dlLibraryTable/dlLibraryTable.C at line 188
    Could not load "libpetscFoam.so"
libpetscFoam.so: cannot open shared object file: No such file or directory
Create mesh for time = 0


PISO: Operating solver in PISO mode

Reading transportProperties

Reading field p

Reading field U

Reading/calculating face flux field phi


Starting time loop

Time = 0.0005

Courant Number mean: 8.62851e-18 max: 8.67362e-15
[INFO] MatrixAssemblyU: 6.633 [ms]
DILUPBiCGStab:  Solving for Ux, Initial residual = 1, Final residual = 0.00283431, No Iterations 5
DILUPBiCGStab:  Solving for Uy:  solution singularity
DILUPBiCGStab:  Solving for Uz:  solution singularity
[INFO] MomentumPredictor: 24.779 [ms]
[INFO] MatrixAssemblyPI: 5.528 [ms]
[INFO] AdjustPhi: 0.468 [ms]
[INFO] ConstrainPressure: 0.008 [ms]
[INFO] MatrixAssemblyPII: 1.688 [ms]
nonePCG:  Solving for p, Initial residual = 1, Final residual = 9.9724e-05, No Iterations 792
[INFO] SolveP: 499.586 [ms]
time step continuity errors : sum local = 2.1426e-08, global = 8.98604e-21, cumulative = 8.98604e-21
[INFO] ContinuityError: 1.196 [ms]
[INFO] CorrectBoundary: 0.274 [ms]
[INFO] PISOStep: 511.417 [ms]
[INFO] MatrixAssemblyPI: 5.121 [ms]
[INFO] AdjustPhi: 0.903 [ms]
[INFO] ConstrainPressure: 0.002 [ms]
[INFO] MatrixAssemblyPII: 1.44 [ms]
nonePCG:  Solving for p, Initial residual = 0.731148, Final residual = 9.88295e-05, No Iterations 781
[INFO] SolveP: 461.812 [ms]
time step continuity errors : sum local = 2.80376e-08, global = 9.93392e-22, cumulative = 9.97943e-21
[INFO] ContinuityError: 0.945 [ms]
[INFO] CorrectBoundary: 0.043 [ms]
[INFO] PISOStep: 474.248 [ms]
[INFO] TimeStep: 1018.38 [ms]
ExecutionTime = 1.39 s  ClockTime = 1 s

Time = 0.001

Courant Number mean: 0.0215183 max: 0.377124
[INFO] MatrixAssemblyU: 4.348 [ms]
DILUPBiCGStab:  Solving for Ux, Initial residual = 0.150306, Final residual = 0.00140866, No Iterations 5
DILUPBiCGStab:  Solving for Uy, Initial residual = 0.368268, Final residual = 0.0028708, No Iterations 5
DILUPBiCGStab:  Solving for Uz, Initial residual = 0.986407, Final residual = 0.00765832, No Iterations 5
[INFO] MomentumPredictor: 49.014 [ms]
[INFO] MatrixAssemblyPI: 4.986 [ms]
[INFO] AdjustPhi: 2.043 [ms]
[INFO] ConstrainPressure: 0.002 [ms]
[INFO] MatrixAssemblyPII: 1.434 [ms]
nonePCG:  Solving for p, Initial residual = 0.693038, Final residual = 9.3771e-05, No Iterations 776
[INFO] SolveP: 459.809 [ms]
time step continuity errors : sum local = 2.99979e-08, global = 5.64843e-21, cumulative = 1.56279e-20
[INFO] ContinuityError: 1.287 [ms]
[INFO] CorrectBoundary: 0.275 [ms]
[INFO] PISOStep: 473.239 [ms]
[INFO] MatrixAssemblyPI: 5.821 [ms]
[INFO] AdjustPhi: 2.566 [ms]
[INFO] ConstrainPressure: 0.001 [ms]
[INFO] MatrixAssemblyPII: 1.554 [ms]
nonePCG:  Solving for p, Initial residual = 0.622434, Final residual = 9.35053e-05, No Iterations 774
[INFO] SolveP: 455.664 [ms]
time step continuity errors : sum local = 3.05119e-08, global = -4.90596e-22, cumulative = 1.51373e-20
[INFO] ContinuityError: 1.094 [ms]
[INFO] CorrectBoundary: 0.126 [ms]
[INFO] PISOStep: 470.32 [ms]
[INFO] TimeStep: 997.831 [ms]
ExecutionTime = 2.39 s  ClockTime = 2 s

Time = 0.0015

Courant Number mean: 0.0324754 max: 0.441214
[INFO] MatrixAssemblyU: 4.108 [ms]
DILUPBiCGStab:  Solving for Ux, Initial residual = 0.0531326, Final residual = 0.000432442, No Iterations 5
DILUPBiCGStab:  Solving for Uy, Initial residual = 0.124793, Final residual = 0.000734733, No Iterations 5
DILUPBiCGStab:  Solving for Uz, Initial residual = 0.579806, Final residual = 0.00404719, No Iterations 5
[INFO] MomentumPredictor: 41.42 [ms]
[INFO] MatrixAssemblyPI: 5.134 [ms]
[INFO] AdjustPhi: 0.585 [ms]
[INFO] ConstrainPressure: 0.002 [ms]
[INFO] MatrixAssemblyPII: 1.631 [ms]
nonePCG:  Solving for p, Initial residual = 0.633389, Final residual = 9.64095e-05, No Iterations 768
[INFO] SolveP: 452.736 [ms]
time step continuity errors : sum local = 2.21433e-08, global = -3.66958e-21, cumulative = 1.14677e-20
[INFO] ContinuityError: 1.339 [ms]
[INFO] CorrectBoundary: 0.269 [ms]
[INFO] PISOStep: 464.337 [ms]
[INFO] MatrixAssemblyPI: 5.043 [ms]
[INFO] AdjustPhi: 2.418 [ms]
[INFO] ConstrainPressure: 0.001 [ms]
[INFO] MatrixAssemblyPII: 1.473 [ms]
nonePCG:  Solving for p, Initial residual = 0.580764, Final residual = 9.90752e-05, No Iterations 766
[INFO] SolveP: 449.872 [ms]
time step continuity errors : sum local = 2.21471e-08, global = 3.27326e-21, cumulative = 1.47409e-20
[INFO] ContinuityError: 1 [ms]
[INFO] CorrectBoundary: 0.041 [ms]
[INFO] PISOStep: 463.639 [ms]
[INFO] TimeStep: 974.62 [ms]
ExecutionTime = 3.36 s  ClockTime = 3 s

Time = 0.002

Courant Number mean: 0.0388747 max: 0.452908
[INFO] MatrixAssemblyU: 4.295 [ms]
DILUPBiCGStab:  Solving for Ux, Initial residual = 0.031917, Final residual = 0.000229002, No Iterations 5
DILUPBiCGStab:  Solving for Uy, Initial residual = 0.0814103, Final residual = 0.000474783, No Iterations 5
DILUPBiCGStab:  Solving for Uz, Initial residual = 0.279792, Final residual = 0.00157869, No Iterations 5
[INFO] MomentumPredictor: 39.98 [ms]
[INFO] MatrixAssemblyPI: 5.131 [ms]
[INFO] AdjustPhi: 0.505 [ms]
[INFO] ConstrainPressure: 0.001 [ms]
[INFO] MatrixAssemblyPII: 1.643 [ms]
nonePCG:  Solving for p, Initial residual = 0.414393, Final residual = 9.84333e-05, No Iterations 761
[INFO] SolveP: 441.978 [ms]
time step continuity errors : sum local = 1.93157e-08, global = -1.12891e-21, cumulative = 1.3612e-20
[INFO] ContinuityError: 1.205 [ms]
[INFO] CorrectBoundary: 0.332 [ms]
[INFO] PISOStep: 453.188 [ms]
[INFO] MatrixAssemblyPI: 4.739 [ms]
[INFO] AdjustPhi: 1.087 [ms]
[INFO] ConstrainPressure: 0.001 [ms]
[INFO] MatrixAssemblyPII: 1.634 [ms]
nonePCG:  Solving for p, Initial residual = 0.35246, Final residual = 9.78553e-05, No Iterations 758
[INFO] SolveP: 447.706 [ms]
time step continuity errors : sum local = 1.93931e-08, global = -6.29426e-22, cumulative = 1.29826e-20
[INFO] ContinuityError: 1.294 [ms]
[INFO] CorrectBoundary: 0.252 [ms]
[INFO] PISOStep: 459.45 [ms]
[INFO] TimeStep: 957.839 [ms]
ExecutionTime = 4.32 s  ClockTime = 4 s

Time = 0.0025

Courant Number mean: 0.0439274 max: 0.459589
[INFO] MatrixAssemblyU: 2.898 [ms]
DILUPBiCGStab:  Solving for Ux, Initial residual = 0.0235244, Final residual = 0.000146232, No Iterations 5
DILUPBiCGStab:  Solving for Uy, Initial residual = 0.0515452, Final residual = 0.000276606, No Iterations 5
DILUPBiCGStab:  Solving for Uz, Initial residual = 0.100816, Final residual = 0.000574434, No Iterations 5
[INFO] MomentumPredictor: 44.555 [ms]
[INFO] MatrixAssemblyPI: 4.959 [ms]
[INFO] AdjustPhi: 2.16 [ms]
[INFO] ConstrainPressure: 0.002 [ms]
[INFO] MatrixAssemblyPII: 1.643 [ms]
nonePCG:  Solving for p, Initial residual = 0.31587, Final residual = 9.75253e-05, No Iterations 728
[INFO] SolveP: 431.693 [ms]
time step continuity errors : sum local = 1.57748e-08, global = -2.95126e-21, cumulative = 1.00313e-20
[INFO] ContinuityError: 1.136 [ms]
[INFO] CorrectBoundary: 0.042 [ms]
[INFO] PISOStep: 445.663 [ms]
[INFO] MatrixAssemblyPI: 5.439 [ms]
[INFO] AdjustPhi: 0.743 [ms]
[INFO] ConstrainPressure: 0.002 [ms]
[INFO] MatrixAssemblyPII: 1.848 [ms]
nonePCG:  Solving for p, Initial residual = 0.27024, Final residual = 9.91626e-05, No Iterations 363
[INFO] SolveP: 213.926 [ms]
time step continuity errors : sum local = 1.82824e-08, global = -1.40083e-21, cumulative = 8.63051e-21
[INFO] ContinuityError: 1.246 [ms]
[INFO] CorrectBoundary: 0.254 [ms]
[INFO] PISOStep: 226.188 [ms]
[INFO] TimeStep: 720.275 [ms]
ExecutionTime = 5.03 s  ClockTime = 5 s

Time = 0.003

Courant Number mean: 0.0479684 max: 0.463832
[INFO] MatrixAssemblyU: 3.792 [ms]
DILUPBiCGStab:  Solving for Ux, Initial residual = 0.0178943, Final residual = 0.000103852, No Iterations 5
DILUPBiCGStab:  Solving for Uy, Initial residual = 0.0401871, Final residual = 0.000165513, No Iterations 5
DILUPBiCGStab:  Solving for Uz, Initial residual = 0.0884768, Final residual = 0.000522715, No Iterations 5
[INFO] MomentumPredictor: 42.054 [ms]
[INFO] MatrixAssemblyPI: 5.381 [ms]
[INFO] AdjustPhi: 0.288 [ms]
[INFO] ConstrainPressure: 0.002 [ms]
[INFO] MatrixAssemblyPII: 1.647 [ms]
nonePCG:  Solving for p, Initial residual = 0.197888, Final residual = 9.52867e-05, No Iterations 721
[INFO] SolveP: 416 [ms]
time step continuity errors : sum local = 1.48793e-08, global = -3.46637e-21, cumulative = 5.16413e-21
[INFO] ContinuityError: 1.155 [ms]
[INFO] CorrectBoundary: 0.058 [ms]
[INFO] PISOStep: 426.784 [ms]
[INFO] MatrixAssemblyPI: 5.406 [ms]
[INFO] AdjustPhi: 0.62 [ms]
[INFO] ConstrainPressure: 0.002 [ms]
[INFO] MatrixAssemblyPII: 1.639 [ms]
nonePCG:  Solving for p, Initial residual = 0.164629, Final residual = 9.76123e-05, No Iterations 348
[INFO] SolveP: 200.215 [ms]
time step continuity errors : sum local = 1.76433e-08, global = -8.4267e-21, cumulative = -3.26256e-21
[INFO] ContinuityError: 1.005 [ms]
[INFO] CorrectBoundary: 0.051 [ms]
[INFO] PISOStep: 211.461 [ms]
[INFO] TimeStep: 685.921 [ms]
ExecutionTime = 5.71 s  ClockTime = 6 s

Time = 0.0035

Courant Number mean: 0.0513787 max: 0.46671
[INFO] MatrixAssemblyU: 3.576 [ms]
DILUPBiCGStab:  Solving for Ux, Initial residual = 0.0146726, Final residual = 7.22956e-05, No Iterations 5
DILUPBiCGStab:  Solving for Uy, Initial residual = 0.0317557, Final residual = 0.000141741, No Iterations 5
DILUPBiCGStab:  Solving for Uz, Initial residual = 0.0613284, Final residual = 0.000342601, No Iterations 5
[INFO] MomentumPredictor: 40.176 [ms]
[INFO] MatrixAssemblyPI: 5.415 [ms]
[INFO] AdjustPhi: 0.227 [ms]
[INFO] ConstrainPressure: 0.002 [ms]
[INFO] MatrixAssemblyPII: 1.658 [ms]
nonePCG:  Solving for p, Initial residual = 0.139943, Final residual = 9.38201e-05, No Iterations 717
[INFO] SolveP: 421.347 [ms]
time step continuity errors : sum local = 1.39027e-08, global = -8.16078e-21, cumulative = -1.14233e-20
[INFO] ContinuityError: 1.352 [ms]
[INFO] CorrectBoundary: 0.268 [ms]
[INFO] PISOStep: 433.014 [ms]
[INFO] MatrixAssemblyPI: 4.966 [ms]
[INFO] AdjustPhi: 1.093 [ms]
[INFO] ConstrainPressure: 0.002 [ms]
[INFO] MatrixAssemblyPII: 1.502 [ms]
nonePCG:  Solving for p, Initial residual = 0.11706, Final residual = 9.96564e-05, No Iterations 715
[INFO] SolveP: 420.672 [ms]
time step continuity errors : sum local = 1.47622e-08, global = 1.45033e-21, cumulative = -9.97301e-21
[INFO] ContinuityError: 0.806 [ms]
[INFO] CorrectBoundary: 0.046 [ms]
[INFO] PISOStep: 433.027 [ms]
[INFO] TimeStep: 910.852 [ms]
ExecutionTime = 6.62 s  ClockTime = 6 s

Time = 0.004

Courant Number mean: 0.0543191 max: 0.468923
[INFO] MatrixAssemblyU: 4.165 [ms]
DILUPBiCGStab:  Solving for Ux, Initial residual = 0.0123019, Final residual = 5.47037e-05, No Iterations 5
DILUPBiCGStab:  Solving for Uy, Initial residual = 0.0265277, Final residual = 8.82289e-05, No Iterations 5
DILUPBiCGStab:  Solving for Uz, Initial residual = 0.0527855, Final residual = 0.000222857, No Iterations 5
[INFO] MomentumPredictor: 41.758 [ms]
[INFO] MatrixAssemblyPI: 5.123 [ms]
[INFO] AdjustPhi: 0.685 [ms]
[INFO] ConstrainPressure: 0.001 [ms]
[INFO] MatrixAssemblyPII: 1.62 [ms]
nonePCG:  Solving for p, Initial residual = 0.0912282, Final residual = 9.92565e-05, No Iterations 334
[INFO] SolveP: 193.189 [ms]
time step continuity errors : sum local = 1.60137e-08, global = -1.14432e-20, cumulative = -2.14162e-20
[INFO] ContinuityError: 1.212 [ms]
[INFO] CorrectBoundary: 0.541 [ms]
[INFO] PISOStep: 204.791 [ms]
[INFO] MatrixAssemblyPI: 4.532 [ms]
[INFO] AdjustPhi: 1.138 [ms]
[INFO] ConstrainPressure: 0.002 [ms]
[INFO] MatrixAssemblyPII: 1.629 [ms]
nonePCG:  Solving for p, Initial residual = 0.0755604, Final residual = 9.91954e-05, No Iterations 324
[INFO] SolveP: 185.643 [ms]
time step continuity errors : sum local = 1.5175e-08, global = 5.51688e-21, cumulative = -1.58993e-20
[INFO] ContinuityError: 0.813 [ms]
[INFO] CorrectBoundary: 0.055 [ms]
[INFO] PISOStep: 196.282 [ms]
[INFO] TimeStep: 447.883 [ms]
ExecutionTime = 7.07 s  ClockTime = 7 s

Time = 0.0045

Courant Number mean: 0.0568973 max: 0.470627
[INFO] MatrixAssemblyU: 3.568 [ms]
DILUPBiCGStab:  Solving for Ux, Initial residual = 0.0105493, Final residual = 4.26464e-05, No Iterations 5
DILUPBiCGStab:  Solving for Uy, Initial residual = 0.022675, Final residual = 7.589e-05, No Iterations 5
DILUPBiCGStab:  Solving for Uz, Initial residual = 0.0442841, Final residual = 0.0001724, No Iterations 5
[INFO] MomentumPredictor: 40.278 [ms]
[INFO] MatrixAssemblyPI: 5.406 [ms]
[INFO] AdjustPhi: 0.321 [ms]
[INFO] ConstrainPressure: 0.003 [ms]
[INFO] MatrixAssemblyPII: 1.666 [ms]
nonePCG:  Solving for p, Initial residual = 0.0668956, Final residual = 9.92366e-05, No Iterations 699
[INFO] SolveP: 402.443 [ms]
time step continuity errors : sum local = 1.41797e-08, global = -7.79372e-22, cumulative = -1.66787e-20
[INFO] ContinuityError: 1.033 [ms]
[INFO] CorrectBoundary: 0.071 [ms]
[INFO] PISOStep: 413.191 [ms]
[INFO] MatrixAssemblyPI: 5.23 [ms]
[INFO] AdjustPhi: 0.282 [ms]
[INFO] ConstrainPressure: 0.002 [ms]
[INFO] MatrixAssemblyPII: 1.626 [ms]
nonePCG:  Solving for p, Initial residual = 0.0558353, Final residual = 9.98358e-05, No Iterations 696
[INFO] SolveP: 402.905 [ms]
time step continuity errors : sum local = 1.42713e-08, global = -4.31631e-21, cumulative = -2.0995e-20
[INFO] ContinuityError: 1.22 [ms]
[INFO] CorrectBoundary: 0.057 [ms]
[INFO] PISOStep: 413.718 [ms]
[INFO] TimeStep: 871.843 [ms]
ExecutionTime = 7.94 s  ClockTime = 8 s

Time = 0.005

Courant Number mean: 0.0591939 max: 0.472024
[INFO] MatrixAssemblyU: 3.501 [ms]
DILUPBiCGStab:  Solving for Ux, Initial residual = 0.00923129, Final residual = 3.56786e-05, No Iterations 5
DILUPBiCGStab:  Solving for Uy, Initial residual = 0.0197248, Final residual = 5.86862e-05, No Iterations 5
DILUPBiCGStab:  Solving for Uz, Initial residual = 0.0387269, Final residual = 0.000132841, No Iterations 5
[INFO] MomentumPredictor: 40.36 [ms]
[INFO] MatrixAssemblyPI: 5.377 [ms]
[INFO] AdjustPhi: 0.333 [ms]
[INFO] ConstrainPressure: 0.002 [ms]
[INFO] MatrixAssemblyPII: 1.646 [ms]
nonePCG:  Solving for p, Initial residual = 0.0447997, Final residual = 9.64543e-05, No Iterations 316
[INFO] SolveP: 181.499 [ms]
time step continuity errors : sum local = 1.37254e-08, global = -4.10036e-21, cumulative = -2.50954e-20
[INFO] ContinuityError: 1.059 [ms]
[INFO] CorrectBoundary: 0.056 [ms]
[INFO] PISOStep: 192.21 [ms]
[INFO] MatrixAssemblyPI: 5.179 [ms]
[INFO] AdjustPhi: 0.328 [ms]
[INFO] ConstrainPressure: 0.002 [ms]
[INFO] MatrixAssemblyPII: 1.636 [ms]
nonePCG:  Solving for p, Initial residual = 0.037857, Final residual = 9.77705e-05, No Iterations 314
[INFO] SolveP: 179.403 [ms]
time step continuity errors : sum local = 1.39068e-08, global = -9.22455e-22, cumulative = -2.60178e-20
[INFO] ContinuityError: 1.068 [ms]
[INFO] CorrectBoundary: 0.058 [ms]
[INFO] PISOStep: 189.877 [ms]
[INFO] TimeStep: 427.098 [ms]
ExecutionTime = 8.36 s  ClockTime = 8 s

Time = 0.0055

Courant Number mean: 0.0612547 max: 0.473174
[INFO] MatrixAssemblyU: 3.507 [ms]
DILUPBiCGStab:  Solving for Ux, Initial residual = 0.00814723, Final residual = 2.98271e-05, No Iterations 5
DILUPBiCGStab:  Solving for Uy, Initial residual = 0.0174508, Final residual = 5.23826e-05, No Iterations 5
DILUPBiCGStab:  Solving for Uz, Initial residual = 0.0344439, Final residual = 0.000115911, No Iterations 5
[INFO] MomentumPredictor: 40.225 [ms]
[INFO] MatrixAssemblyPI: 5.318 [ms]
[INFO] AdjustPhi: 2.266 [ms]
[INFO] ConstrainPressure: 0.002 [ms]
[INFO] MatrixAssemblyPII: 1.668 [ms]
nonePCG:  Solving for p, Initial residual = 0.0350597, Final residual = 9.776e-05, No Iterations 312
[INFO] SolveP: 185.659 [ms]
time step continuity errors : sum local = 1.47028e-08, global = 5.08261e-21, cumulative = -2.09352e-20
[INFO] ContinuityError: 1.314 [ms]
[INFO] CorrectBoundary: 0.281 [ms]
[INFO] PISOStep: 199.693 [ms]
[INFO] MatrixAssemblyPI: 4.704 [ms]
[INFO] AdjustPhi: 0.795 [ms]
[INFO] ConstrainPressure: 0.001 [ms]
[INFO] MatrixAssemblyPII: 1.463 [ms]
nonePCG:  Solving for p, Initial residual = 0.0298353, Final residual = 9.89377e-05, No Iterations 308
[INFO] SolveP: 180.482 [ms]
time step continuity errors : sum local = 1.41901e-08, global = -3.29009e-21, cumulative = -2.42253e-20
[INFO] ContinuityError: 1.149 [ms]
[INFO] CorrectBoundary: 0.055 [ms]
[INFO] PISOStep: 191.22 [ms]
[INFO] TimeStep: 435.51 [ms]
ExecutionTime = 8.8 s  ClockTime = 9 s

Time = 0.006

Courant Number mean: 0.0631274 max: 0.474153
[INFO] MatrixAssemblyU: 3.581 [ms]
DILUPBiCGStab:  Solving for Ux, Initial residual = 0.00729137, Final residual = 2.60992e-05, No Iterations 5
DILUPBiCGStab:  Solving for Uy, Initial residual = 0.015582, Final residual = 4.55958e-05, No Iterations 5
DILUPBiCGStab:  Solving for Uz, Initial residual = 0.0309649, Final residual = 0.000104004, No Iterations 5
[INFO] MomentumPredictor: 42.029 [ms]
[INFO] MatrixAssemblyPI: 5.189 [ms]
[INFO] AdjustPhi: 1.109 [ms]
[INFO] ConstrainPressure: 0.002 [ms]
[INFO] MatrixAssemblyPII: 1.591 [ms]
nonePCG:  Solving for p, Initial residual = 0.0251974, Final residual = 9.55144e-05, No Iterations 310
[INFO] SolveP: 179.757 [ms]
time step continuity errors : sum local = 1.38754e-08, global = 1.05672e-21, cumulative = -2.31686e-20
[INFO] ContinuityError: 1.282 [ms]
[INFO] CorrectBoundary: 0.281 [ms]
[INFO] PISOStep: 191.984 [ms]
[INFO] MatrixAssemblyPI: 4.963 [ms]
[INFO] AdjustPhi: 0.752 [ms]
[INFO] ConstrainPressure: 0.001 [ms]
[INFO] MatrixAssemblyPII: 1.633 [ms]
nonePCG:  Solving for p, Initial residual = 0.0220288, Final residual = 9.93135e-05, No Iterations 306
[INFO] SolveP: 181.883 [ms]
time step continuity errors : sum local = 1.40721e-08, global = -9.39524e-21, cumulative = -3.25638e-20
[INFO] ContinuityError: 0.79 [ms]
[INFO] CorrectBoundary: 0.041 [ms]
[INFO] PISOStep: 193.67 [ms]
[INFO] TimeStep: 432.735 [ms]
ExecutionTime = 9.23 s  ClockTime = 9 s

Time = 0.0065

Courant Number mean: 0.0648322 max: 0.47499
[INFO] MatrixAssemblyU: 4.613 [ms]
DILUPBiCGStab:  Solving for Ux, Initial residual = 0.00656531, Final residual = 2.28414e-05, No Iterations 5
DILUPBiCGStab:  Solving for Uy, Initial residual = 0.0140498, Final residual = 4.10191e-05, No Iterations 5
DILUPBiCGStab:  Solving for Uz, Initial residual = 0.0283733, Final residual = 9.52998e-05, No Iterations 5
[INFO] MomentumPredictor: 39.877 [ms]
[INFO] MatrixAssemblyPI: 5.185 [ms]
[INFO] AdjustPhi: 0.513 [ms]
[INFO] ConstrainPressure: 0.002 [ms]
[INFO] MatrixAssemblyPII: 1.64 [ms]
nonePCG:  Solving for p, Initial residual = 0.0208468, Final residual = 9.67634e-05, No Iterations 313
[INFO] SolveP: 179.218 [ms]
time step continuity errors : sum local = 1.49609e-08, global = -4.16413e-21, cumulative = -3.6728e-20
[INFO] ContinuityError: 1.044 [ms]
[INFO] CorrectBoundary: 0.059 [ms]
[INFO] PISOStep: 190.12 [ms]
[INFO] MatrixAssemblyPI: 5.054 [ms]
[INFO] AdjustPhi: 0.295 [ms]
[INFO] ConstrainPressure: 0.002 [ms]
[INFO] MatrixAssemblyPII: 1.639 [ms]
nonePCG:  Solving for p, Initial residual = 0.0183902, Final residual = 9.64854e-05, No Iterations 307
[INFO] SolveP: 175.487 [ms]
time step continuity errors : sum local = 1.39589e-08, global = 2.01837e-21, cumulative = -3.47096e-20
[INFO] ContinuityError: 1.04 [ms]
[INFO] CorrectBoundary: 0.071 [ms]
[INFO] PISOStep: 185.767 [ms]
[INFO] TimeStep: 421.432 [ms]
ExecutionTime = 9.64 s  ClockTime = 9 s

Time = 0.007

Courant Number mean: 0.0664007 max: 0.475722
[INFO] MatrixAssemblyU: 3.501 [ms]
DILUPBiCGStab:  Solving for Ux, Initial residual = 0.00596114, Final residual = 2.05405e-05, No Iterations 5
DILUPBiCGStab:  Solving for Uy, Initial residual = 0.0127666, Final residual = 3.69381e-05, No Iterations 5
DILUPBiCGStab:  Solving for Uz, Initial residual = 0.0259323, Final residual = 8.98359e-05, No Iterations 5
[INFO] MomentumPredictor: 40.533 [ms]
[INFO] MatrixAssemblyPI: 5.4 [ms]
[INFO] AdjustPhi: 0.274 [ms]
[INFO] ConstrainPressure: 0.002 [ms]
[INFO] MatrixAssemblyPII: 1.649 [ms]
nonePCG:  Solving for p, Initial residual = 0.0164313, Final residual = 9.32849e-05, No Iterations 313
[INFO] SolveP: 180.963 [ms]
time step continuity errors : sum local = 1.41939e-08, global = 2.96875e-21, cumulative = -3.17408e-20
[INFO] ContinuityError: 1.073 [ms]
[INFO] CorrectBoundary: 0.056 [ms]
[INFO] PISOStep: 191.689 [ms]
[INFO] MatrixAssemblyPI: 5.238 [ms]
[INFO] AdjustPhi: 0.227 [ms]
[INFO] ConstrainPressure: 0.002 [ms]
[INFO] MatrixAssemblyPII: 1.65 [ms]
nonePCG:  Solving for p, Initial residual = 0.0149041, Final residual = 9.7171e-05, No Iterations 307
[INFO] SolveP: 180.343 [ms]
time step continuity errors : sum local = 1.38905e-08, global = -2.73599e-21, cumulative = -3.44768e-20
[INFO] ContinuityError: 1.393 [ms]
[INFO] CorrectBoundary: 0.058 [ms]
[INFO] PISOStep: 191.008 [ms]
[INFO] TimeStep: 427.814 [ms]
ExecutionTime = 10.07 s  ClockTime = 10 s

Time = 0.0075

Courant Number mean: 0.0678482 max: 0.476363
[INFO] MatrixAssemblyU: 3.535 [ms]
DILUPBiCGStab:  Solving for Ux, Initial residual = 0.0054442, Final residual = 1.85144e-05, No Iterations 5
DILUPBiCGStab:  Solving for Uy, Initial residual = 0.0116603, Final residual = 3.36669e-05, No Iterations 5
DILUPBiCGStab:  Solving for Uz, Initial residual = 0.0241681, Final residual = 8.52806e-05, No Iterations 5
[INFO] MomentumPredictor: 40.611 [ms]
[INFO] MatrixAssemblyPI: 5.383 [ms]
[INFO] AdjustPhi: 0.275 [ms]
[INFO] ConstrainPressure: 0.002 [ms]
[INFO] MatrixAssemblyPII: 1.66 [ms]
nonePCG:  Solving for p, Initial residual = 0.0143766, Final residual = 9.92956e-05, No Iterations 336
[INFO] SolveP: 199.302 [ms]
time step continuity errors : sum local = 1.6156e-08, global = -4.02837e-21, cumulative = -3.85052e-20
[INFO] ContinuityError: 1.273 [ms]
[INFO] CorrectBoundary: 0.306 [ms]
[INFO] PISOStep: 210.957 [ms]
[INFO] MatrixAssemblyPI: 5.392 [ms]
[INFO] AdjustPhi: 0.537 [ms]
[INFO] ConstrainPressure: 0.002 [ms]
[INFO] MatrixAssemblyPII: 1.631 [ms]
nonePCG:  Solving for p, Initial residual = 0.0131291, Final residual = 9.71617e-05, No Iterations 307
[INFO] SolveP: 175.153 [ms]
time step continuity errors : sum local = 1.43219e-08, global = 3.70897e-21, cumulative = -3.47962e-20
[INFO] ContinuityError: 1.027 [ms]
[INFO] CorrectBoundary: 0.058 [ms]
[INFO] PISOStep: 186.359 [ms]
[INFO] TimeStep: 442.937 [ms]
ExecutionTime = 10.52 s  ClockTime = 10 s

Time = 0.008

Courant Number mean: 0.069186 max: 0.476934
[INFO] MatrixAssemblyU: 3.542 [ms]
DILUPBiCGStab:  Solving for Ux, Initial residual = 0.00499218, Final residual = 1.69531e-05, No Iterations 5
DILUPBiCGStab:  Solving for Uy, Initial residual = 0.0107298, Final residual = 3.08714e-05, No Iterations 5
DILUPBiCGStab:  Solving for Uz, Initial residual = 0.0223014, Final residual = 8.50555e-05, No Iterations 5
[INFO] MomentumPredictor: 40.322 [ms]
[INFO] MatrixAssemblyPI: 5.39 [ms]
[INFO] AdjustPhi: 0.353 [ms]
[INFO] ConstrainPressure: 0.002 [ms]
[INFO] MatrixAssemblyPII: 1.651 [ms]
nonePCG:  Solving for p, Initial residual = 0.0122634, Final residual = 9.93599e-05, No Iterations 331
[INFO] SolveP: 192.617 [ms]
time step continuity errors : sum local = 1.61399e-08, global = -1.16695e-20, cumulative = -4.64657e-20
[INFO] ContinuityError: 1.164 [ms]
[INFO] CorrectBoundary: 0.049 [ms]
[INFO] PISOStep: 203.451 [ms]
[INFO] MatrixAssemblyPI: 5.242 [ms]
[INFO] AdjustPhi: 0.563 [ms]
[INFO] ConstrainPressure: 0.002 [ms]
[INFO] MatrixAssemblyPII: 1.63 [ms]
nonePCG:  Solving for p, Initial residual = 0.0113957, Final residual = 9.89593e-05, No Iterations 305
[INFO] SolveP: 173.794 [ms]
time step continuity errors : sum local = 1.44253e-08, global = -5.28765e-21, cumulative = -5.17533e-20
[INFO] ContinuityError: 0.984 [ms]
[INFO] CorrectBoundary: 0.067 [ms]
[INFO] PISOStep: 184.829 [ms]
[INFO] TimeStep: 433.062 [ms]
ExecutionTime = 10.95 s  ClockTime = 11 s

Time = 0.0085

Courant Number mean: 0.0704319 max: 0.477442
[INFO] MatrixAssemblyU: 3.598 [ms]
DILUPBiCGStab:  Solving for Ux, Initial residual = 0.00461074, Final residual = 1.55508e-05, No Iterations 5
DILUPBiCGStab:  Solving for Uy, Initial residual = 0.00988616, Final residual = 2.85612e-05, No Iterations 5
DILUPBiCGStab:  Solving for Uz, Initial residual = 0.0211688, Final residual = 8.56548e-05, No Iterations 5
[INFO] MomentumPredictor: 40.18 [ms]
[INFO] MatrixAssemblyPI: 5.408 [ms]
[INFO] AdjustPhi: 0.3 [ms]
[INFO] ConstrainPressure: 0.002 [ms]
[INFO] MatrixAssemblyPII: 1.664 [ms]
nonePCG:  Solving for p, Initial residual = 0.0111067, Final residual = 9.97779e-05, No Iterations 689
[INFO] SolveP: 396.397 [ms]
time step continuity errors : sum local = 1.39483e-08, global = 1.95721e-21, cumulative = -4.97961e-20
[INFO] ContinuityError: 0.879 [ms]
[INFO] CorrectBoundary: 0.054 [ms]
[INFO] PISOStep: 407.332 [ms]
[INFO] MatrixAssemblyPI: 5.242 [ms]
[INFO] AdjustPhi: 0.241 [ms]
[INFO] ConstrainPressure: 0.002 [ms]
[INFO] MatrixAssemblyPII: 1.632 [ms]
nonePCG:  Solving for p, Initial residual = 0.0103969, Final residual = 9.79834e-05, No Iterations 687
[INFO] SolveP: 402.859 [ms]
time step continuity errors : sum local = 1.3703e-08, global = -8.32857e-21, cumulative = -5.81247e-20
[INFO] ContinuityError: 1.398 [ms]
[INFO] CorrectBoundary: 0.443 [ms]
[INFO] PISOStep: 414.51 [ms]
[INFO] TimeStep: 866.707 [ms]
ExecutionTime = 11.81 s  ClockTime = 12 s

Time = 0.009

Courant Number mean: 0.0715956 max: 0.477901
[INFO] MatrixAssemblyU: 2.857 [ms]
DILUPBiCGStab:  Solving for Ux, Initial residual = 0.00426141, Final residual = 1.43898e-05, No Iterations 5
DILUPBiCGStab:  Solving for Uy, Initial residual = 0.00916406, Final residual = 2.62366e-05, No Iterations 5
DILUPBiCGStab:  Solving for Uz, Initial residual = 0.0191492, Final residual = 6.52834e-05, No Iterations 5
[INFO] MomentumPredictor: 41.504 [ms]
[INFO] MatrixAssemblyPI: 4.95 [ms]
[INFO] AdjustPhi: 0.696 [ms]
[INFO] ConstrainPressure: 0.002 [ms]
[INFO] MatrixAssemblyPII: 1.648 [ms]
nonePCG:  Solving for p, Initial residual = 0.0101335, Final residual = 9.84389e-05, No Iterations 295
[INFO] SolveP: 173.948 [ms]
time step continuity errors : sum local = 1.48702e-08, global = 5.37657e-21, cumulative = -5.27481e-20
[INFO] ContinuityError: 1.164 [ms]
[INFO] CorrectBoundary: 0.695 [ms]
[INFO] PISOStep: 185.276 [ms]
[INFO] MatrixAssemblyPI: 5.124 [ms]
[INFO] AdjustPhi: 1.633 [ms]
[INFO] ConstrainPressure: 0.002 [ms]
[INFO] MatrixAssemblyPII: 1.568 [ms]
nonePCG:  Solving for p, Initial residual = 0.0095453, Final residual = 9.80176e-05, No Iterations 289
[INFO] SolveP: 166.9 [ms]
time step continuity errors : sum local = 1.41441e-08, global = -5.12431e-21, cumulative = -5.78724e-20
[INFO] ContinuityError: 1.186 [ms]
[INFO] CorrectBoundary: 0.273 [ms]
[INFO] PISOStep: 179.783 [ms]
[INFO] TimeStep: 410.313 [ms]
ExecutionTime = 12.22 s  ClockTime = 12 s

Time = 0.0095

Courant Number mean: 0.0726827 max: 0.478315
[INFO] MatrixAssemblyU: 3.574 [ms]
DILUPBiCGStab:  Solving for Ux, Initial residual = 0.00395343, Final residual = 1.32741e-05, No Iterations 5
DILUPBiCGStab:  Solving for Uy, Initial residual = 0.00851856, Final residual = 2.42337e-05, No Iterations 5
DILUPBiCGStab:  Solving for Uz, Initial residual = 0.0177874, Final residual = 6.21581e-05, No Iterations 5
[INFO] MomentumPredictor: 40.294 [ms]
[INFO] MatrixAssemblyPI: 5.355 [ms]
[INFO] AdjustPhi: 0.336 [ms]
[INFO] ConstrainPressure: 0.002 [ms]
[INFO] MatrixAssemblyPII: 1.651 [ms]
nonePCG:  Solving for p, Initial residual = 0.00896792, Final residual = 9.84825e-05, No Iterations 301
[INFO] SolveP: 177.887 [ms]
time step continuity errors : sum local = 1.52395e-08, global = -1.30093e-20, cumulative = -7.08817e-20
[INFO] ContinuityError: 0.983 [ms]
[INFO] CorrectBoundary: 0.043 [ms]
[INFO] PISOStep: 189.735 [ms]
[INFO] MatrixAssemblyPI: 5.246 [ms]
[INFO] AdjustPhi: 0.195 [ms]
[INFO] ConstrainPressure: 0.001 [ms]
[INFO] MatrixAssemblyPII: 1.887 [ms]
nonePCG:  Solving for p, Initial residual = 0.00848859, Final residual = 9.85164e-05, No Iterations 290
[INFO] SolveP: 165.996 [ms]
time step continuity errors : sum local = 1.41162e-08, global = -1.37311e-20, cumulative = -8.46128e-20
[INFO] ContinuityError: 1.033 [ms]
[INFO] CorrectBoundary: 0.293 [ms]
[INFO] PISOStep: 176.815 [ms]
[INFO] TimeStep: 411.335 [ms]
ExecutionTime = 12.63 s  ClockTime = 12 s

Time = 0.01

Courant Number mean: 0.0737004 max: 0.478693
[INFO] MatrixAssemblyU: 3.573 [ms]
DILUPBiCGStab:  Solving for Ux, Initial residual = 0.00367738, Final residual = 1.23771e-05, No Iterations 5
DILUPBiCGStab:  Solving for Uy, Initial residual = 0.00795829, Final residual = 2.25951e-05, No Iterations 5
DILUPBiCGStab:  Solving for Uz, Initial residual = 0.0167041, Final residual = 6.2798e-05, No Iterations 5
[INFO] MomentumPredictor: 40.269 [ms]
[INFO] MatrixAssemblyPI: 5.372 [ms]
[INFO] AdjustPhi: 0.34 [ms]
[INFO] ConstrainPressure: 0.002 [ms]
[INFO] MatrixAssemblyPII: 1.65 [ms]
nonePCG:  Solving for p, Initial residual = 0.00832658, Final residual = 9.87823e-05, No Iterations 310
[INFO] SolveP: 178.444 [ms]
time step continuity errors : sum local = 1.57744e-08, global = -8.73503e-22, cumulative = -8.54863e-20
[INFO] ContinuityError: 1.006 [ms]
[INFO] CorrectBoundary: 0.056 [ms]
[INFO] PISOStep: 189.317 [ms]
[INFO] MatrixAssemblyPI: 5.195 [ms]
[INFO] AdjustPhi: 0.333 [ms]
[INFO] ConstrainPressure: 0.003 [ms]
[INFO] MatrixAssemblyPII: 1.643 [ms]
nonePCG:  Solving for p, Initial residual = 0.0079047, Final residual = 9.86851e-05, No Iterations 298
[INFO] SolveP: 171.998 [ms]
time step continuity errors : sum local = 1.44744e-08, global = -1.04289e-20, cumulative = -9.59152e-20
[INFO] ContinuityError: 1.053 [ms]
[INFO] CorrectBoundary: 0.272 [ms]
[INFO] PISOStep: 182.668 [ms]
[INFO] TimeStep: 416.796 [ms]
ExecutionTime = 13.04 s  ClockTime = 13 s

End

Finalising parallel run
