/*---------------------------------------------------------------------------*\
| =========                 |                                                 |
| \\      /  F ield         | OpenFOAM: The Open Source CFD Toolbox           |
|  \\    /   O peration     | Version:  2306                                  |
|   \\  /    A nd           | Website:  www.openfoam.com                      |
|    \\/     M anipulation  |                                                 |
\*---------------------------------------------------------------------------*/
Build  : c423ebec-20231012 OPENFOAM=2306 version=v2306
Arch   : "LSB;label=32;scalar=64"
Exec   : decomposePar -force
Date   : Feb 16 2024
Time   : 09:04:17
Host   : hkn1209.localdomain
PID    : 1442113
--> FOAM Warning : 
    From Foam::fileName Foam::cwd_L()
    in file POSIX.C at line 552
    PWD is not the cwd() - reverting to physical description
I/O    : uncollated
--> FOAM Warning : 
    From Foam::fileName Foam::cwd_L()
    in file POSIX.C at line 552
    PWD is not the cwd() - reverting to physical description
Case   : /hkfs/work/workspace/scratch/eq4036-windsorbody_setup/workspace/13bd355b13e9c185c665cd381ebafee2/case
nProcs : 1
trapFpe: Floating point exception trapping enabled (FOAM_SIGFPE).
fileModificationChecking : Monitoring run-time modified files using timeStampMaster (fileModificationSkew 5, maxFileModificationPolls 20)
allowSystemOperations : Allowing user-supplied system call operations

// * * * * * * * * * * * * * * * * * * * * * * * * * * * * * * * * * * * * * //
Create time

--> FOAM Warning : 
    From void* Foam::dlLibraryTable::openLibrary(const Foam::fileName&, bool)
    in file db/dynamicLibrary/dlLibraryTable/dlLibraryTable.C at line 188
    Could not load "libpetscFoam.so"
libpetscFoam.so: cannot open shared object file: No such file or directory


Decomposing mesh

Create mesh

Calculating distribution of cells
Decomposition method simple [8] (region region0)

Finished decomposition in 3.72 s

Calculating original mesh data

Distributing cells to processors

Distributing faces to processors

Distributing points to processors

Constructing processor meshes

Processor 0
    Number of cells = 786610
    Number of points = 833870
    Number of faces shared with processor 1 = 4854
    Number of faces shared with processor 4 = 11731
    Number of faces shared with processor 5 = 2
    Number of processor patches = 3
    Number of processor faces = 16587
    Number of boundary faces = 56733

Processor 1
    Number of cells = 792152
    Number of points = 824276
    Number of faces shared with processor 0 = 4854
    Number of faces shared with processor 2 = 7025
    Number of faces shared with processor 5 = 12833
    Number of faces shared with processor 6 = 1
    Number of processor patches = 4
    Number of processor faces = 24713
    Number of boundary faces = 18583

Processor 2
    Number of cells = 786945
    Number of points = 817624
    Number of faces shared with processor 1 = 7025
    Number of faces shared with processor 3 = 7075
    Number of faces shared with processor 6 = 12946
    Number of processor patches = 3
    Number of processor faces = 27046
    Number of boundary faces = 12228

Processor 3
    Number of cells = 787861
    Number of points = 828795
    Number of faces shared with processor 2 = 7075
    Number of faces shared with processor 7 = 14329
    Number of processor patches = 2
    Number of processor faces = 21404
    Number of boundary faces = 27519

Processor 4
    Number of cells = 790174
    Number of points = 838649
    Number of faces shared with processor 0 = 11731
    Number of faces shared with processor 5 = 4780
    Number of processor patches = 2
    Number of processor faces = 16511
    Number of boundary faces = 57142

Processor 5
    Number of cells = 784632
    Number of points = 816760
    Number of faces shared with processor 0 = 2
    Number of faces shared with processor 1 = 12833
    Number of faces shared with processor 4 = 4780
    Number of faces shared with processor 6 = 7036
    Number of processor patches = 4
    Number of processor faces = 24651
    Number of boundary faces = 18055

Processor 6
    Number of cells = 789839
    Number of points = 819641
    Number of faces shared with processor 1 = 1
    Number of faces shared with processor 2 = 12946
    Number of faces shared with processor 5 = 7036
    Number of faces shared with processor 7 = 6961
    Number of processor patches = 4
    Number of processor faces = 26944
    Number of boundary faces = 12275

Processor 7
    Number of cells = 788923
    Number of points = 830049
    Number of faces shared with processor 3 = 14329
    Number of faces shared with processor 6 = 6961
    Number of processor patches = 2
    Number of processor faces = 21290
    Number of boundary faces = 27413

Number of processor faces = 89573
Max number of cells = 792152 (0.4769201108078215% above average 788392)
Max number of processor patches = 4 (33.33333333333334% above average 3)
Max number of faces between processors = 27046 (20.77746642403403% above average 22393.25)

Time = 0

Processor 0: field transfer
--> FOAM Warning : 
    From void* Foam::dlLibraryTable::openLibrary(const Foam::fileName&, bool)
    in file db/dynamicLibrary/dlLibraryTable/dlLibraryTable.C at line 188
    Could not load "libpetscFoam.so"
libpetscFoam.so: cannot open shared object file: No such file or directory
Processor 1: field transfer
--> FOAM Warning : 
    From void* Foam::dlLibraryTable::openLibrary(const Foam::fileName&, bool)
    in file db/dynamicLibrary/dlLibraryTable/dlLibraryTable.C at line 188
    Could not load "libpetscFoam.so"
libpetscFoam.so: cannot open shared object file: No such file or directory
Processor 2: field transfer
--> FOAM Warning : 
    From void* Foam::dlLibraryTable::openLibrary(const Foam::fileName&, bool)
    in file db/dynamicLibrary/dlLibraryTable/dlLibraryTable.C at line 188
    Could not load "libpetscFoam.so"
libpetscFoam.so: cannot open shared object file: No such file or directory
Processor 3: field transfer
--> FOAM Warning : 
    From void* Foam::dlLibraryTable::openLibrary(const Foam::fileName&, bool)
    in file db/dynamicLibrary/dlLibraryTable/dlLibraryTable.C at line 188
    Could not load "libpetscFoam.so"
libpetscFoam.so: cannot open shared object file: No such file or directory
Processor 4: field transfer
--> FOAM Warning : 
    From void* Foam::dlLibraryTable::openLibrary(const Foam::fileName&, bool)
    in file db/dynamicLibrary/dlLibraryTable/dlLibraryTable.C at line 188
    Could not load "libpetscFoam.so"
libpetscFoam.so: cannot open shared object file: No such file or directory
Processor 5: field transfer
--> FOAM Warning : 
    From void* Foam::dlLibraryTable::openLibrary(const Foam::fileName&, bool)
    in file db/dynamicLibrary/dlLibraryTable/dlLibraryTable.C at line 188
    Could not load "libpetscFoam.so"
libpetscFoam.so: cannot open shared object file: No such file or directory
Processor 6: field transfer
--> FOAM Warning : 
    From void* Foam::dlLibraryTable::openLibrary(const Foam::fileName&, bool)
    in file db/dynamicLibrary/dlLibraryTable/dlLibraryTable.C at line 188
    Could not load "libpetscFoam.so"
libpetscFoam.so: cannot open shared object file: No such file or directory
Processor 7: field transfer
--> FOAM Warning : 
    From void* Foam::dlLibraryTable::openLibrary(const Foam::fileName&, bool)
    in file db/dynamicLibrary/dlLibraryTable/dlLibraryTable.C at line 188
    Could not load "libpetscFoam.so"
libpetscFoam.so: cannot open shared object file: No such file or directory

End

