/*---------------------------------------------------------------------------*\
| =========                 |                                                 |
| \\      /  F ield         | OpenFOAM: The Open Source CFD Toolbox           |
|  \\    /   O peration     | Version:  2306                                  |
|   \\  /    A nd           | Website:  www.openfoam.com                      |
|    \\/     M anipulation  |                                                 |
\*---------------------------------------------------------------------------*/
Build  : a6e826bd55-20230630 OPENFOAM=2306 version=v2306
Arch   : "LSB;label=32;scalar=64"
Exec   : icoFoam -parallel -case /tmp/lidDrivenCavity/workspace/1fa0c267fcf589ae18654a4f8f877ddc/case
Date   : Jan 09 2024
Time   : 23:44:58
Host   : nla-gpu2.ianm.kit.edu
PID    : 402924
I/O    : uncollated
Case   : /tmp/lidDrivenCavity/workspace/1fa0c267fcf589ae18654a4f8f877ddc/case
nProcs : 8
Hosts  :
(
    (nla-gpu2.ianm.kit.edu 8)
)
Pstream initialized with:
    floatTransfer      : false
    nProcsSimpleSum    : 0
    nonBlockingExchange: 0 (tuning: 0)
    exchange algorithm : -1
    commsType          : nonBlocking
    polling iterations : 0
trapFpe: Floating point exception trapping enabled (FOAM_SIGFPE).
fileModificationChecking : Monitoring run-time modified files using timeStampMaster (fileModificationSkew 5, maxFileModificationPolls 20)
allowSystemOperations : Allowing user-supplied system call operations

// * * * * * * * * * * * * * * * * * * * * * * * * * * * * * * * * * * * * * //
Create time

--> FOAM Warning : 
    From void* Foam::dlLibraryTable::openLibrary(const Foam::fileName&, bool)
    in file db/dynamicLibrary/dlLibraryTable/dlLibraryTable.C at line 188
    Could not load "libpetscFoam.so"
libpetscFoam.so: cannot open shared object file: No such file or directory
Create mesh for time = 0


PISO: Operating solver in PISO mode

Reading transportProperties

Reading field p

Reading field U

Reading/calculating face flux field phi


Starting time loop

Time = 0.000166

Courant Number mean: 8.14055e-18 max: 3.11001e-14
[INFO] MatrixAssemblyU: 348.686 [ms]
DILUPBiCGStab:  Solving for Ux, Initial residual = 1, Final residual = 0.0159896, No Iterations 5
DILUPBiCGStab:  Solving for Uy:  solution singularity
DILUPBiCGStab:  Solving for Uz:  solution singularity
[INFO] MomentumPredictor: 1586.12 [ms]
[INFO] MatrixAssemblyPI: 352.446 [ms]
[INFO] AdjustPhi: 21.99 [ms]
[INFO] ConstrainPressure: 0.014 [ms]
[INFO] MatrixAssemblyPII: 99.081 [ms]
GAMG:  Solving for p, Initial residual = 1, Final residual = 6.39385e-05, No Iterations 55
[INFO] SolveP: 17997.5 [ms]
time step continuity errors : sum local = 2.58838e-09, global = 2.67834e-21, cumulative = 2.67834e-21
[INFO] ContinuityError: 46.769 [ms]
[INFO] CorrectBoundary: 1.003 [ms]
[INFO] PISOStep: 18632.1 [ms]
[INFO] MatrixAssemblyPI: 336.243 [ms]
[INFO] AdjustPhi: 20.114 [ms]
[INFO] ConstrainPressure: 0.003 [ms]
[INFO] MatrixAssemblyPII: 100.747 [ms]
GAMG:  Solving for p, Initial residual = 0.809691, Final residual = 9.62773e-05, No Iterations 103
[INFO] SolveP: 32164.6 [ms]
time step continuity errors : sum local = 4.76182e-09, global = 2.87145e-22, cumulative = 2.96548e-21
[INFO] ContinuityError: 47.328 [ms]
[INFO] CorrectBoundary: 0.99 [ms]
[INFO] PISOStep: 32783.4 [ms]
[INFO] TimeStep: 53400.5 [ms]
ExecutionTime = 55.11 s  ClockTime = 55 s

Time = 0.000332

Courant Number mean: 0.0128497 max: 0.426563
[INFO] MatrixAssemblyU: 262.191 [ms]
DILUPBiCGStab:  Solving for Ux, Initial residual = 0.116946, Final residual = 0.00923065, No Iterations 5
DILUPBiCGStab:  Solving for Uy, Initial residual = 0.459875, Final residual = 0.0300232, No Iterations 5
DILUPBiCGStab:  Solving for Uz, Initial residual = 0.992609, Final residual = 0.0752563, No Iterations 5
[INFO] MomentumPredictor: 2962.44 [ms]
[INFO] MatrixAssemblyPI: 343.522 [ms]
[INFO] AdjustPhi: 19.838 [ms]
[INFO] ConstrainPressure: 0.004 [ms]
[INFO] MatrixAssemblyPII: 98.075 [ms]
GAMG:  Solving for p, Initial residual = 0.878231, Final residual = 8.08617e-05, No Iterations 83
[INFO] SolveP: 25916.5 [ms]
time step continuity errors : sum local = 7.69135e-09, global = 6.09288e-22, cumulative = 3.57477e-21
[INFO] ContinuityError: 47.03 [ms]
[INFO] CorrectBoundary: 1.403 [ms]
[INFO] PISOStep: 26538.7 [ms]
[INFO] MatrixAssemblyPI: 337.05 [ms]
[INFO] AdjustPhi: 18.863 [ms]
[INFO] ConstrainPressure: 0.004 [ms]
[INFO] MatrixAssemblyPII: 98.504 [ms]
GAMG:  Solving for p, Initial residual = 0.826388, Final residual = 5.20535e-05, No Iterations 53
[INFO] SolveP: 16611.2 [ms]
time step continuity errors : sum local = 5.05958e-09, global = 8.54595e-22, cumulative = 4.42937e-21
[INFO] ContinuityError: 47.773 [ms]
[INFO] CorrectBoundary: 0.925 [ms]
[INFO] PISOStep: 17227.4 [ms]
[INFO] TimeStep: 47034.7 [ms]
ExecutionTime = 101.9 s  ClockTime = 102 s

Time = 0.000498

Courant Number mean: 0.0198271 max: 0.491811
[INFO] MatrixAssemblyU: 261.632 [ms]
DILUPBiCGStab:  Solving for Ux, Initial residual = 0.0544517, Final residual = 0.00348766, No Iterations 5
DILUPBiCGStab:  Solving for Uy, Initial residual = 0.226386, Final residual = 0.0156785, No Iterations 5
DILUPBiCGStab:  Solving for Uz, Initial residual = 0.864125, Final residual = 0.0654359, No Iterations 5
[INFO] MomentumPredictor: 2960.75 [ms]
[INFO] MatrixAssemblyPI: 343.444 [ms]
[INFO] AdjustPhi: 20.665 [ms]
[INFO] ConstrainPressure: 0.004 [ms]
[INFO] MatrixAssemblyPII: 98.345 [ms]
GAMG:  Solving for p, Initial residual = 0.913894, Final residual = 9.92674e-05, No Iterations 97
[INFO] SolveP: 30243 [ms]
time step continuity errors : sum local = 1.04055e-08, global = 3.61371e-22, cumulative = 4.79074e-21
[INFO] ContinuityError: 46.755 [ms]
[INFO] CorrectBoundary: 1.077 [ms]
[INFO] PISOStep: 30865.6 [ms]
[INFO] MatrixAssemblyPI: 336.831 [ms]
[INFO] AdjustPhi: 18.033 [ms]
[INFO] ConstrainPressure: 0.003 [ms]
[INFO] MatrixAssemblyPII: 98.636 [ms]
GAMG:  Solving for p, Initial residual = 0.88283, Final residual = 9.35751e-05, No Iterations 90
[INFO] SolveP: 28102.8 [ms]
time step continuity errors : sum local = 9.65671e-09, global = 6.14025e-22, cumulative = 5.40476e-21
[INFO] ContinuityError: 46.789 [ms]
[INFO] CorrectBoundary: 1.264 [ms]
[INFO] PISOStep: 28716.3 [ms]
[INFO] TimeStep: 62848.3 [ms]
ExecutionTime = 164.43 s  ClockTime = 165 s

Time = 0.000664

Courant Number mean: 0.0239211 max: 0.472079
[INFO] MatrixAssemblyU: 261.5 [ms]
DILUPBiCGStab:  Solving for Ux, Initial residual = 0.0385275, Final residual = 0.0028013, No Iterations 5
DILUPBiCGStab:  Solving for Uy, Initial residual = 0.174008, Final residual = 0.0125861, No Iterations 5
DILUPBiCGStab:  Solving for Uz, Initial residual = 0.793724, Final residual = 0.061584, No Iterations 5
[INFO] MomentumPredictor: 2955.41 [ms]
[INFO] MatrixAssemblyPI: 343.477 [ms]
[INFO] AdjustPhi: 19.829 [ms]
[INFO] ConstrainPressure: 0.004 [ms]
[INFO] MatrixAssemblyPII: 98.466 [ms]
GAMG:  Solving for p, Initial residual = 0.89072, Final residual = 9.47416e-05, No Iterations 82
[INFO] SolveP: 25707.8 [ms]
time step continuity errors : sum local = 1.06128e-08, global = 8.19512e-22, cumulative = 6.22427e-21
[INFO] ContinuityError: 46.833 [ms]
[INFO] CorrectBoundary: 1.094 [ms]
[INFO] PISOStep: 26332.3 [ms]
[INFO] MatrixAssemblyPI: 335.823 [ms]
[INFO] AdjustPhi: 21.767 [ms]
[INFO] ConstrainPressure: 0.004 [ms]
[INFO] MatrixAssemblyPII: 98.407 [ms]
GAMG:  Solving for p, Initial residual = 0.830825, Final residual = 8.47706e-05, No Iterations 101
[INFO] SolveP: 31465.7 [ms]
time step continuity errors : sum local = 9.64084e-09, global = 6.73309e-22, cumulative = 6.89758e-21
[INFO] ContinuityError: 46.456 [ms]
[INFO] CorrectBoundary: 1.28 [ms]
[INFO] PISOStep: 32082.1 [ms]
[INFO] TimeStep: 61675.3 [ms]
ExecutionTime = 225.8 s  ClockTime = 227 s

Time = 0.00083

Courant Number mean: 0.0274504 max: 0.504995
[INFO] MatrixAssemblyU: 261.572 [ms]
DILUPBiCGStab:  Solving for Ux, Initial residual = 0.0323342, Final residual = 0.00237292, No Iterations 5
DILUPBiCGStab:  Solving for Uy, Initial residual = 0.129756, Final residual = 0.0105838, No Iterations 5
DILUPBiCGStab:  Solving for Uz, Initial residual = 0.782504, Final residual = 0.0648879, No Iterations 5
[INFO] MomentumPredictor: 2958.72 [ms]
[INFO] MatrixAssemblyPI: 343.093 [ms]
[INFO] AdjustPhi: 19.469 [ms]
[INFO] ConstrainPressure: 0.004 [ms]
[INFO] MatrixAssemblyPII: 98.643 [ms]
GAMG:  Solving for p, Initial residual = 0.910753, Final residual = 9.79739e-05, No Iterations 65
[INFO] SolveP: 20292.9 [ms]
time step continuity errors : sum local = 1.08464e-08, global = -3.33582e-22, cumulative = 6.564e-21
[INFO] ContinuityError: 46.566 [ms]
[INFO] CorrectBoundary: 1.479 [ms]
[INFO] PISOStep: 20913.6 [ms]
[INFO] MatrixAssemblyPI: 337.155 [ms]
[INFO] AdjustPhi: 19.797 [ms]
[INFO] ConstrainPressure: 0.004 [ms]
[INFO] MatrixAssemblyPII: 98.083 [ms]
GAMG:  Solving for p, Initial residual = 0.873157, Final residual = 9.50542e-05, No Iterations 76
[INFO] SolveP: 23763.6 [ms]
time step continuity errors : sum local = 1.03795e-08, global = 5.22026e-22, cumulative = 7.08603e-21
[INFO] ContinuityError: 46.769 [ms]
[INFO] CorrectBoundary: 1.145 [ms]
[INFO] PISOStep: 24378.7 [ms]
[INFO] TimeStep: 48556.9 [ms]
ExecutionTime = 274.12 s  ClockTime = 275 s

Time = 0.000996

Courant Number mean: 0.0301914 max: 0.478475
[INFO] MatrixAssemblyU: 261.507 [ms]
DILUPBiCGStab:  Solving for Ux, Initial residual = 0.0270647, Final residual = 0.00214117, No Iterations 5
DILUPBiCGStab:  Solving for Uy, Initial residual = 0.111812, Final residual = 0.00833139, No Iterations 5
DILUPBiCGStab:  Solving for Uz, Initial residual = 0.714903, Final residual = 0.060174, No Iterations 5
[INFO] MomentumPredictor: 2952.64 [ms]
[INFO] MatrixAssemblyPI: 343.386 [ms]
[INFO] AdjustPhi: 19.094 [ms]
[INFO] ConstrainPressure: 0.004 [ms]
[INFO] MatrixAssemblyPII: 98.501 [ms]
GAMG:  Solving for p, Initial residual = 0.888257, Final residual = 9.34539e-05, No Iterations 50
[INFO] SolveP: 15659.2 [ms]
time step continuity errors : sum local = 1.05569e-08, global = 1.4898e-21, cumulative = 8.57583e-21
[INFO] ContinuityError: 47.235 [ms]
[INFO] CorrectBoundary: 1.287 [ms]
[INFO] PISOStep: 16279.3 [ms]
[INFO] MatrixAssemblyPI: 336.115 [ms]
[INFO] AdjustPhi: 19.449 [ms]
[INFO] ConstrainPressure: 0.004 [ms]
[INFO] MatrixAssemblyPII: 98.529 [ms]
GAMG:  Solving for p, Initial residual = 0.825385, Final residual = 9.8649e-05, No Iterations 47
[INFO] SolveP: 14726.2 [ms]
time step continuity errors : sum local = 1.13084e-08, global = 5.12105e-22, cumulative = 9.08793e-21
[INFO] ContinuityError: 47.042 [ms]
[INFO] CorrectBoundary: 1.368 [ms]
[INFO] PISOStep: 15339.9 [ms]
[INFO] TimeStep: 34877.4 [ms]
ExecutionTime = 308.8 s  ClockTime = 310 s

Time = 0.001162

Courant Number mean: 0.0326711 max: 0.511948
[INFO] MatrixAssemblyU: 262.642 [ms]
DILUPBiCGStab:  Solving for Ux, Initial residual = 0.0245312, Final residual = 0.001966, No Iterations 5
DILUPBiCGStab:  Solving for Uy, Initial residual = 0.0982725, Final residual = 0.00769914, No Iterations 5
DILUPBiCGStab:  Solving for Uz, Initial residual = 0.705186, Final residual = 0.0595851, No Iterations 5
[INFO] MomentumPredictor: 2962.3 [ms]
[INFO] MatrixAssemblyPI: 344.125 [ms]
[INFO] AdjustPhi: 20.132 [ms]
[INFO] ConstrainPressure: 0.004 [ms]
[INFO] MatrixAssemblyPII: 98.441 [ms]
GAMG:  Solving for p, Initial residual = 0.906118, Final residual = 9.75066e-05, No Iterations 58
[INFO] SolveP: 18148.7 [ms]
time step continuity errors : sum local = 1.07464e-08, global = -6.47598e-22, cumulative = 8.44034e-21
[INFO] ContinuityError: 46.617 [ms]
[INFO] CorrectBoundary: 1.272 [ms]
[INFO] PISOStep: 18771.1 [ms]
[INFO] MatrixAssemblyPI: 336.725 [ms]
[INFO] AdjustPhi: 19.653 [ms]
[INFO] ConstrainPressure: 0.004 [ms]
[INFO] MatrixAssemblyPII: 98.053 [ms]
GAMG:  Solving for p, Initial residual = 0.861533, Final residual = 9.73216e-05, No Iterations 84
[INFO] SolveP: 26233.3 [ms]
time step continuity errors : sum local = 1.05998e-08, global = 9.33378e-22, cumulative = 9.37371e-21
[INFO] ContinuityError: 46.914 [ms]
[INFO] CorrectBoundary: 1.121 [ms]
[INFO] PISOStep: 26848.4 [ms]
[INFO] TimeStep: 48888.3 [ms]
ExecutionTime = 357.44 s  ClockTime = 359 s

Time = 0.001328

Courant Number mean: 0.0347558 max: 0.481434
[INFO] MatrixAssemblyU: 261.44 [ms]
DILUPBiCGStab:  Solving for Ux, Initial residual = 0.0221266, Final residual = 0.00183546, No Iterations 5
DILUPBiCGStab:  Solving for Uy, Initial residual = 0.0870564, Final residual = 0.00645453, No Iterations 5
DILUPBiCGStab:  Solving for Uz, Initial residual = 0.658947, Final residual = 0.054808, No Iterations 5
[INFO] MomentumPredictor: 2955.84 [ms]
[INFO] MatrixAssemblyPI: 343.648 [ms]
[INFO] AdjustPhi: 18.409 [ms]
[INFO] ConstrainPressure: 0.004 [ms]
[INFO] MatrixAssemblyPII: 98.482 [ms]
GAMG:  Solving for p, Initial residual = 0.884152, Final residual = 9.8556e-05, No Iterations 90
[INFO] SolveP: 28066 [ms]
time step continuity errors : sum local = 1.10505e-08, global = 8.5039e-22, cumulative = 1.02241e-20
[INFO] ContinuityError: 46.851 [ms]
[INFO] CorrectBoundary: 1.096 [ms]
[INFO] PISOStep: 28686.6 [ms]
[INFO] MatrixAssemblyPI: 336.556 [ms]
[INFO] AdjustPhi: 19.261 [ms]
[INFO] ConstrainPressure: 0.004 [ms]
[INFO] MatrixAssemblyPII: 98.476 [ms]
GAMG:  Solving for p, Initial residual = 0.81858, Final residual = 9.59287e-05, No Iterations 109
[INFO] SolveP: 34002.1 [ms]
time step continuity errors : sum local = 1.08846e-08, global = 6.74991e-22, cumulative = 1.08991e-20
[INFO] ContinuityError: 46.977 [ms]
[INFO] CorrectBoundary: 1.687 [ms]
[INFO] PISOStep: 34617.5 [ms]
[INFO] TimeStep: 66565.2 [ms]
ExecutionTime = 423.67 s  ClockTime = 426 s

Time = 0.001494

Courant Number mean: 0.0367047 max: 0.518145
[INFO] MatrixAssemblyU: 261.705 [ms]
DILUPBiCGStab:  Solving for Ux, Initial residual = 0.0205338, Final residual = 0.00171162, No Iterations 5
DILUPBiCGStab:  Solving for Uy, Initial residual = 0.0819386, Final residual = 0.00611823, No Iterations 5
DILUPBiCGStab:  Solving for Uz, Initial residual = 0.652442, Final residual = 0.0531915, No Iterations 5
[INFO] MomentumPredictor: 2950.45 [ms]
[INFO] MatrixAssemblyPI: 343.404 [ms]
[INFO] AdjustPhi: 18.835 [ms]
[INFO] ConstrainPressure: 0.003 [ms]
[INFO] MatrixAssemblyPII: 98.731 [ms]
GAMG:  Solving for p, Initial residual = 0.901992, Final residual = 5.35253e-05, No Iterations 66
[INFO] SolveP: 20615.1 [ms]
time step continuity errors : sum local = 5.89217e-09, global = 1.07048e-21, cumulative = 1.19696e-20
[INFO] ContinuityError: 47.345 [ms]
[INFO] CorrectBoundary: 2.253 [ms]
[INFO] PISOStep: 21236.6 [ms]
[INFO] MatrixAssemblyPI: 336.403 [ms]
[INFO] AdjustPhi: 18.996 [ms]
[INFO] ConstrainPressure: 0.003 [ms]
[INFO] MatrixAssemblyPII: 98.448 [ms]
GAMG:  Solving for p, Initial residual = 0.852417, Final residual = 5.12442e-05, No Iterations 61
[INFO] SolveP: 19077.3 [ms]
time step continuity errors : sum local = 5.58271e-09, global = 1.13626e-22, cumulative = 1.20832e-20
[INFO] ContinuityError: 46.353 [ms]
[INFO] CorrectBoundary: 0.979 [ms]
[INFO] PISOStep: 19690.7 [ms]
[INFO] TimeStep: 44184 [ms]
ExecutionTime = 467.65 s  ClockTime = 470 s

Time = 0.00166

Courant Number mean: 0.0383984 max: 0.483684
[INFO] MatrixAssemblyU: 260.509 [ms]
DILUPBiCGStab:  Solving for Ux, Initial residual = 0.0193392, Final residual = 0.00162775, No Iterations 5
DILUPBiCGStab:  Solving for Uy, Initial residual = 0.0736268, Final residual = 0.00530071, No Iterations 5
DILUPBiCGStab:  Solving for Uz, Initial residual = 0.572197, Final residual = 0.0350353, No Iterations 5
[INFO] MomentumPredictor: 2956.32 [ms]
[INFO] MatrixAssemblyPI: 345.068 [ms]
[INFO] AdjustPhi: 21.061 [ms]
[INFO] ConstrainPressure: 0.004 [ms]
[INFO] MatrixAssemblyPII: 98.824 [ms]
GAMG:  Solving for p, Initial residual = 0.882738, Final residual = 9.76816e-05, No Iterations 56
[INFO] SolveP: 17576.3 [ms]
time step continuity errors : sum local = 1.10564e-08, global = -3.27077e-22, cumulative = 1.17561e-20
[INFO] ContinuityError: 47.066 [ms]
[INFO] CorrectBoundary: 1.406 [ms]
[INFO] PISOStep: 18201.7 [ms]
[INFO] MatrixAssemblyPI: 336.306 [ms]
[INFO] AdjustPhi: 19.309 [ms]
[INFO] ConstrainPressure: 0.003 [ms]
[INFO] MatrixAssemblyPII: 98.694 [ms]
GAMG:  Solving for p, Initial residual = 0.813701, Final residual = 7.11943e-05, No Iterations 52
[INFO] SolveP: 16308.9 [ms]
time step continuity errors : sum local = 8.13409e-09, global = -1.48984e-22, cumulative = 1.16071e-20
[INFO] ContinuityError: 47.114 [ms]
[INFO] CorrectBoundary: 1.004 [ms]
[INFO] PISOStep: 16923.1 [ms]
[INFO] TimeStep: 38385.9 [ms]
ExecutionTime = 505.82 s  ClockTime = 508 s

Time = 0.001826

Courant Number mean: 0.0400185 max: 0.52481
[INFO] MatrixAssemblyU: 260.633 [ms]
DILUPBiCGStab:  Solving for Ux, Initial residual = 0.018155, Final residual = 0.00152013, No Iterations 5
DILUPBiCGStab:  Solving for Uy, Initial residual = 0.0719792, Final residual = 0.00511725, No Iterations 5
DILUPBiCGStab:  Solving for Uz, Initial residual = 0.591973, Final residual = 0.0426725, No Iterations 5
[INFO] MomentumPredictor: 2956.26 [ms]
[INFO] MatrixAssemblyPI: 343.286 [ms]
[INFO] AdjustPhi: 19.101 [ms]
[INFO] ConstrainPressure: 0.004 [ms]
[INFO] MatrixAssemblyPII: 98.678 [ms]
GAMG:  Solving for p, Initial residual = 0.901898, Final residual = 7.13467e-05, No Iterations 62
[INFO] SolveP: 19489.4 [ms]
time step continuity errors : sum local = 8.05218e-09, global = 5.59203e-22, cumulative = 1.21663e-20
[INFO] ContinuityError: 47.457 [ms]
[INFO] CorrectBoundary: 2.279 [ms]
[INFO] PISOStep: 20111.4 [ms]
[INFO] MatrixAssemblyPI: 336.063 [ms]
[INFO] AdjustPhi: 18.77 [ms]
[INFO] ConstrainPressure: 0.004 [ms]
[INFO] MatrixAssemblyPII: 98.688 [ms]
GAMG:  Solving for p, Initial residual = 0.847644, Final residual = 7.23537e-05, No Iterations 62
[INFO] SolveP: 19399 [ms]
time step continuity errors : sum local = 8.06403e-09, global = 8.73982e-22, cumulative = 1.30403e-20
[INFO] ContinuityError: 46.272 [ms]
[INFO] CorrectBoundary: 1.283 [ms]
[INFO] PISOStep: 20011.8 [ms]
[INFO] TimeStep: 43384.1 [ms]
ExecutionTime = 548.99 s  ClockTime = 552 s

Time = 0.001992

Courant Number mean: 0.0414512 max: 0.486765
[INFO] MatrixAssemblyU: 260.654 [ms]
DILUPBiCGStab:  Solving for Ux, Initial residual = 0.0175794, Final residual = 0.00147138, No Iterations 5
DILUPBiCGStab:  Solving for Uy, Initial residual = 0.0655139, Final residual = 0.00450135, No Iterations 5
DILUPBiCGStab:  Solving for Uz, Initial residual = 0.563383, Final residual = 0.0365245, No Iterations 5
[INFO] MomentumPredictor: 2960.24 [ms]
[INFO] MatrixAssemblyPI: 343.575 [ms]
[INFO] AdjustPhi: 18.211 [ms]
[INFO] ConstrainPressure: 0.003 [ms]
[INFO] MatrixAssemblyPII: 98.485 [ms]
GAMG:  Solving for p, Initial residual = 0.884335, Final residual = 5.30548e-05, No Iterations 60
[INFO] SolveP: 18778.2 [ms]
time step continuity errors : sum local = 6.21106e-09, global = 1.13988e-21, cumulative = 1.41802e-20
[INFO] ContinuityError: 47.09 [ms]
[INFO] CorrectBoundary: 1.871 [ms]
[INFO] PISOStep: 19399.2 [ms]
[INFO] MatrixAssemblyPI: 336.171 [ms]
[INFO] AdjustPhi: 18.302 [ms]
[INFO] ConstrainPressure: 0.004 [ms]
[INFO] MatrixAssemblyPII: 98.803 [ms]
GAMG:  Solving for p, Initial residual = 0.813972, Final residual = 9.74966e-05, No Iterations 54
[INFO] SolveP: 16906.7 [ms]
time step continuity errors : sum local = 1.15043e-08, global = 1.06365e-21, cumulative = 1.52439e-20
[INFO] ContinuityError: 46.889 [ms]
[INFO] CorrectBoundary: 1.126 [ms]
[INFO] PISOStep: 17519.2 [ms]
[INFO] TimeStep: 40184.3 [ms]
ExecutionTime = 588.98 s  ClockTime = 592 s

Time = 0.002158

Courant Number mean: 0.0428487 max: 0.53249
[INFO] MatrixAssemblyU: 261.036 [ms]
DILUPBiCGStab:  Solving for Ux, Initial residual = 0.0166276, Final residual = 0.00136807, No Iterations 5
DILUPBiCGStab:  Solving for Uy, Initial residual = 0.065558, Final residual = 0.00443137, No Iterations 5
DILUPBiCGStab:  Solving for Uz, Initial residual = 0.574017, Final residual = 0.0379589, No Iterations 5
[INFO] MomentumPredictor: 2952.58 [ms]
[INFO] MatrixAssemblyPI: 343.994 [ms]
[INFO] AdjustPhi: 19.065 [ms]
[INFO] ConstrainPressure: 0.004 [ms]
[INFO] MatrixAssemblyPII: 98.747 [ms]
GAMG:  Solving for p, Initial residual = 0.902603, Final residual = 9.62622e-05, No Iterations 46
[INFO] SolveP: 14447.5 [ms]
time step continuity errors : sum local = 1.12646e-08, global = 1.02284e-21, cumulative = 1.62667e-20
[INFO] ContinuityError: 46.784 [ms]
[INFO] CorrectBoundary: 1.095 [ms]
[INFO] PISOStep: 15068.5 [ms]
[INFO] MatrixAssemblyPI: 336.042 [ms]
[INFO] AdjustPhi: 22.547 [ms]
[INFO] ConstrainPressure: 0.004 [ms]
[INFO] MatrixAssemblyPII: 98.688 [ms]
GAMG:  Solving for p, Initial residual = 0.844709, Final residual = 9.03402e-05, No Iterations 31
[INFO] SolveP: 9744.21 [ms]
time step continuity errors : sum local = 1.0471e-08, global = 5.61288e-22, cumulative = 1.6828e-20
[INFO] ContinuityError: 46.947 [ms]
[INFO] CorrectBoundary: 1.586 [ms]
[INFO] PISOStep: 10360.6 [ms]
[INFO] TimeStep: 28687.2 [ms]
ExecutionTime = 617.51 s  ClockTime = 620 s

Time = 0.002324

Courant Number mean: 0.044091 max: 0.489805
[INFO] MatrixAssemblyU: 260.861 [ms]
DILUPBiCGStab:  Solving for Ux, Initial residual = 0.0164108, Final residual = 0.00134624, No Iterations 5
DILUPBiCGStab:  Solving for Uy, Initial residual = 0.0604311, Final residual = 0.00393283, No Iterations 5
DILUPBiCGStab:  Solving for Uz, Initial residual = 0.572989, Final residual = 0.03981, No Iterations 5
[INFO] MomentumPredictor: 2954.69 [ms]
[INFO] MatrixAssemblyPI: 343.965 [ms]
[INFO] AdjustPhi: 19.014 [ms]
[INFO] ConstrainPressure: 0.004 [ms]
[INFO] MatrixAssemblyPII: 98.839 [ms]
GAMG:  Solving for p, Initial residual = 0.886831, Final residual = 8.98586e-05, No Iterations 50
[INFO] SolveP: 15663.2 [ms]
time step continuity errors : sum local = 1.09346e-08, global = 1.2162e-21, cumulative = 1.80442e-20
[INFO] ContinuityError: 46.527 [ms]
[INFO] CorrectBoundary: 1.102 [ms]
[INFO] PISOStep: 16283.7 [ms]
[INFO] MatrixAssemblyPI: 336.49 [ms]
[INFO] AdjustPhi: 19.162 [ms]
[INFO] ConstrainPressure: 0.004 [ms]
[INFO] MatrixAssemblyPII: 98.265 [ms]
GAMG:  Solving for p, Initial residual = 0.815428, Final residual = 9.56119e-05, No Iterations 53
[INFO] SolveP: 16593.9 [ms]
time step continuity errors : sum local = 1.1768e-08, global = 2.08759e-21, cumulative = 2.01318e-20
[INFO] ContinuityError: 46.641 [ms]
[INFO] CorrectBoundary: 1.152 [ms]
[INFO] PISOStep: 17208 [ms]
[INFO] TimeStep: 36751.2 [ms]
ExecutionTime = 654.08 s  ClockTime = 657 s

Time = 0.00249

Courant Number mean: 0.0453269 max: 0.541292
[INFO] MatrixAssemblyU: 260.881 [ms]
DILUPBiCGStab:  Solving for Ux, Initial residual = 0.0156446, Final residual = 0.00124572, No Iterations 5
DILUPBiCGStab:  Solving for Uy, Initial residual = 0.0613281, Final residual = 0.00393413, No Iterations 5
DILUPBiCGStab:  Solving for Uz, Initial residual = 0.586158, Final residual = 0.0401097, No Iterations 5
[INFO] MomentumPredictor: 2953.55 [ms]
[INFO] MatrixAssemblyPI: 343.413 [ms]
[INFO] AdjustPhi: 19.758 [ms]
[INFO] ConstrainPressure: 0.004 [ms]
[INFO] MatrixAssemblyPII: 98.498 [ms]
GAMG:  Solving for p, Initial residual = 0.903497, Final residual = 9.54668e-05, No Iterations 43
[INFO] SolveP: 13482.5 [ms]
time step continuity errors : sum local = 1.16807e-08, global = 5.45609e-22, cumulative = 2.06774e-20
[INFO] ContinuityError: 46.892 [ms]
[INFO] CorrectBoundary: 2.101 [ms]
[INFO] PISOStep: 14104.1 [ms]
[INFO] MatrixAssemblyPI: 337.871 [ms]
[INFO] AdjustPhi: 17.866 [ms]
[INFO] ConstrainPressure: 0.004 [ms]
[INFO] MatrixAssemblyPII: 98.375 [ms]
GAMG:  Solving for p, Initial residual = 0.842728, Final residual = 9.98456e-05, No Iterations 44
[INFO] SolveP: 13793.4 [ms]
time step continuity errors : sum local = 1.21697e-08, global = -2.37206e-23, cumulative = 2.06537e-20
[INFO] ContinuityError: 47.124 [ms]
[INFO] CorrectBoundary: 1.26 [ms]
[INFO] PISOStep: 14407 [ms]
[INFO] TimeStep: 31769.4 [ms]
ExecutionTime = 685.69 s  ClockTime = 689 s

Time = 0.002656

Courant Number mean: 0.0464248 max: 0.492879
[INFO] MatrixAssemblyU: 260.778 [ms]
DILUPBiCGStab:  Solving for Ux, Initial residual = 0.0156513, Final residual = 0.0012438, No Iterations 5
DILUPBiCGStab:  Solving for Uy, Initial residual = 0.0572984, Final residual = 0.00351958, No Iterations 5
DILUPBiCGStab:  Solving for Uz, Initial residual = 0.57534, Final residual = 0.0384695, No Iterations 5
[INFO] MomentumPredictor: 2953.07 [ms]
[INFO] MatrixAssemblyPI: 343.501 [ms]
[INFO] AdjustPhi: 19.066 [ms]
[INFO] ConstrainPressure: 0.004 [ms]
[INFO] MatrixAssemblyPII: 98.981 [ms]
GAMG:  Solving for p, Initial residual = 0.889819, Final residual = 9.94218e-05, No Iterations 46
[INFO] SolveP: 14427.1 [ms]
time step continuity errors : sum local = 1.26561e-08, global = 4.68148e-22, cumulative = 2.11218e-20
[INFO] ContinuityError: 46.868 [ms]
[INFO] CorrectBoundary: 1.227 [ms]
[INFO] PISOStep: 15048.8 [ms]
[INFO] MatrixAssemblyPI: 335.892 [ms]
[INFO] AdjustPhi: 18.582 [ms]
[INFO] ConstrainPressure: 0.004 [ms]
[INFO] MatrixAssemblyPII: 98.484 [ms]
GAMG:  Solving for p, Initial residual = 0.817482, Final residual = 7.63262e-05, No Iterations 55
[INFO] SolveP: 17196.5 [ms]
time step continuity errors : sum local = 9.7722e-09, global = -3.56513e-22, cumulative = 2.07653e-20
[INFO] ContinuityError: 47.542 [ms]
[INFO] CorrectBoundary: 1.31 [ms]
[INFO] PISOStep: 17809.7 [ms]
[INFO] TimeStep: 36116.9 [ms]
ExecutionTime = 721.61 s  ClockTime = 725 s

Time = 0.002822

Courant Number mean: 0.0475356 max: 0.551525
[INFO] MatrixAssemblyU: 260.727 [ms]
DILUPBiCGStab:  Solving for Ux, Initial residual = 0.015057, Final residual = 0.00114837, No Iterations 5
DILUPBiCGStab:  Solving for Uy, Initial residual = 0.0586412, Final residual = 0.00356149, No Iterations 5
DILUPBiCGStab:  Solving for Uz, Initial residual = 0.580696, Final residual = 0.0369846, No Iterations 5
[INFO] MomentumPredictor: 2955.61 [ms]
[INFO] MatrixAssemblyPI: 343.442 [ms]
[INFO] AdjustPhi: 19.158 [ms]
[INFO] ConstrainPressure: 0.004 [ms]
[INFO] MatrixAssemblyPII: 98.789 [ms]
GAMG:  Solving for p, Initial residual = 0.905022, Final residual = 9.49302e-05, No Iterations 40
[INFO] SolveP: 12564.2 [ms]
time step continuity errors : sum local = 1.21841e-08, global = 2.45239e-21, cumulative = 2.32177e-20
[INFO] ContinuityError: 46.546 [ms]
[INFO] CorrectBoundary: 1.026 [ms]
[INFO] PISOStep: 13183.9 [ms]
[INFO] MatrixAssemblyPI: 335.879 [ms]
[INFO] AdjustPhi: 19.242 [ms]
[INFO] ConstrainPressure: 0.003 [ms]
[INFO] MatrixAssemblyPII: 98.236 [ms]
GAMG:  Solving for p, Initial residual = 0.841162, Final residual = 9.52681e-05, No Iterations 39
[INFO] SolveP: 12207.7 [ms]
time step continuity errors : sum local = 1.21788e-08, global = -8.5094e-22, cumulative = 2.23667e-20
[INFO] ContinuityError: 46.663 [ms]
[INFO] CorrectBoundary: 1.277 [ms]
[INFO] PISOStep: 12820.5 [ms]
[INFO] TimeStep: 29264.8 [ms]
ExecutionTime = 750.72 s  ClockTime = 754 s

Time = 0.002988

Courant Number mean: 0.0485186 max: 0.496237
[INFO] MatrixAssemblyU: 261.411 [ms]
DILUPBiCGStab:  Solving for Ux, Initial residual = 0.0152004, Final residual = 0.00115813, No Iterations 5
DILUPBiCGStab:  Solving for Uy, Initial residual = 0.0555558, Final residual = 0.00321197, No Iterations 5
DILUPBiCGStab:  Solving for Uz, Initial residual = 0.574101, Final residual = 0.0364222, No Iterations 5
[INFO] MomentumPredictor: 2954.32 [ms]
[INFO] MatrixAssemblyPI: 343.711 [ms]
[INFO] AdjustPhi: 18.275 [ms]
[INFO] ConstrainPressure: 0.004 [ms]
[INFO] MatrixAssemblyPII: 98.776 [ms]
GAMG:  Solving for p, Initial residual = 0.894554, Final residual = 9.75766e-05, No Iterations 46
[INFO] SolveP: 14430.5 [ms]
time step continuity errors : sum local = 1.30241e-08, global = -1.42372e-21, cumulative = 2.0943e-20
[INFO] ContinuityError: 46.2 [ms]
[INFO] CorrectBoundary: 1.301 [ms]
[INFO] PISOStep: 15050.5 [ms]
[INFO] MatrixAssemblyPI: 336.34 [ms]
[INFO] AdjustPhi: 20.409 [ms]
[INFO] ConstrainPressure: 0.004 [ms]
[INFO] MatrixAssemblyPII: 98.455 [ms]
GAMG:  Solving for p, Initial residual = 0.820803, Final residual = 9.55362e-05, No Iterations 52
[INFO] SolveP: 16262.1 [ms]
time step continuity errors : sum local = 1.282e-08, global = -8.94055e-22, cumulative = 2.0049e-20
[INFO] ContinuityError: 46.663 [ms]
[INFO] CorrectBoundary: 0.901 [ms]
[INFO] PISOStep: 16876.6 [ms]
[INFO] TimeStep: 35187 [ms]
ExecutionTime = 785.73 s  ClockTime = 790 s

Time = 0.003154

Courant Number mean: 0.0495318 max: 0.563349
[INFO] MatrixAssemblyU: 260.74 [ms]
DILUPBiCGStab:  Solving for Ux, Initial residual = 0.0147793, Final residual = 0.00107149, No Iterations 5
DILUPBiCGStab:  Solving for Uy, Initial residual = 0.0571701, Final residual = 0.00327912, No Iterations 5
DILUPBiCGStab:  Solving for Uz, Initial residual = 0.587169, Final residual = 0.0370431, No Iterations 5
[INFO] MomentumPredictor: 2958.9 [ms]
[INFO] MatrixAssemblyPI: 345.381 [ms]
[INFO] AdjustPhi: 18.505 [ms]
[INFO] ConstrainPressure: 0.004 [ms]
[INFO] MatrixAssemblyPII: 98.733 [ms]
GAMG:  Solving for p, Initial residual = 0.907822, Final residual = 6.37548e-05, No Iterations 56
[INFO] SolveP: 17517.2 [ms]
time step continuity errors : sum local = 8.61559e-09, global = -5.21202e-22, cumulative = 1.95278e-20
[INFO] ContinuityError: 47.476 [ms]
[INFO] CorrectBoundary: 1.806 [ms]
[INFO] PISOStep: 18141.6 [ms]
[INFO] MatrixAssemblyPI: 336.35 [ms]
[INFO] AdjustPhi: 18.523 [ms]
[INFO] ConstrainPressure: 0.004 [ms]
[INFO] MatrixAssemblyPII: 98.573 [ms]
GAMG:  Solving for p, Initial residual = 0.841212, Final residual = 9.50354e-05, No Iterations 43
[INFO] SolveP: 13476.4 [ms]
time step continuity errors : sum local = 1.27946e-08, global = 3.83118e-22, cumulative = 1.99109e-20
[INFO] ContinuityError: 46.559 [ms]
[INFO] CorrectBoundary: 1.101 [ms]
[INFO] PISOStep: 14088.3 [ms]
[INFO] TimeStep: 35493.1 [ms]
ExecutionTime = 821.05 s  ClockTime = 825 s

Time = 0.00332

Courant Number mean: 0.0504217 max: 0.499858
[INFO] MatrixAssemblyU: 260.379 [ms]
DILUPBiCGStab:  Solving for Ux, Initial residual = 0.015027, Final residual = 0.00108747, No Iterations 5
DILUPBiCGStab:  Solving for Uy, Initial residual = 0.0548633, Final residual = 0.00298549, No Iterations 5
DILUPBiCGStab:  Solving for Uz, Initial residual = 0.570938, Final residual = 0.032722, No Iterations 5
[INFO] MomentumPredictor: 2954.45 [ms]
[INFO] MatrixAssemblyPI: 344.101 [ms]
[INFO] AdjustPhi: 19.091 [ms]
[INFO] ConstrainPressure: 0.004 [ms]
[INFO] MatrixAssemblyPII: 98.652 [ms]
GAMG:  Solving for p, Initial residual = 0.900053, Final residual = 9.921e-05, No Iterations 59
[INFO] SolveP: 18458.6 [ms]
time step continuity errors : sum local = 1.39156e-08, global = 1.1819e-21, cumulative = 2.10928e-20
[INFO] ContinuityError: 47.35 [ms]
[INFO] CorrectBoundary: 2.682 [ms]
[INFO] PISOStep: 19081 [ms]
[INFO] MatrixAssemblyPI: 336.135 [ms]
[INFO] AdjustPhi: 19.113 [ms]
[INFO] ConstrainPressure: 0.004 [ms]
[INFO] MatrixAssemblyPII: 98.863 [ms]
GAMG:  Solving for p, Initial residual = 0.825306, Final residual = 9.86787e-05, No Iterations 52
[INFO] SolveP: 16279.2 [ms]
time step continuity errors : sum local = 1.39317e-08, global = 2.82725e-22, cumulative = 2.13755e-20
[INFO] ContinuityError: 46.47 [ms]
[INFO] CorrectBoundary: 1.192 [ms]
[INFO] PISOStep: 16892.9 [ms]
[INFO] TimeStep: 39233.3 [ms]
ExecutionTime = 860.08 s  ClockTime = 864 s

End

Finalising parallel run
