/*---------------------------------------------------------------------------*\
| =========                 |                                                 |
| \\      /  F ield         | OpenFOAM: The Open Source CFD Toolbox           |
|  \\    /   O peration     | Version:  2306                                  |
|   \\  /    A nd           | Website:  www.openfoam.com                      |
|    \\/     M anipulation  |                                                 |
\*---------------------------------------------------------------------------*/
Build  : a6e826bd55-20230630 OPENFOAM=2306 version=v2306
Arch   : "LSB;label=32;scalar=64"
Exec   : icoFoam -parallel -case /tmp/lidDrivenCavity/workspace/4a410e028953f41b9c131ddfce63e078/case
Date   : Jan 09 2024
Time   : 21:20:07
Host   : nla-gpu2.ianm.kit.edu
PID    : 397711
I/O    : uncollated
Case   : /tmp/lidDrivenCavity/workspace/4a410e028953f41b9c131ddfce63e078/case
nProcs : 8
Hosts  :
(
    (nla-gpu2.ianm.kit.edu 8)
)
Pstream initialized with:
    floatTransfer      : false
    nProcsSimpleSum    : 0
    nonBlockingExchange: 0 (tuning: 0)
    exchange algorithm : -1
    commsType          : nonBlocking
    polling iterations : 0
trapFpe: Floating point exception trapping enabled (FOAM_SIGFPE).
fileModificationChecking : Monitoring run-time modified files using timeStampMaster (fileModificationSkew 5, maxFileModificationPolls 20)
allowSystemOperations : Allowing user-supplied system call operations

// * * * * * * * * * * * * * * * * * * * * * * * * * * * * * * * * * * * * * //
Create time

--> FOAM Warning : 
    From void* Foam::dlLibraryTable::openLibrary(const Foam::fileName&, bool)
    in file db/dynamicLibrary/dlLibraryTable/dlLibraryTable.C at line 188
    Could not load "libpetscFoam.so"
libpetscFoam.so: cannot open shared object file: No such file or directory
Create mesh for time = 0


PISO: Operating solver in PISO mode

Reading transportProperties

Reading field p

Reading field U

Reading/calculating face flux field phi


Starting time loop

Time = 0.0005

Courant Number mean: 8.62851e-18 max: 8.67362e-15
[INFO] MatrixAssemblyU: 13.914 [ms]
DILUPBiCGStab:  Solving for Ux, Initial residual = 1, Final residual = 0.0025649, No Iterations 5
DILUPBiCGStab:  Solving for Uy:  solution singularity
DILUPBiCGStab:  Solving for Uz:  solution singularity
[INFO] MomentumPredictor: 60.551 [ms]
[INFO] MatrixAssemblyPI: 11.118 [ms]
[INFO] AdjustPhi: 0.959 [ms]
[INFO] ConstrainPressure: 0.009 [ms]
[INFO] MatrixAssemblyPII: 3.309 [ms]
[2] 
[2] 
[2] --> FOAM FATAL IO ERROR: (openfoam-2306)
[2] Entry 'smoother' not found in dictionary ""
[2] 
[2] 
[2]     From const Foam::entry& Foam::dictionary::lookupEntry(const Foam::word&, Foam::keyType::option) const
[2]     in file db/dictionary/dictionary.C at line 375.
[2] 
FOAM parallel run exiting
[2] 
[4] 
[4] 
[4] --> FOAM FATAL IO ERROR: (openfoam-2306)
[4] Entry 'smoother' not found in dictionary ""
[4] 
[4] 
[4]     From const Foam::entry& Foam::dictionary::lookupEntry(const Foam::word&, Foam::keyType::option) const
[4]     in file db/dictionary/dictionary.C at line 375.
[4] 
FOAM parallel run exiting
[4] 
application called MPI_Abort(MPI_COMM_WORLD, 1) - process 4
[cli_4]: aborting job:
application called MPI_Abort(MPI_COMM_WORLD, 1) - process 4
[5] 
[5] 
[5] --> FOAM FATAL IO ERROR: (openfoam-2306)
[5] Entry 'smoother' not found in dictionary ""
[5] 
[5] 
[5]     From const Foam::entry& Foam::dictionary::lookupEntry(const Foam::word&, Foam::keyType::option) const
[5]     in file db/dictionary/dictionary.C at line 375.
[5] 
FOAM parallel run exiting
[5] 
application called MPI_Abort(MPI_COMM_WORLD, 1) - process 5
[cli_5]: aborting job:
application called MPI_Abort(MPI_COMM_WORLD, 1) - process 5
[7] 
[7] 
[7] --> FOAM FATAL IO ERROR: (openfoam-2306)
[7] Entry 'smoother' not found in dictionary ""
[7] 
[7] 
[7]     From const Foam::entry& Foam::dictionary::lookupEntry(const Foam::word&, Foam::keyType::option) const
[7]     in file db/dictionary/dictionary.C at line 375.
[7] 
FOAM parallel run exiting
[7] 
application called MPI_Abort(MPI_COMM_WORLD, 1) - process 7
[cli_7]: aborting job:
application called MPI_Abort(MPI_COMM_WORLD, 1) - process 7
[0] 
[0] 
[0] --> FOAM FATAL IO ERROR: (openfoam-2306)
[0] Entry 'smoother' not found in dictionary ""
[0] 
[0] 
[0]     From const Foam::entry& Foam::dictionary::lookupEntry(const Foam::word&, Foam::keyType::option) const
[0]     in file db/dictionary/dictionary.C at line 375.
[0] 
FOAM parallel run exiting
[0] 
application called MPI_Abort(MPI_COMM_WORLD, 1) - process 0
[cli_0]: aborting job:
application called MPI_Abort(MPI_COMM_WORLD, 1) - process 0
[1] 
[1] 
[1] --> FOAM FATAL IO ERROR: (openfoam-2306)
[1] Entry 'smoother' not found in dictionary ""
[1] 
[1] 
[1]     From const Foam::entry& Foam::dictionary::lookupEntry(const Foam::word&, Foam::keyType::option) const
[1]     in file db/dictionary/dictionary.C at line 375.
[1] 
FOAM parallel run exiting
[1] 
application called MPI_Abort(MPI_COMM_WORLD, 1) - process 1
[cli_1]: aborting job:
application called MPI_Abort(MPI_COMM_WORLD, 1) - process 1
application called MPI_Abort(MPI_COMM_WORLD, 1) - process 2
[cli_2]: aborting job:
application called MPI_Abort(MPI_COMM_WORLD, 1) - process 2
[3] 
[3] 
[3] --> FOAM FATAL IO ERROR: (openfoam-2306)
[3] Entry 'smoother' not found in dictionary ""
[3] 
[3] 
[3]     From const Foam::entry& Foam::dictionary::lookupEntry(const Foam::word&, Foam::keyType::option) const
[3]     in file db/dictionary/dictionary.C at line 375.
[3] 
FOAM parallel run exiting
[3] 
application called MPI_Abort(MPI_COMM_WORLD, 1) - process 3
[cli_3]: aborting job:
application called MPI_Abort(MPI_COMM_WORLD, 1) - process 3
[6] 
[6] 
[6] --> FOAM FATAL IO ERROR: (openfoam-2306)
[6] Entry 'smoother' not found in dictionary ""
[6] 
[6] 
[6]     From const Foam::entry& Foam::dictionary::lookupEntry(const Foam::word&, Foam::keyType::option) const
[6]     in file db/dictionary/dictionary.C at line 375.
[6] 
FOAM parallel run exiting
[6] 
application called MPI_Abort(MPI_COMM_WORLD, 1) - process 6
[cli_6]: aborting job:
application called MPI_Abort(MPI_COMM_WORLD, 1) - process 6
