/*---------------------------------------------------------------------------*\
| =========                 |                                                 |
| \\      /  F ield         | OpenFOAM: The Open Source CFD Toolbox           |
|  \\    /   O peration     | Version:  2306                                  |
|   \\  /    A nd           | Website:  www.openfoam.com                      |
|    \\/     M anipulation  |                                                 |
\*---------------------------------------------------------------------------*/
Build  : a6e826bd55-20230630 OPENFOAM=2306 version=v2306
Arch   : "LSB;label=32;scalar=64"
Exec   : icoFoam -parallel -case /home/greole/data/code/exasim_project/micro_benchmarks/LidDrivenCavity3D/workspace/77c1b5129f7be6f2fb50bf97d0b836c1/case
Date   : Jul 05 2023
Time   : 21:36:19
Host   : nla-gpu2.ianm.kit.edu
PID    : 65219
I/O    : uncollated
Case   : /home/greole/data/code/exasim_project/micro_benchmarks/LidDrivenCavity3D/workspace/77c1b5129f7be6f2fb50bf97d0b836c1/case
nProcs : 16
Hosts  :
(
    (nla-gpu2.ianm.kit.edu 16)
)
Pstream initialized with:
    floatTransfer      : false
    nProcsSimpleSum    : 0
    nonBlockingExchange: 0 (tuning: 0)
    exchange algorithm : -1
    commsType          : nonBlocking
    polling iterations : 0
trapFpe: Floating point exception trapping enabled (FOAM_SIGFPE).
fileModificationChecking : Monitoring run-time modified files using timeStampMaster (fileModificationSkew 5, maxFileModificationPolls 20)
allowSystemOperations : Allowing user-supplied system call operations

// * * * * * * * * * * * * * * * * * * * * * * * * * * * * * * * * * * * * * //
Create time

--> FOAM Warning : 
    From void* Foam::dlLibraryTable::openLibrary(const Foam::fileName&, bool)
    in file db/dynamicLibrary/dlLibraryTable/dlLibraryTable.C at line 188
    Could not load "libpetscFoam.so"
libpetscFoam.so: cannot open shared object file: No such file or directory
Create mesh for time = 0


PISO: Operating solver in PISO mode

Reading transportProperties

Reading field p

Reading field U

Reading/calculating face flux field phi


Starting time loop

Time = 0.000166

Courant Number mean: 8.14055e-18 max: 3.11001e-14
[INFO] MatrixAssemblyU: 246.728 [ms]
DILUPBiCGStab:  Solving for Ux, Initial residual = 1, Final residual = 0.0163135, No Iterations 5
DILUPBiCGStab:  Solving for Uy:  solution singularity
DILUPBiCGStab:  Solving for Uz:  solution singularity
[INFO] MomentumPredictor: 951.903 [ms]
[INFO] MatrixAssemblyPI: 250.957 [ms]
[INFO] AdjustPhi: 12.371 [ms]
[INFO] ConstrainPressure: 0.014 [ms]
[INFO] MatrixAssemblyPII: 71.249 [ms]
[OGL LOG][lduLduBase.H:122] Initialising OGL
	OGL commit:  13e9788+
	Branch: device_guard 
	Build type: Release
	Ginkgo version: 1.5.0 ( develop)
	Ginkgo commit: 4292ffdee
	MPI is GPU aware: 1
	Forces host buffer based communication: 0
	CPU ranks per GPU: 1
	Matrix format: Coo
	End OGL_INFO
[OGL LOG][Proc: 0]: global_index_init: 12.245 [ms]
[OGL LOG][Proc: 0]p_local_cols: call_init: 0.045 [ms]
[OGL LOG][Proc: 0]p_local_rows: call_init: 0.011 [ms]
[OGL LOG][Proc: 0]p_local_ldu_map: call_init: 0.005 [ms]
[OGL LOG][Proc: 0]p_local_coeffs: call_init: 0.013 [ms]
[OGL LOG][Proc: 0]p_non_local_cols: call_init: 0.003 [ms]
[OGL LOG][Proc: 0]p_non_local_rows: call_init: 0.002 [ms]
[OGL LOG][Proc: 0]p_non_local_ldu_map: call_init: 0.002 [ms]
[OGL LOG][Proc: 0]p_non_local_coeffs: call_init: 0.002 [ms]
[OGL LOG][Proc: 0]p: init_local_sparsity_pattern: 275.94 [ms]
[OGL LOG][Proc: 0]p: init_non_local_sparsity_pattern: 2.48 [ms]
[OGL LOG][Proc: 0]p: update_local_matrix_data: 37.169 [ms]
[OGL LOG][Proc: 0]p: update_non_local_matrix_data: 0.209 [ms]
[OGL LOG][Proc: 0]device_partition: call_init: 26.421 [ms]
[OGL LOG][Proc: 0]p_matrix: call_init: 155.75 [ms]
[OGL LOG][Proc: 0]p_rhs: call_init: 14.002 [ms]
[OGL LOG][Proc: 0]p_solution: call_init: 1.716 [ms]
[OGL LOG][Preconditioner.H:121] Generate preconditioner BJ MaxBlockSize 1
[OGL LOG][Proc: 0]p: init_precond: 4.704 [ms]
[OGL LOG][StoppingCriterion.H:372] Creating stopping criterion with minIter 0 frequency 1
[OGL LOG][Proc: 0]p: generate_solver: 0.011 [ms]
[OGL LOG][Proc: 0]p: solve: 6139.49 [ms]
[OGL LOG][Proc: 0]p: copy_x_back: 5.837 [ms]
[OGL LOG][lduLduBase.H:339] 
Statistics:
	Time per iteration: 2539 [mu s]
	Time per residual norm calculation: 1570.000000 [mu s]
	Time per iteration and DOF: 0.094037 [ns]
	Retrieve results bandwidth 2.312000 [GByte/s]
[OGL LOG][Proc: 0]p: solve_multi_gpu: 6349.06 [ms]
BJhipGKOCG:  Solving for p, Initial residual = 1, Final residual = 9.76336e-05, No Iterations 2418
[INFO] SolveP: 6923.59 [ms]
time step continuity errors : sum local = 3.94521e-09, global = 1.55194e-21, cumulative = 1.55194e-21
[INFO] ContinuityError: 29.496 [ms]
[INFO] CorrectBoundary: 3.223 [ms]
[INFO] PISOStep: 7375.92 [ms]
[INFO] MatrixAssemblyPI: 238.611 [ms]
[INFO] AdjustPhi: 12.809 [ms]
[INFO] ConstrainPressure: 0.005 [ms]
[INFO] MatrixAssemblyPII: 70.84 [ms]
[OGL LOG][Proc: 0]: global_index_init: 0.104 [ms]
[OGL LOG][Proc: 0]p_local_coeffs: call_update: 0.006 [ms]
[OGL LOG][Proc: 0]p_non_local_coeffs: call_update: 0 [ms]
[OGL LOG][Proc: 0]p: update_local_matrix_data: 38.415 [ms]
[OGL LOG][Proc: 0]p: update_non_local_matrix_data: 0.237 [ms]
[OGL LOG][Proc: 0]p_matrix: call_update: 17.994 [ms]
[OGL LOG][Proc: 0]p_rhs: call_update: 2.946 [ms]
[OGL LOG][Preconditioner.H:121] Generate preconditioner BJ MaxBlockSize 1
[OGL LOG][Proc: 0]p: init_precond: 0.881 [ms]
[OGL LOG][StoppingCriterion.H:372] Creating stopping criterion with minIter 1450 frequency 31
[OGL LOG][Proc: 0]p: generate_solver: 0.002 [ms]
[OGL LOG][Proc: 0]p: solve: 4118.24 [ms]
[OGL LOG][Proc: 0]p: copy_x_back: 6.072 [ms]
[OGL LOG][lduLduBase.H:339] 
Statistics:
	Time per iteration: 1702 [mu s]
	Time per residual norm calculation: 293.000000 [mu s]
	Time per iteration and DOF: 0.063037 [ns]
	Retrieve results bandwidth 2.223000 [GByte/s]
[OGL LOG][Proc: 0]p: solve_multi_gpu: 4147.17 [ms]
BJhipGKOCG:  Solving for p, Initial residual = 0.80945, Final residual = 7.19346e-05, No Iterations 2419
[INFO] SolveP: 4195.67 [ms]
time step continuity errors : sum local = 3.54811e-09, global = 1.99739e-22, cumulative = 1.75168e-21
[INFO] ContinuityError: 31.215 [ms]
[INFO] CorrectBoundary: 3.057 [ms]
[INFO] PISOStep: 4637.05 [ms]
[INFO] TimeStep: 13242.4 [ms]
ExecutionTime = 16.06 s  ClockTime = 14 s

Time = 0.000332

Courant Number mean: 0.0128238 max: 0.426584
[INFO] MatrixAssemblyU: 214.126 [ms]
DILUPBiCGStab:  Solving for Ux, Initial residual = 0.116949, Final residual = 0.00979515, No Iterations 5
DILUPBiCGStab:  Solving for Uy, Initial residual = 0.460127, Final residual = 0.031434, No Iterations 5
DILUPBiCGStab:  Solving for Uz, Initial residual = 0.988824, Final residual = 0.0739719, No Iterations 5
[INFO] MomentumPredictor: 1809.45 [ms]
[INFO] MatrixAssemblyPI: 242.588 [ms]
[INFO] AdjustPhi: 13.204 [ms]
[INFO] ConstrainPressure: 0.004 [ms]
[INFO] MatrixAssemblyPII: 70.833 [ms]
[OGL LOG][Proc: 0]: global_index_init: 0.154 [ms]
[OGL LOG][Proc: 0]p_local_coeffs: call_update: 0 [ms]
[OGL LOG][Proc: 0]p_non_local_coeffs: call_update: 0 [ms]
[OGL LOG][Proc: 0]p: update_local_matrix_data: 38.328 [ms]
[OGL LOG][Proc: 0]p: update_non_local_matrix_data: 0.233 [ms]
[OGL LOG][Proc: 0]p_matrix: call_update: 15.802 [ms]
[OGL LOG][Proc: 0]p_rhs: call_update: 4.046 [ms]
[OGL LOG][Preconditioner.H:121] Generate preconditioner BJ MaxBlockSize 1
[OGL LOG][Proc: 0]p: init_precond: 0.95 [ms]
[OGL LOG][StoppingCriterion.H:372] Creating stopping criterion with minIter 1451 frequency 13
[OGL LOG][Proc: 0]p: generate_solver: 0.002 [ms]
[OGL LOG][Proc: 0]p: solve: 4014.66 [ms]
[OGL LOG][Proc: 0]p: copy_x_back: 6.172 [ms]
[OGL LOG][lduLduBase.H:339] 
Statistics:
	Time per iteration: 1686 [mu s]
	Time per residual norm calculation: 298.000000 [mu s]
	Time per iteration and DOF: 0.062444 [ns]
	Retrieve results bandwidth 2.187000 [GByte/s]
[OGL LOG][Proc: 0]p: solve_multi_gpu: 4042.66 [ms]
BJhipGKOCG:  Solving for p, Initial residual = 0.879103, Final residual = 8.04491e-05, No Iterations 2380
[INFO] SolveP: 4090.21 [ms]
time step continuity errors : sum local = 7.69216e-09, global = 5.01511e-22, cumulative = 2.25319e-21
[INFO] ContinuityError: 29.702 [ms]
[INFO] CorrectBoundary: 0.553 [ms]
[INFO] PISOStep: 4530.7 [ms]
[INFO] MatrixAssemblyPI: 238.695 [ms]
[INFO] AdjustPhi: 17.352 [ms]
[INFO] ConstrainPressure: 0.004 [ms]
[INFO] MatrixAssemblyPII: 70.671 [ms]
[OGL LOG][Proc: 0]: global_index_init: 0.069 [ms]
[OGL LOG][Proc: 0]p_local_coeffs: call_update: 0 [ms]
[OGL LOG][Proc: 0]p_non_local_coeffs: call_update: 0 [ms]
[OGL LOG][Proc: 0]p: update_local_matrix_data: 38.412 [ms]
[OGL LOG][Proc: 0]p: update_non_local_matrix_data: 0.163 [ms]
[OGL LOG][Proc: 0]p_matrix: call_update: 15.176 [ms]
[OGL LOG][Proc: 0]p_rhs: call_update: 3.863 [ms]
[OGL LOG][Preconditioner.H:121] Generate preconditioner BJ MaxBlockSize 1
[OGL LOG][Proc: 0]p: init_precond: 0.985 [ms]
[OGL LOG][StoppingCriterion.H:372] Creating stopping criterion with minIter 1428 frequency 13
[OGL LOG][Proc: 0]p: generate_solver: 0.002 [ms]
[OGL LOG][Proc: 0]p: solve: 4030.69 [ms]
[OGL LOG][Proc: 0]p: copy_x_back: 5.687 [ms]
[OGL LOG][lduLduBase.H:339] 
Statistics:
	Time per iteration: 1693 [mu s]
	Time per residual norm calculation: 302.000000 [mu s]
	Time per iteration and DOF: 0.062704 [ns]
	Retrieve results bandwidth 2.373000 [GByte/s]
[OGL LOG][Proc: 0]p: solve_multi_gpu: 4057.61 [ms]
BJhipGKOCG:  Solving for p, Initial residual = 0.827182, Final residual = 7.42559e-05, No Iterations 2380
[INFO] SolveP: 4104.67 [ms]
time step continuity errors : sum local = 7.23112e-09, global = 9.09761e-22, cumulative = 3.16295e-21
[INFO] ContinuityError: 29.904 [ms]
[INFO] CorrectBoundary: 1.115 [ms]
[INFO] PISOStep: 4545.26 [ms]
[INFO] TimeStep: 11130.5 [ms]
ExecutionTime = 28.82 s  ClockTime = 26 s

Time = 0.000498

Courant Number mean: 0.0197919 max: 0.491879
[INFO] MatrixAssemblyU: 213.507 [ms]
DILUPBiCGStab:  Solving for Ux, Initial residual = 0.0544433, Final residual = 0.00365179, No Iterations 5
DILUPBiCGStab:  Solving for Uy, Initial residual = 0.226344, Final residual = 0.0163738, No Iterations 5
DILUPBiCGStab:  Solving for Uz, Initial residual = 0.850273, Final residual = 0.0546526, No Iterations 5
[INFO] MomentumPredictor: 1793.73 [ms]
[INFO] MatrixAssemblyPI: 242.546 [ms]
[INFO] AdjustPhi: 12.905 [ms]
[INFO] ConstrainPressure: 0.006 [ms]
[INFO] MatrixAssemblyPII: 71.096 [ms]
[OGL LOG][Proc: 0]: global_index_init: 0.147 [ms]
[OGL LOG][Proc: 0]p_local_coeffs: call_update: 0 [ms]
[OGL LOG][Proc: 0]p_non_local_coeffs: call_update: 0 [ms]
[OGL LOG][Proc: 0]p: update_local_matrix_data: 38.401 [ms]
[OGL LOG][Proc: 0]p: update_non_local_matrix_data: 0.245 [ms]
[OGL LOG][Proc: 0]p_matrix: call_update: 25.012 [ms]
[OGL LOG][Proc: 0]p_rhs: call_update: 2.512 [ms]
[OGL LOG][Preconditioner.H:121] Generate preconditioner BJ MaxBlockSize 1
[OGL LOG][Proc: 0]p: init_precond: 4.294 [ms]
[OGL LOG][StoppingCriterion.H:372] Creating stopping criterion with minIter 1428 frequency 13
[OGL LOG][Proc: 0]p: generate_solver: 0.002 [ms]
[OGL LOG][Proc: 0]p: solve: 2445.28 [ms]
[OGL LOG][Proc: 0]p: copy_x_back: 5.368 [ms]
[OGL LOG][lduLduBase.H:339] 
Statistics:
	Time per iteration: 1708 [mu s]
	Time per residual norm calculation: 357.000000 [mu s]
	Time per iteration and DOF: 0.063259 [ns]
	Retrieve results bandwidth 2.514000 [GByte/s]
[OGL LOG][Proc: 0]p: solve_multi_gpu: 2483.49 [ms]
BJhipGKOCG:  Solving for p, Initial residual = 0.914221, Final residual = 7.03866e-05, No Iterations 1431
[INFO] SolveP: 2530.94 [ms]
time step continuity errors : sum local = 7.85482e-09, global = 9.12472e-22, cumulative = 4.07543e-21
[INFO] ContinuityError: 30.8 [ms]
[INFO] CorrectBoundary: 1.008 [ms]
[INFO] PISOStep: 2972.75 [ms]
[INFO] MatrixAssemblyPI: 235.488 [ms]
[INFO] AdjustPhi: 14.814 [ms]
[INFO] ConstrainPressure: 0.005 [ms]
[INFO] MatrixAssemblyPII: 71.115 [ms]
[OGL LOG][Proc: 0]: global_index_init: 0.041 [ms]
[OGL LOG][Proc: 0]p_local_coeffs: call_update: 0 [ms]
[OGL LOG][Proc: 0]p_non_local_coeffs: call_update: 0 [ms]
[OGL LOG][Proc: 0]p: update_local_matrix_data: 37.672 [ms]
[OGL LOG][Proc: 0]p: update_non_local_matrix_data: 0.278 [ms]
[OGL LOG][Proc: 0]p_matrix: call_update: 14.401 [ms]
[OGL LOG][Proc: 0]p_rhs: call_update: 4.749 [ms]
[OGL LOG][Preconditioner.H:121] Generate preconditioner BJ MaxBlockSize 1
[OGL LOG][Proc: 0]p: init_precond: 0.902 [ms]
[OGL LOG][StoppingCriterion.H:372] Creating stopping criterion with minIter 858 frequency 11
[OGL LOG][Proc: 0]p: generate_solver: 0.002 [ms]
[OGL LOG][Proc: 0]p: solve: 1979.84 [ms]
[OGL LOG][Proc: 0]p: copy_x_back: 5.549 [ms]
[OGL LOG][lduLduBase.H:339] 
Statistics:
	Time per iteration: 1712 [mu s]
	Time per residual norm calculation: 297.000000 [mu s]
	Time per iteration and DOF: 0.063407 [ns]
	Retrieve results bandwidth 2.432000 [GByte/s]
[OGL LOG][Proc: 0]p: solve_multi_gpu: 2007.05 [ms]
BJhipGKOCG:  Solving for p, Initial residual = 0.882783, Final residual = 8.34913e-05, No Iterations 1156
[INFO] SolveP: 2054.7 [ms]
time step continuity errors : sum local = 8.77313e-09, global = -2.17258e-22, cumulative = 3.85817e-21
[INFO] ContinuityError: 28.435 [ms]
[INFO] CorrectBoundary: 1.324 [ms]
[INFO] PISOStep: 2487.65 [ms]
[INFO] TimeStep: 7496.06 [ms]
ExecutionTime = 37.24 s  ClockTime = 33 s

Time = 0.000664

Courant Number mean: 0.0238775 max: 0.471995
[INFO] MatrixAssemblyU: 214.278 [ms]
DILUPBiCGStab:  Solving for Ux, Initial residual = 0.0385206, Final residual = 0.00293227, No Iterations 5
DILUPBiCGStab:  Solving for Uy, Initial residual = 0.174017, Final residual = 0.0133284, No Iterations 5
DILUPBiCGStab:  Solving for Uz, Initial residual = 0.735201, Final residual = 0.0386928, No Iterations 5
[INFO] MomentumPredictor: 1764.14 [ms]
[INFO] MatrixAssemblyPI: 242.344 [ms]
[INFO] AdjustPhi: 12.505 [ms]
[INFO] ConstrainPressure: 0.004 [ms]
[INFO] MatrixAssemblyPII: 70.741 [ms]
[OGL LOG][Proc: 0]: global_index_init: 0.063 [ms]
[OGL LOG][Proc: 0]p_local_coeffs: call_update: 0 [ms]
[OGL LOG][Proc: 0]p_non_local_coeffs: call_update: 0 [ms]
[OGL LOG][Proc: 0]p: update_local_matrix_data: 38.489 [ms]
[OGL LOG][Proc: 0]p: update_non_local_matrix_data: 0.19 [ms]
[OGL LOG][Proc: 0]p_matrix: call_update: 13.169 [ms]
[OGL LOG][Proc: 0]p_rhs: call_update: 4.947 [ms]
[OGL LOG][Preconditioner.H:121] Generate preconditioner BJ MaxBlockSize 1
[OGL LOG][Proc: 0]p: init_precond: 0.961 [ms]
[OGL LOG][StoppingCriterion.H:372] Creating stopping criterion with minIter 693 frequency 9
[OGL LOG][Proc: 0]p: generate_solver: 0.002 [ms]
[OGL LOG][Proc: 0]p: solve: 2007.35 [ms]
[OGL LOG][Proc: 0]p: copy_x_back: 5.407 [ms]
[OGL LOG][lduLduBase.H:339] 
Statistics:
	Time per iteration: 1740 [mu s]
	Time per residual norm calculation: 299.000000 [mu s]
	Time per iteration and DOF: 0.064444 [ns]
	Retrieve results bandwidth 2.496000 [GByte/s]
[OGL LOG][Proc: 0]p: solve_multi_gpu: 2033.14 [ms]
BJhipGKOCG:  Solving for p, Initial residual = 0.891174, Final residual = 9.40408e-05, No Iterations 1153
[INFO] SolveP: 2080.66 [ms]
time step continuity errors : sum local = 1.13138e-08, global = 3.81727e-22, cumulative = 4.2399e-21
[INFO] ContinuityError: 30.849 [ms]
[INFO] CorrectBoundary: 0.819 [ms]
[INFO] PISOStep: 2520.28 [ms]
[INFO] MatrixAssemblyPI: 234.824 [ms]
[INFO] AdjustPhi: 15.555 [ms]
[INFO] ConstrainPressure: 0.005 [ms]
[INFO] MatrixAssemblyPII: 70.559 [ms]
[OGL LOG][Proc: 0]: global_index_init: 0.068 [ms]
[OGL LOG][Proc: 0]p_local_coeffs: call_update: 0 [ms]
[OGL LOG][Proc: 0]p_non_local_coeffs: call_update: 0 [ms]
[OGL LOG][Proc: 0]p: update_local_matrix_data: 37.999 [ms]
[OGL LOG][Proc: 0]p: update_non_local_matrix_data: 0.168 [ms]
[OGL LOG][Proc: 0]p_matrix: call_update: 15.769 [ms]
[OGL LOG][Proc: 0]p_rhs: call_update: 4.615 [ms]
[OGL LOG][Preconditioner.H:121] Generate preconditioner BJ MaxBlockSize 1
[OGL LOG][Proc: 0]p: init_precond: 0.796 [ms]
[OGL LOG][StoppingCriterion.H:372] Creating stopping criterion with minIter 691 frequency 9
[OGL LOG][Proc: 0]p: generate_solver: 0.002 [ms]
[OGL LOG][Proc: 0]p: solve: 1961 [ms]
[OGL LOG][Proc: 0]p: copy_x_back: 5.243 [ms]
[OGL LOG][lduLduBase.H:339] 
Statistics:
	Time per iteration: 1714 [mu s]
	Time per residual norm calculation: 296.000000 [mu s]
	Time per iteration and DOF: 0.063481 [ns]
	Retrieve results bandwidth 2.574000 [GByte/s]
[OGL LOG][Proc: 0]p: solve_multi_gpu: 1988.67 [ms]
BJhipGKOCG:  Solving for p, Initial residual = 0.83099, Final residual = 9.39814e-05, No Iterations 1144
[INFO] SolveP: 2036.59 [ms]
time step continuity errors : sum local = 1.09475e-08, global = 7.12864e-23, cumulative = 4.31118e-21
[INFO] ContinuityError: 30.101 [ms]
[INFO] CorrectBoundary: 0.78 [ms]
[INFO] PISOStep: 2470.01 [ms]
[INFO] TimeStep: 6998.6 [ms]
ExecutionTime = 45.04 s  ClockTime = 40 s

Time = 0.00083

Courant Number mean: 0.0273919 max: 0.505182
[INFO] MatrixAssemblyU: 213.459 [ms]
DILUPBiCGStab:  Solving for Ux, Initial residual = 0.032427, Final residual = 0.00250821, No Iterations 5
DILUPBiCGStab:  Solving for Uy, Initial residual = 0.129831, Final residual = 0.0113454, No Iterations 5
DILUPBiCGStab:  Solving for Uz, Initial residual = 0.685436, Final residual = 0.0343283, No Iterations 5
[INFO] MomentumPredictor: 1782.94 [ms]
[INFO] MatrixAssemblyPI: 241.855 [ms]
[INFO] AdjustPhi: 12.993 [ms]
[INFO] ConstrainPressure: 0.005 [ms]
[INFO] MatrixAssemblyPII: 70.904 [ms]
[OGL LOG][Proc: 0]: global_index_init: 0.064 [ms]
[OGL LOG][Proc: 0]p_local_coeffs: call_update: 0 [ms]
[OGL LOG][Proc: 0]p_non_local_coeffs: call_update: 0 [ms]
[OGL LOG][Proc: 0]p: update_local_matrix_data: 37.996 [ms]
[OGL LOG][Proc: 0]p: update_non_local_matrix_data: 0.272 [ms]
[OGL LOG][Proc: 0]p_matrix: call_update: 14.137 [ms]
[OGL LOG][Proc: 0]p_rhs: call_update: 6.238 [ms]
[OGL LOG][Preconditioner.H:121] Generate preconditioner BJ MaxBlockSize 1
[OGL LOG][Proc: 0]p: init_precond: 0.946 [ms]
[OGL LOG][StoppingCriterion.H:372] Creating stopping criterion with minIter 686 frequency 9
[OGL LOG][Proc: 0]p: generate_solver: 0.002 [ms]
[OGL LOG][Proc: 0]p: solve: 3627.52 [ms]
[OGL LOG][Proc: 0]p: copy_x_back: 6.15 [ms]
[OGL LOG][lduLduBase.H:339] 
Statistics:
	Time per iteration: 1671 [mu s]
	Time per residual norm calculation: 293.000000 [mu s]
	Time per iteration and DOF: 0.061889 [ns]
	Retrieve results bandwidth 2.195000 [GByte/s]
[OGL LOG][Proc: 0]p: solve_multi_gpu: 3656.02 [ms]
BJhipGKOCG:  Solving for p, Initial residual = 0.911488, Final residual = 8.91297e-05, No Iterations 2170
[INFO] SolveP: 3704.23 [ms]
time step continuity errors : sum local = 9.91837e-09, global = -3.93931e-22, cumulative = 3.91725e-21
[INFO] ContinuityError: 29.334 [ms]
[INFO] CorrectBoundary: 1.067 [ms]
[INFO] PISOStep: 4143.81 [ms]
[INFO] MatrixAssemblyPI: 235.626 [ms]
[INFO] AdjustPhi: 13.317 [ms]
[INFO] ConstrainPressure: 0.005 [ms]
[INFO] MatrixAssemblyPII: 71.024 [ms]
[OGL LOG][Proc: 0]: global_index_init: 0.037 [ms]
[OGL LOG][Proc: 0]p_local_coeffs: call_update: 0 [ms]
[OGL LOG][Proc: 0]p_non_local_coeffs: call_update: 0 [ms]
[OGL LOG][Proc: 0]p: update_local_matrix_data: 38.272 [ms]
[OGL LOG][Proc: 0]p: update_non_local_matrix_data: 0.18 [ms]
[OGL LOG][Proc: 0]p_matrix: call_update: 22.441 [ms]
[OGL LOG][Proc: 0]p_rhs: call_update: 7.048 [ms]
[OGL LOG][Preconditioner.H:121] Generate preconditioner BJ MaxBlockSize 1
[OGL LOG][Proc: 0]p: init_precond: 0.951 [ms]
[OGL LOG][StoppingCriterion.H:372] Creating stopping criterion with minIter 1302 frequency 13
[OGL LOG][Proc: 0]p: generate_solver: 0.002 [ms]
[OGL LOG][Proc: 0]p: solve: 3660.91 [ms]
[OGL LOG][Proc: 0]p: copy_x_back: 5.732 [ms]
[OGL LOG][lduLduBase.H:339] 
Statistics:
	Time per iteration: 1695 [mu s]
	Time per residual norm calculation: 306.000000 [mu s]
	Time per iteration and DOF: 0.062778 [ns]
	Retrieve results bandwidth 2.355000 [GByte/s]
[OGL LOG][Proc: 0]p: solve_multi_gpu: 3698.29 [ms]
BJhipGKOCG:  Solving for p, Initial residual = 0.87338, Final residual = 9.95026e-05, No Iterations 2159
[INFO] SolveP: 3745.3 [ms]
time step continuity errors : sum local = 1.09316e-08, global = 4.88419e-22, cumulative = 4.40567e-21
[INFO] ContinuityError: 29.082 [ms]
[INFO] CorrectBoundary: 0.817 [ms]
[INFO] PISOStep: 4177.12 [ms]
[INFO] TimeStep: 10346.4 [ms]
ExecutionTime = 57.02 s  ClockTime = 50 s

Time = 0.000996

Courant Number mean: 0.0301231 max: 0.478356
[INFO] MatrixAssemblyU: 211.029 [ms]
DILUPBiCGStab:  Solving for Ux, Initial residual = 0.0270604, Final residual = 0.00226321, No Iterations 5
DILUPBiCGStab:  Solving for Uy, Initial residual = 0.112071, Final residual = 0.00907306, No Iterations 5
DILUPBiCGStab:  Solving for Uz, Initial residual = 0.592796, Final residual = 0.0278655, No Iterations 5
[INFO] MomentumPredictor: 1777.87 [ms]
[INFO] MatrixAssemblyPI: 242.409 [ms]
[INFO] AdjustPhi: 14.352 [ms]
[INFO] ConstrainPressure: 0.004 [ms]
[INFO] MatrixAssemblyPII: 71.241 [ms]
[OGL LOG][Proc: 0]: global_index_init: 0.074 [ms]
[OGL LOG][Proc: 0]p_local_coeffs: call_update: 0 [ms]
[OGL LOG][Proc: 0]p_non_local_coeffs: call_update: 0 [ms]
[OGL LOG][Proc: 0]p: update_local_matrix_data: 37.882 [ms]
[OGL LOG][Proc: 0]p: update_non_local_matrix_data: 0.259 [ms]
[OGL LOG][Proc: 0]p_matrix: call_update: 13.454 [ms]
[OGL LOG][Proc: 0]p_rhs: call_update: 5.173 [ms]
[OGL LOG][Preconditioner.H:121] Generate preconditioner BJ MaxBlockSize 1
[OGL LOG][Proc: 0]p: init_precond: 0.965 [ms]
[OGL LOG][StoppingCriterion.H:372] Creating stopping criterion with minIter 1295 frequency 13
[OGL LOG][Proc: 0]p: generate_solver: 0.002 [ms]
[OGL LOG][Proc: 0]p: solve: 3920.09 [ms]
[OGL LOG][Proc: 0]p: copy_x_back: 5.548 [ms]
[OGL LOG][lduLduBase.H:339] 
Statistics:
	Time per iteration: 1656 [mu s]
	Time per residual norm calculation: 289.000000 [mu s]
	Time per iteration and DOF: 0.061333 [ns]
	Retrieve results bandwidth 2.433000 [GByte/s]
[OGL LOG][Proc: 0]p: solve_multi_gpu: 3946.39 [ms]
BJhipGKOCG:  Solving for p, Initial residual = 0.889365, Final residual = 8.90837e-05, No Iterations 2367
[INFO] SolveP: 3993.11 [ms]
time step continuity errors : sum local = 1.01354e-08, global = -2.75021e-22, cumulative = 4.13065e-21
[INFO] ContinuityError: 28.731 [ms]
[INFO] CorrectBoundary: 0.891 [ms]
[INFO] PISOStep: 4432.5 [ms]
[INFO] MatrixAssemblyPI: 236.844 [ms]
[INFO] AdjustPhi: 12.101 [ms]
[INFO] ConstrainPressure: 0.004 [ms]
[INFO] MatrixAssemblyPII: 70.697 [ms]
[OGL LOG][Proc: 0]: global_index_init: 0.062 [ms]
[OGL LOG][Proc: 0]p_local_coeffs: call_update: 0 [ms]
[OGL LOG][Proc: 0]p_non_local_coeffs: call_update: 0 [ms]
[OGL LOG][Proc: 0]p: update_local_matrix_data: 38.324 [ms]
[OGL LOG][Proc: 0]p: update_non_local_matrix_data: 0.158 [ms]
[OGL LOG][Proc: 0]p_matrix: call_update: 20.542 [ms]
[OGL LOG][Proc: 0]p_rhs: call_update: 6.767 [ms]
[OGL LOG][Preconditioner.H:121] Generate preconditioner BJ MaxBlockSize 1
[OGL LOG][Proc: 0]p: init_precond: 0.94 [ms]
[OGL LOG][StoppingCriterion.H:372] Creating stopping criterion with minIter 1420 frequency 13
[OGL LOG][Proc: 0]p: generate_solver: 0.002 [ms]
[OGL LOG][Proc: 0]p: solve: 4009.19 [ms]
[OGL LOG][Proc: 0]p: copy_x_back: 5.431 [ms]
[OGL LOG][lduLduBase.H:339] 
Statistics:
	Time per iteration: 1703 [mu s]
	Time per residual norm calculation: 302.000000 [mu s]
	Time per iteration and DOF: 0.063074 [ns]
	Retrieve results bandwidth 2.485000 [GByte/s]
[OGL LOG][Proc: 0]p: solve_multi_gpu: 4044.16 [ms]
BJhipGKOCG:  Solving for p, Initial residual = 0.826255, Final residual = 9.69492e-05, No Iterations 2354
[INFO] SolveP: 4091.09 [ms]
time step continuity errors : sum local = 1.1196e-08, global = 2.74311e-22, cumulative = 4.40496e-21
[INFO] ContinuityError: 29.442 [ms]
[INFO] CorrectBoundary: 0.96 [ms]
[INFO] PISOStep: 4523.08 [ms]
[INFO] TimeStep: 10973.2 [ms]
ExecutionTime = 69.74 s  ClockTime = 61 s

Time = 0.001162

Courant Number mean: 0.0325865 max: 0.512231
[INFO] MatrixAssemblyU: 212.241 [ms]
DILUPBiCGStab:  Solving for Ux, Initial residual = 0.0246119, Final residual = 0.00212043, No Iterations 5
DILUPBiCGStab:  Solving for Uy, Initial residual = 0.0986012, Final residual = 0.00833195, No Iterations 5
DILUPBiCGStab:  Solving for Uz, Initial residual = 0.562494, Final residual = 0.0240285, No Iterations 5
[INFO] MomentumPredictor: 1759.69 [ms]
[INFO] MatrixAssemblyPI: 241.767 [ms]
[INFO] AdjustPhi: 13.416 [ms]
[INFO] ConstrainPressure: 0.004 [ms]
[INFO] MatrixAssemblyPII: 69.467 [ms]
[OGL LOG][Proc: 0]: global_index_init: 0.053 [ms]
[OGL LOG][Proc: 0]p_local_coeffs: call_update: 0 [ms]
[OGL LOG][Proc: 0]p_non_local_coeffs: call_update: 0 [ms]
[OGL LOG][Proc: 0]p: update_local_matrix_data: 38.445 [ms]
[OGL LOG][Proc: 0]p: update_non_local_matrix_data: 0.235 [ms]
[OGL LOG][Proc: 0]p_matrix: call_update: 12.813 [ms]
[OGL LOG][Proc: 0]p_rhs: call_update: 5.881 [ms]
[OGL LOG][Preconditioner.H:121] Generate preconditioner BJ MaxBlockSize 1
[OGL LOG][Proc: 0]p: init_precond: 0.892 [ms]
[OGL LOG][StoppingCriterion.H:372] Creating stopping criterion with minIter 1412 frequency 13
[OGL LOG][Proc: 0]p: generate_solver: 0.002 [ms]
[OGL LOG][Proc: 0]p: solve: 3811.41 [ms]
[OGL LOG][Proc: 0]p: copy_x_back: 5.254 [ms]
[OGL LOG][lduLduBase.H:339] 
Statistics:
	Time per iteration: 1655 [mu s]
	Time per residual norm calculation: 301.000000 [mu s]
	Time per iteration and DOF: 0.061296 [ns]
	Retrieve results bandwidth 2.569000 [GByte/s]
[OGL LOG][Proc: 0]p: solve_multi_gpu: 3837.68 [ms]
BJhipGKOCG:  Solving for p, Initial residual = 0.90733, Final residual = 8.79562e-05, No Iterations 2302
[INFO] SolveP: 3885.3 [ms]
time step continuity errors : sum local = 9.77505e-09, global = -3.71601e-23, cumulative = 4.3678e-21
[INFO] ContinuityError: 30.039 [ms]
[INFO] CorrectBoundary: 0.57 [ms]
[INFO] PISOStep: 4326.01 [ms]
[INFO] MatrixAssemblyPI: 234.762 [ms]
[INFO] AdjustPhi: 14.5 [ms]
[INFO] ConstrainPressure: 0.004 [ms]
[INFO] MatrixAssemblyPII: 71.22 [ms]
[OGL LOG][Proc: 0]: global_index_init: 0.116 [ms]
[OGL LOG][Proc: 0]p_local_coeffs: call_update: 0 [ms]
[OGL LOG][Proc: 0]p_non_local_coeffs: call_update: 0 [ms]
[OGL LOG][Proc: 0]p: update_local_matrix_data: 37.799 [ms]
[OGL LOG][Proc: 0]p: update_non_local_matrix_data: 0.183 [ms]
[OGL LOG][Proc: 0]p_matrix: call_update: 16.733 [ms]
[OGL LOG][Proc: 0]p_rhs: call_update: 3.695 [ms]
[OGL LOG][Preconditioner.H:121] Generate preconditioner BJ MaxBlockSize 1
[OGL LOG][Proc: 0]p: init_precond: 0.857 [ms]
[OGL LOG][StoppingCriterion.H:372] Creating stopping criterion with minIter 1381 frequency 13
[OGL LOG][Proc: 0]p: generate_solver: 0.002 [ms]
[OGL LOG][Proc: 0]p: solve: 3878.57 [ms]
[OGL LOG][Proc: 0]p: copy_x_back: 4.749 [ms]
[OGL LOG][lduLduBase.H:339] 
Statistics:
	Time per iteration: 1694 [mu s]
	Time per residual norm calculation: 297.000000 [mu s]
	Time per iteration and DOF: 0.062741 [ns]
	Retrieve results bandwidth 2.842000 [GByte/s]
[OGL LOG][Proc: 0]p: solve_multi_gpu: 3905.73 [ms]
BJhipGKOCG:  Solving for p, Initial residual = 0.862351, Final residual = 9.62219e-05, No Iterations 2289
[INFO] SolveP: 3952.16 [ms]
time step continuity errors : sum local = 1.05777e-08, global = -4.60407e-22, cumulative = 3.90739e-21
[INFO] ContinuityError: 29.012 [ms]
[INFO] CorrectBoundary: 0.78 [ms]
[INFO] PISOStep: 4386.83 [ms]
[INFO] TimeStep: 10713.9 [ms]
ExecutionTime = 82.17 s  ClockTime = 72 s

Time = 0.001328

Courant Number mean: 0.0346582 max: 0.48128
[INFO] MatrixAssemblyU: 212.949 [ms]
DILUPBiCGStab:  Solving for Ux, Initial residual = 0.0221958, Final residual = 0.00198925, No Iterations 5
DILUPBiCGStab:  Solving for Uy, Initial residual = 0.0873491, Final residual = 0.00700899, No Iterations 5
DILUPBiCGStab:  Solving for Uz, Initial residual = 0.51966, Final residual = 0.0218695, No Iterations 5
[INFO] MomentumPredictor: 1766.88 [ms]
[INFO] MatrixAssemblyPI: 242.025 [ms]
[INFO] AdjustPhi: 12.969 [ms]
[INFO] ConstrainPressure: 0.003 [ms]
[INFO] MatrixAssemblyPII: 71.089 [ms]
[OGL LOG][Proc: 0]: global_index_init: 1.106 [ms]
[OGL LOG][Proc: 0]p_local_coeffs: call_update: 0 [ms]
[OGL LOG][Proc: 0]p_non_local_coeffs: call_update: 0 [ms]
[OGL LOG][Proc: 0]p: update_local_matrix_data: 38.519 [ms]
[OGL LOG][Proc: 0]p: update_non_local_matrix_data: 0.157 [ms]
[OGL LOG][Proc: 0]p_matrix: call_update: 15.364 [ms]
[OGL LOG][Proc: 0]p_rhs: call_update: 2.675 [ms]
[OGL LOG][Preconditioner.H:121] Generate preconditioner BJ MaxBlockSize 1
[OGL LOG][Proc: 0]p: init_precond: 0.859 [ms]
[OGL LOG][StoppingCriterion.H:372] Creating stopping criterion with minIter 1373 frequency 13
[OGL LOG][Proc: 0]p: generate_solver: 0.002 [ms]
[OGL LOG][Proc: 0]p: solve: 3824.89 [ms]
[OGL LOG][Proc: 0]p: copy_x_back: 5.301 [ms]
[OGL LOG][lduLduBase.H:339] 
Statistics:
	Time per iteration: 1661 [mu s]
	Time per residual norm calculation: 301.000000 [mu s]
	Time per iteration and DOF: 0.061519 [ns]
	Retrieve results bandwidth 2.546000 [GByte/s]
[OGL LOG][Proc: 0]p: solve_multi_gpu: 3850.06 [ms]
BJhipGKOCG:  Solving for p, Initial residual = 0.885801, Final residual = 9.29866e-05, No Iterations 2302
[INFO] SolveP: 3898.64 [ms]
time step continuity errors : sum local = 1.05096e-08, global = 3.332e-22, cumulative = 4.24059e-21
[INFO] ContinuityError: 28.507 [ms]
[INFO] CorrectBoundary: 0.831 [ms]
[INFO] PISOStep: 4338.37 [ms]
[INFO] MatrixAssemblyPI: 234.428 [ms]
[INFO] AdjustPhi: 12.712 [ms]
[INFO] ConstrainPressure: 0.004 [ms]
[INFO] MatrixAssemblyPII: 70.837 [ms]
[OGL LOG][Proc: 0]: global_index_init: 0.039 [ms]
[OGL LOG][Proc: 0]p_local_coeffs: call_update: 0 [ms]
[OGL LOG][Proc: 0]p_non_local_coeffs: call_update: 0 [ms]
[OGL LOG][Proc: 0]p: update_local_matrix_data: 37.679 [ms]
[OGL LOG][Proc: 0]p: update_non_local_matrix_data: 0.283 [ms]
[OGL LOG][Proc: 0]p_matrix: call_update: 14.37 [ms]
[OGL LOG][Proc: 0]p_rhs: call_update: 6.836 [ms]
[OGL LOG][Preconditioner.H:121] Generate preconditioner BJ MaxBlockSize 1
[OGL LOG][Proc: 0]p: init_precond: 0.778 [ms]
[OGL LOG][StoppingCriterion.H:372] Creating stopping criterion with minIter 1381 frequency 13
[OGL LOG][Proc: 0]p: generate_solver: 0.002 [ms]
[OGL LOG][Proc: 0]p: solve: 3915.57 [ms]
[OGL LOG][Proc: 0]p: copy_x_back: 5.279 [ms]
[OGL LOG][lduLduBase.H:339] 
Statistics:
	Time per iteration: 1700 [mu s]
	Time per residual norm calculation: 293.000000 [mu s]
	Time per iteration and DOF: 0.062963 [ns]
	Retrieve results bandwidth 2.557000 [GByte/s]
[OGL LOG][Proc: 0]p: solve_multi_gpu: 3943.77 [ms]
BJhipGKOCG:  Solving for p, Initial residual = 0.820075, Final residual = 8.69052e-05, No Iterations 2302
[INFO] SolveP: 3990.22 [ms]
time step continuity errors : sum local = 9.95582e-09, global = 3.84268e-22, cumulative = 4.62486e-21
[INFO] ContinuityError: 28.852 [ms]
[INFO] CorrectBoundary: 0.826 [ms]
[INFO] PISOStep: 4421.52 [ms]
[INFO] TimeStep: 10769.5 [ms]
ExecutionTime = 94.64 s  ClockTime = 83 s

Time = 0.001494

Courant Number mean: 0.0365912 max: 0.51842
[INFO] MatrixAssemblyU: 214.474 [ms]
DILUPBiCGStab:  Solving for Ux, Initial residual = 0.0206205, Final residual = 0.00185719, No Iterations 5
DILUPBiCGStab:  Solving for Uy, Initial residual = 0.0822837, Final residual = 0.00660547, No Iterations 5
DILUPBiCGStab:  Solving for Uz, Initial residual = 0.515242, Final residual = 0.0203712, No Iterations 5
[INFO] MomentumPredictor: 1767.57 [ms]
[INFO] MatrixAssemblyPI: 242.168 [ms]
[INFO] AdjustPhi: 17.531 [ms]
[INFO] ConstrainPressure: 0.004 [ms]
[INFO] MatrixAssemblyPII: 71.185 [ms]
[OGL LOG][Proc: 0]: global_index_init: 0.037 [ms]
[OGL LOG][Proc: 0]p_local_coeffs: call_update: 0 [ms]
[OGL LOG][Proc: 0]p_non_local_coeffs: call_update: 0 [ms]
[OGL LOG][Proc: 0]p: update_local_matrix_data: 37.822 [ms]
[OGL LOG][Proc: 0]p: update_non_local_matrix_data: 0.167 [ms]
[OGL LOG][Proc: 0]p_matrix: call_update: 30.767 [ms]
[OGL LOG][Proc: 0]p_rhs: call_update: 3.137 [ms]
[OGL LOG][Preconditioner.H:121] Generate preconditioner BJ MaxBlockSize 1
[OGL LOG][Proc: 0]p: init_precond: 0.886 [ms]
[OGL LOG][StoppingCriterion.H:372] Creating stopping criterion with minIter 1381 frequency 13
[OGL LOG][Proc: 0]p: generate_solver: 0.002 [ms]
[OGL LOG][Proc: 0]p: solve: 3465.53 [ms]
[OGL LOG][Proc: 0]p: copy_x_back: 5.23 [ms]
[OGL LOG][lduLduBase.H:339] 
Statistics:
	Time per iteration: 1665 [mu s]
	Time per residual norm calculation: 300.000000 [mu s]
	Time per iteration and DOF: 0.061667 [ns]
	Retrieve results bandwidth 2.581000 [GByte/s]
[OGL LOG][Proc: 0]p: solve_multi_gpu: 3506.75 [ms]
BJhipGKOCG:  Solving for p, Initial residual = 0.903268, Final residual = 8.67225e-05, No Iterations 2081
[INFO] SolveP: 3553.53 [ms]
time step continuity errors : sum local = 9.60308e-09, global = 1.77012e-22, cumulative = 4.80187e-21
[INFO] ContinuityError: 28.595 [ms]
[INFO] CorrectBoundary: 0.701 [ms]
[INFO] PISOStep: 3997.05 [ms]
[INFO] MatrixAssemblyPI: 235.082 [ms]
[INFO] AdjustPhi: 13.163 [ms]
[INFO] ConstrainPressure: 0.004 [ms]
[INFO] MatrixAssemblyPII: 70.838 [ms]
[OGL LOG][Proc: 0]: global_index_init: 0.09 [ms]
[OGL LOG][Proc: 0]p_local_coeffs: call_update: 0 [ms]
[OGL LOG][Proc: 0]p_non_local_coeffs: call_update: 0 [ms]
[OGL LOG][Proc: 0]p: update_local_matrix_data: 38.396 [ms]
[OGL LOG][Proc: 0]p: update_non_local_matrix_data: 0.16 [ms]
[OGL LOG][Proc: 0]p_matrix: call_update: 14.154 [ms]
[OGL LOG][Proc: 0]p_rhs: call_update: 4.979 [ms]
[OGL LOG][Preconditioner.H:121] Generate preconditioner BJ MaxBlockSize 1
[OGL LOG][Proc: 0]p: init_precond: 0.888 [ms]
[OGL LOG][StoppingCriterion.H:372] Creating stopping criterion with minIter 1248 frequency 12
[OGL LOG][Proc: 0]p: generate_solver: 0.002 [ms]
[OGL LOG][Proc: 0]p: solve: 3505.66 [ms]
[OGL LOG][Proc: 0]p: copy_x_back: 5.53 [ms]
[OGL LOG][lduLduBase.H:339] 
Statistics:
	Time per iteration: 1687 [mu s]
	Time per residual norm calculation: 302.000000 [mu s]
	Time per iteration and DOF: 0.062481 [ns]
	Retrieve results bandwidth 2.441000 [GByte/s]
[OGL LOG][Proc: 0]p: solve_multi_gpu: 3532.29 [ms]
BJhipGKOCG:  Solving for p, Initial residual = 0.853753, Final residual = 8.55176e-05, No Iterations 2077
[INFO] SolveP: 3579.31 [ms]
time step continuity errors : sum local = 9.37817e-09, global = 1.39781e-21, cumulative = 6.19968e-21
[INFO] ContinuityError: 28.278 [ms]
[INFO] CorrectBoundary: 0.658 [ms]
[INFO] PISOStep: 4011.13 [ms]
[INFO] TimeStep: 10018.9 [ms]
ExecutionTime = 106.17 s  ClockTime = 93 s

Time = 0.00166

Courant Number mean: 0.0382731 max: 0.483672
[INFO] MatrixAssemblyU: 212.539 [ms]
DILUPBiCGStab:  Solving for Ux, Initial residual = 0.0194351, Final residual = 0.00177093, No Iterations 5
DILUPBiCGStab:  Solving for Uy, Initial residual = 0.0739299, Final residual = 0.00573321, No Iterations 5
DILUPBiCGStab:  Solving for Uz, Initial residual = 0.491614, Final residual = 0.0191022, No Iterations 5
[INFO] MomentumPredictor: 1778.74 [ms]
[INFO] MatrixAssemblyPI: 243.385 [ms]
[INFO] AdjustPhi: 12.117 [ms]
[INFO] ConstrainPressure: 0.005 [ms]
[INFO] MatrixAssemblyPII: 70.85 [ms]
[OGL LOG][Proc: 0]: global_index_init: 0.039 [ms]
[OGL LOG][Proc: 0]p_local_coeffs: call_update: 0 [ms]
[OGL LOG][Proc: 0]p_non_local_coeffs: call_update: 0 [ms]
[OGL LOG][Proc: 0]p: update_local_matrix_data: 37.892 [ms]
[OGL LOG][Proc: 0]p: update_non_local_matrix_data: 0.259 [ms]
[OGL LOG][Proc: 0]p_matrix: call_update: 16.167 [ms]
[OGL LOG][Proc: 0]p_rhs: call_update: 4.224 [ms]
[OGL LOG][Preconditioner.H:121] Generate preconditioner BJ MaxBlockSize 1
[OGL LOG][Proc: 0]p: init_precond: 0.914 [ms]
[OGL LOG][StoppingCriterion.H:372] Creating stopping criterion with minIter 1246 frequency 12
[OGL LOG][Proc: 0]p: generate_solver: 0.002 [ms]
[OGL LOG][Proc: 0]p: solve: 3795.14 [ms]
[OGL LOG][Proc: 0]p: copy_x_back: 5.186 [ms]
[OGL LOG][lduLduBase.H:339] 
Statistics:
	Time per iteration: 1655 [mu s]
	Time per residual norm calculation: 297.000000 [mu s]
	Time per iteration and DOF: 0.061296 [ns]
	Retrieve results bandwidth 2.603000 [GByte/s]
[OGL LOG][Proc: 0]p: solve_multi_gpu: 3822.88 [ms]
BJhipGKOCG:  Solving for p, Initial residual = 0.884607, Final residual = 8.98136e-05, No Iterations 2293
[INFO] SolveP: 3869.7 [ms]
time step continuity errors : sum local = 1.02596e-08, global = 8.83864e-22, cumulative = 7.08355e-21
[INFO] ContinuityError: 30.534 [ms]
[INFO] CorrectBoundary: 1.058 [ms]
[INFO] PISOStep: 4308.94 [ms]
[INFO] MatrixAssemblyPI: 235.633 [ms]
[INFO] AdjustPhi: 14.204 [ms]
[INFO] ConstrainPressure: 0.005 [ms]
[INFO] MatrixAssemblyPII: 71.094 [ms]
[OGL LOG][Proc: 0]: global_index_init: 0.035 [ms]
[OGL LOG][Proc: 0]p_local_coeffs: call_update: 0 [ms]
[OGL LOG][Proc: 0]p_non_local_coeffs: call_update: 0 [ms]
[OGL LOG][Proc: 0]p: update_local_matrix_data: 37.349 [ms]
[OGL LOG][Proc: 0]p: update_non_local_matrix_data: 0.232 [ms]
[OGL LOG][Proc: 0]p_matrix: call_update: 21.548 [ms]
[OGL LOG][Proc: 0]p_rhs: call_update: 5.094 [ms]
[OGL LOG][Preconditioner.H:121] Generate preconditioner BJ MaxBlockSize 1
[OGL LOG][Proc: 0]p: init_precond: 0.844 [ms]
[OGL LOG][StoppingCriterion.H:372] Creating stopping criterion with minIter 1375 frequency 13
[OGL LOG][Proc: 0]p: generate_solver: 0.002 [ms]
[OGL LOG][Proc: 0]p: solve: 3783.94 [ms]
[OGL LOG][Proc: 0]p: copy_x_back: 5.925 [ms]
[OGL LOG][lduLduBase.H:339] 
Statistics:
	Time per iteration: 1653 [mu s]
	Time per residual norm calculation: 502.000000 [mu s]
	Time per iteration and DOF: 0.061222 [ns]
	Retrieve results bandwidth 2.278000 [GByte/s]
[OGL LOG][Proc: 0]p: solve_multi_gpu: 3818.35 [ms]
BJhipGKOCG:  Solving for p, Initial residual = 0.815815, Final residual = 9.00058e-05, No Iterations 2289
[INFO] SolveP: 3864.75 [ms]
time step continuity errors : sum local = 1.04091e-08, global = 6.07503e-22, cumulative = 7.69105e-21
[INFO] ContinuityError: 29.406 [ms]
[INFO] CorrectBoundary: 1.552 [ms]
[INFO] PISOStep: 4299.1 [ms]
[INFO] TimeStep: 10628 [ms]
ExecutionTime = 118.38 s  ClockTime = 103 s

Time = 0.001826

Courant Number mean: 0.0398821 max: 0.525022
[INFO] MatrixAssemblyU: 213.05 [ms]
DILUPBiCGStab:  Solving for Ux, Initial residual = 0.0182435, Final residual = 0.00164722, No Iterations 5
DILUPBiCGStab:  Solving for Uy, Initial residual = 0.0723336, Final residual = 0.00551698, No Iterations 5
DILUPBiCGStab:  Solving for Uz, Initial residual = 0.494208, Final residual = 0.018274, No Iterations 5
[INFO] MomentumPredictor: 1772.17 [ms]
[INFO] MatrixAssemblyPI: 242.225 [ms]
[INFO] AdjustPhi: 13.183 [ms]
[INFO] ConstrainPressure: 0.003 [ms]
[INFO] MatrixAssemblyPII: 71.153 [ms]
[OGL LOG][Proc: 0]: global_index_init: 0.113 [ms]
[OGL LOG][Proc: 0]p_local_coeffs: call_update: 0 [ms]
[OGL LOG][Proc: 0]p_non_local_coeffs: call_update: 0 [ms]
[OGL LOG][Proc: 0]p: update_local_matrix_data: 38.048 [ms]
[OGL LOG][Proc: 0]p: update_non_local_matrix_data: 0.158 [ms]
[OGL LOG][Proc: 0]p_matrix: call_update: 13.913 [ms]
[OGL LOG][Proc: 0]p_rhs: call_update: 5.561 [ms]
[OGL LOG][Preconditioner.H:121] Generate preconditioner BJ MaxBlockSize 1
[OGL LOG][Proc: 0]p: init_precond: 0.795 [ms]
[OGL LOG][StoppingCriterion.H:372] Creating stopping criterion with minIter 1373 frequency 17
[OGL LOG][Proc: 0]p: generate_solver: 0.002 [ms]
[OGL LOG][Proc: 0]p: solve: 3642.66 [ms]
[OGL LOG][Proc: 0]p: copy_x_back: 5.933 [ms]
[OGL LOG][lduLduBase.H:339] 
Statistics:
	Time per iteration: 1647 [mu s]
	Time per residual norm calculation: 304.000000 [mu s]
	Time per iteration and DOF: 0.061000 [ns]
	Retrieve results bandwidth 2.275000 [GByte/s]
[OGL LOG][Proc: 0]p: solve_multi_gpu: 3669.82 [ms]
BJhipGKOCG:  Solving for p, Initial residual = 0.903412, Final residual = 9.92468e-05, No Iterations 2211
[INFO] SolveP: 3718.64 [ms]
time step continuity errors : sum local = 1.128e-08, global = -1.047e-24, cumulative = 7.69e-21
[INFO] ContinuityError: 28.199 [ms]
[INFO] CorrectBoundary: 0.924 [ms]
[INFO] PISOStep: 4155.69 [ms]
[INFO] MatrixAssemblyPI: 235.199 [ms]
[INFO] AdjustPhi: 13.418 [ms]
[INFO] ConstrainPressure: 0.004 [ms]
[INFO] MatrixAssemblyPII: 72.061 [ms]
[OGL LOG][Proc: 0]: global_index_init: 0.036 [ms]
[OGL LOG][Proc: 0]p_local_coeffs: call_update: 0 [ms]
[OGL LOG][Proc: 0]p_non_local_coeffs: call_update: 0 [ms]
[OGL LOG][Proc: 0]p: update_local_matrix_data: 38.484 [ms]
[OGL LOG][Proc: 0]p: update_non_local_matrix_data: 0.158 [ms]
[OGL LOG][Proc: 0]p_matrix: call_update: 24.683 [ms]
[OGL LOG][Proc: 0]p_rhs: call_update: 6.332 [ms]
[OGL LOG][Preconditioner.H:121] Generate preconditioner BJ MaxBlockSize 1
[OGL LOG][Proc: 0]p: init_precond: 0.879 [ms]
[OGL LOG][StoppingCriterion.H:372] Creating stopping criterion with minIter 1326 frequency 13
[OGL LOG][Proc: 0]p: generate_solver: 0.002 [ms]
[OGL LOG][Proc: 0]p: solve: 3721.25 [ms]
[OGL LOG][Proc: 0]p: copy_x_back: 6.002 [ms]
[OGL LOG][lduLduBase.H:339] 
Statistics:
	Time per iteration: 1663 [mu s]
	Time per residual norm calculation: 301.000000 [mu s]
	Time per iteration and DOF: 0.061593 [ns]
	Retrieve results bandwidth 2.249000 [GByte/s]
[OGL LOG][Proc: 0]p: solve_multi_gpu: 3760.35 [ms]
BJhipGKOCG:  Solving for p, Initial residual = 0.849027, Final residual = 9.29154e-05, No Iterations 2237
[INFO] SolveP: 3807.32 [ms]
time step continuity errors : sum local = 1.04731e-08, global = -4.9077e-22, cumulative = 7.19923e-21
[INFO] ContinuityError: 30.562 [ms]
[INFO] CorrectBoundary: 0.775 [ms]
[INFO] PISOStep: 4240.74 [ms]
[INFO] TimeStep: 10410.8 [ms]
ExecutionTime = 130.37 s  ClockTime = 114 s

Time = 0.001992

Courant Number mean: 0.0413038 max: 0.486765
[INFO] MatrixAssemblyU: 214.227 [ms]
DILUPBiCGStab:  Solving for Ux, Initial residual = 0.0176541, Final residual = 0.00159457, No Iterations 5
DILUPBiCGStab:  Solving for Uy, Initial residual = 0.0658099, Final residual = 0.00485571, No Iterations 5
DILUPBiCGStab:  Solving for Uz, Initial residual = 0.481093, Final residual = 0.0180624, No Iterations 5
[INFO] MomentumPredictor: 1780.48 [ms]
[INFO] MatrixAssemblyPI: 241.632 [ms]
[INFO] AdjustPhi: 12.911 [ms]
[INFO] ConstrainPressure: 0.004 [ms]
[INFO] MatrixAssemblyPII: 70.966 [ms]
[OGL LOG][Proc: 0]: global_index_init: 0.076 [ms]
[OGL LOG][Proc: 0]p_local_coeffs: call_update: 0 [ms]
[OGL LOG][Proc: 0]p_non_local_coeffs: call_update: 0 [ms]
[OGL LOG][Proc: 0]p: update_local_matrix_data: 38.018 [ms]
[OGL LOG][Proc: 0]p: update_non_local_matrix_data: 0.159 [ms]
[OGL LOG][Proc: 0]p_matrix: call_update: 15.947 [ms]
[OGL LOG][Proc: 0]p_rhs: call_update: 4.189 [ms]
[OGL LOG][Preconditioner.H:121] Generate preconditioner BJ MaxBlockSize 1
[OGL LOG][Proc: 0]p: init_precond: 0.9 [ms]
[OGL LOG][StoppingCriterion.H:372] Creating stopping criterion with minIter 1342 frequency 13
[OGL LOG][Proc: 0]p: generate_solver: 0.002 [ms]
[OGL LOG][Proc: 0]p: solve: 3783.39 [ms]
[OGL LOG][Proc: 0]p: copy_x_back: 5.275 [ms]
[OGL LOG][lduLduBase.H:339] 
Statistics:
	Time per iteration: 1652 [mu s]
	Time per residual norm calculation: 299.000000 [mu s]
	Time per iteration and DOF: 0.061185 [ns]
	Retrieve results bandwidth 2.559000 [GByte/s]
[OGL LOG][Proc: 0]p: solve_multi_gpu: 3810.71 [ms]
BJhipGKOCG:  Solving for p, Initial residual = 0.886173, Final residual = 9.02601e-05, No Iterations 2289
[INFO] SolveP: 3858.03 [ms]
time step continuity errors : sum local = 1.06634e-08, global = 1.30166e-21, cumulative = 8.50089e-21
[INFO] ContinuityError: 30.099 [ms]
[INFO] CorrectBoundary: 0.724 [ms]
[INFO] PISOStep: 4297.33 [ms]
[INFO] MatrixAssemblyPI: 234.93 [ms]
[INFO] AdjustPhi: 14.474 [ms]
[INFO] ConstrainPressure: 0.004 [ms]
[INFO] MatrixAssemblyPII: 70.707 [ms]
[OGL LOG][Proc: 0]: global_index_init: 0.036 [ms]
[OGL LOG][Proc: 0]p_local_coeffs: call_update: 0 [ms]
[OGL LOG][Proc: 0]p_non_local_coeffs: call_update: 0 [ms]
[OGL LOG][Proc: 0]p: update_local_matrix_data: 37.971 [ms]
[OGL LOG][Proc: 0]p: update_non_local_matrix_data: 0.252 [ms]
[OGL LOG][Proc: 0]p_matrix: call_update: 17.321 [ms]
[OGL LOG][Proc: 0]p_rhs: call_update: 4.506 [ms]
[OGL LOG][Preconditioner.H:121] Generate preconditioner BJ MaxBlockSize 1
[OGL LOG][Proc: 0]p: init_precond: 0.907 [ms]
[OGL LOG][StoppingCriterion.H:372] Creating stopping criterion with minIter 1373 frequency 13
[OGL LOG][Proc: 0]p: generate_solver: 0.002 [ms]
[OGL LOG][Proc: 0]p: solve: 3815.5 [ms]
[OGL LOG][Proc: 0]p: copy_x_back: 5.382 [ms]
[OGL LOG][lduLduBase.H:339] 
Statistics:
	Time per iteration: 1666 [mu s]
	Time per residual norm calculation: 301.000000 [mu s]
	Time per iteration and DOF: 0.061704 [ns]
	Retrieve results bandwidth 2.508000 [GByte/s]
[OGL LOG][Proc: 0]p: solve_multi_gpu: 3844.64 [ms]
BJhipGKOCG:  Solving for p, Initial residual = 0.815918, Final residual = 8.26008e-05, No Iterations 2289
[INFO] SolveP: 3891.62 [ms]
time step continuity errors : sum local = 9.86628e-09, global = 4.82531e-22, cumulative = 8.98343e-21
[INFO] ContinuityError: 32.527 [ms]
[INFO] CorrectBoundary: 0.76 [ms]
[INFO] PISOStep: 4327.43 [ms]
[INFO] TimeStep: 10648.4 [ms]
ExecutionTime = 142.59 s  ClockTime = 125 s

Time = 0.002158

Courant Number mean: 0.0426918 max: 0.53261
[INFO] MatrixAssemblyU: 210.669 [ms]
DILUPBiCGStab:  Solving for Ux, Initial residual = 0.0167123, Final residual = 0.0014791, No Iterations 5
DILUPBiCGStab:  Solving for Uy, Initial residual = 0.0658789, Final residual = 0.00476393, No Iterations 5
DILUPBiCGStab:  Solving for Uz, Initial residual = 0.487631, Final residual = 0.0173771, No Iterations 5
[INFO] MomentumPredictor: 1777.35 [ms]
[INFO] MatrixAssemblyPI: 242.051 [ms]
[INFO] AdjustPhi: 12.415 [ms]
[INFO] ConstrainPressure: 0.003 [ms]
[INFO] MatrixAssemblyPII: 70.938 [ms]
[OGL LOG][Proc: 0]: global_index_init: 0.103 [ms]
[OGL LOG][Proc: 0]p_local_coeffs: call_update: 0 [ms]
[OGL LOG][Proc: 0]p_non_local_coeffs: call_update: 0 [ms]
[OGL LOG][Proc: 0]p: update_local_matrix_data: 37.903 [ms]
[OGL LOG][Proc: 0]p: update_non_local_matrix_data: 0.19 [ms]
[OGL LOG][Proc: 0]p_matrix: call_update: 17.391 [ms]
[OGL LOG][Proc: 0]p_rhs: call_update: 3.254 [ms]
[OGL LOG][Preconditioner.H:121] Generate preconditioner BJ MaxBlockSize 1
[OGL LOG][Proc: 0]p: init_precond: 0.734 [ms]
[OGL LOG][StoppingCriterion.H:372] Creating stopping criterion with minIter 1373 frequency 13
[OGL LOG][Proc: 0]p: generate_solver: 0.002 [ms]
[OGL LOG][Proc: 0]p: solve: 3775.74 [ms]
[OGL LOG][Proc: 0]p: copy_x_back: 5.5 [ms]
[OGL LOG][lduLduBase.H:339] 
Statistics:
	Time per iteration: 1649 [mu s]
	Time per residual norm calculation: 299.000000 [mu s]
	Time per iteration and DOF: 0.061074 [ns]
	Retrieve results bandwidth 2.454000 [GByte/s]
[OGL LOG][Proc: 0]p: solve_multi_gpu: 3803.78 [ms]
BJhipGKOCG:  Solving for p, Initial residual = 0.904123, Final residual = 8.26743e-05, No Iterations 2289
[INFO] SolveP: 3850.31 [ms]
time step continuity errors : sum local = 9.7752e-09, global = 4.99219e-22, cumulative = 9.48265e-21
[INFO] ContinuityError: 28.804 [ms]
[INFO] CorrectBoundary: 1.173 [ms]
[INFO] PISOStep: 4287.2 [ms]
[INFO] MatrixAssemblyPI: 234.848 [ms]
[INFO] AdjustPhi: 14.119 [ms]
[INFO] ConstrainPressure: 0.004 [ms]
[INFO] MatrixAssemblyPII: 71.169 [ms]
[OGL LOG][Proc: 0]: global_index_init: 0.039 [ms]
[OGL LOG][Proc: 0]p_local_coeffs: call_update: 0 [ms]
[OGL LOG][Proc: 0]p_non_local_coeffs: call_update: 0 [ms]
[OGL LOG][Proc: 0]p: update_local_matrix_data: 37.998 [ms]
[OGL LOG][Proc: 0]p: update_non_local_matrix_data: 0.158 [ms]
[OGL LOG][Proc: 0]p_matrix: call_update: 15.95 [ms]
[OGL LOG][Proc: 0]p_rhs: call_update: 3.129 [ms]
[OGL LOG][Preconditioner.H:121] Generate preconditioner BJ MaxBlockSize 1
[OGL LOG][Proc: 0]p: init_precond: 0.917 [ms]
[OGL LOG][StoppingCriterion.H:372] Creating stopping criterion with minIter 1373 frequency 13
[OGL LOG][Proc: 0]p: generate_solver: 0.002 [ms]
[OGL LOG][Proc: 0]p: solve: 3852.5 [ms]
[OGL LOG][Proc: 0]p: copy_x_back: 5.681 [ms]
[OGL LOG][lduLduBase.H:339] 
Statistics:
	Time per iteration: 1683 [mu s]
	Time per residual norm calculation: 291.000000 [mu s]
	Time per iteration and DOF: 0.062333 [ns]
	Retrieve results bandwidth 2.376000 [GByte/s]
[OGL LOG][Proc: 0]p: solve_multi_gpu: 3879.16 [ms]
BJhipGKOCG:  Solving for p, Initial residual = 0.84617, Final residual = 7.67669e-05, No Iterations 2289
[INFO] SolveP: 3925.83 [ms]
time step continuity errors : sum local = 9.01447e-09, global = 4.03813e-22, cumulative = 9.88646e-21
[INFO] ContinuityError: 29.277 [ms]
[INFO] CorrectBoundary: 1.036 [ms]
[INFO] PISOStep: 4357.71 [ms]
[INFO] TimeStep: 10661.5 [ms]
ExecutionTime = 154.96 s  ClockTime = 135 s

Time = 0.002324

Courant Number mean: 0.0439262 max: 0.489819
[INFO] MatrixAssemblyU: 212.108 [ms]
DILUPBiCGStab:  Solving for Ux, Initial residual = 0.0164748, Final residual = 0.00145437, No Iterations 5
DILUPBiCGStab:  Solving for Uy, Initial residual = 0.0606867, Final residual = 0.00423173, No Iterations 5
DILUPBiCGStab:  Solving for Uz, Initial residual = 0.478314, Final residual = 0.0170294, No Iterations 5
[INFO] MomentumPredictor: 1766.1 [ms]
[INFO] MatrixAssemblyPI: 241.201 [ms]
[INFO] AdjustPhi: 13.243 [ms]
[INFO] ConstrainPressure: 0.003 [ms]
[INFO] MatrixAssemblyPII: 70.872 [ms]
[OGL LOG][Proc: 0]: global_index_init: 0.186 [ms]
[OGL LOG][Proc: 0]p_local_coeffs: call_update: 0 [ms]
[OGL LOG][Proc: 0]p_non_local_coeffs: call_update: 0 [ms]
[OGL LOG][Proc: 0]p: update_local_matrix_data: 38.365 [ms]
[OGL LOG][Proc: 0]p: update_non_local_matrix_data: 0.167 [ms]
[OGL LOG][Proc: 0]p_matrix: call_update: 26.132 [ms]
[OGL LOG][Proc: 0]p_rhs: call_update: 2.914 [ms]
[OGL LOG][Preconditioner.H:121] Generate preconditioner BJ MaxBlockSize 1
[OGL LOG][Proc: 0]p: init_precond: 0.806 [ms]
[OGL LOG][StoppingCriterion.H:372] Creating stopping criterion with minIter 1373 frequency 13
[OGL LOG][Proc: 0]p: generate_solver: 0.002 [ms]
[OGL LOG][Proc: 0]p: solve: 3784.41 [ms]
[OGL LOG][Proc: 0]p: copy_x_back: 5.366 [ms]
[OGL LOG][lduLduBase.H:339] 
Statistics:
	Time per iteration: 1653 [mu s]
	Time per residual norm calculation: 297.000000 [mu s]
	Time per iteration and DOF: 0.061222 [ns]
	Retrieve results bandwidth 2.515000 [GByte/s]
[OGL LOG][Proc: 0]p: solve_multi_gpu: 3822.28 [ms]
BJhipGKOCG:  Solving for p, Initial residual = 0.888601, Final residual = 8.76074e-05, No Iterations 2289
[INFO] SolveP: 3869.29 [ms]
time step continuity errors : sum local = 1.07813e-08, global = 4.58892e-22, cumulative = 1.03454e-20
[INFO] ContinuityError: 28.675 [ms]
[INFO] CorrectBoundary: 0.718 [ms]
[INFO] PISOStep: 4308.72 [ms]
[INFO] MatrixAssemblyPI: 233.777 [ms]
[INFO] AdjustPhi: 14.24 [ms]
[INFO] ConstrainPressure: 0.004 [ms]
[INFO] MatrixAssemblyPII: 70.714 [ms]
[OGL LOG][Proc: 0]: global_index_init: 0.206 [ms]
[OGL LOG][Proc: 0]p_local_coeffs: call_update: 0 [ms]
[OGL LOG][Proc: 0]p_non_local_coeffs: call_update: 0 [ms]
[OGL LOG][Proc: 0]p: update_local_matrix_data: 37.849 [ms]
[OGL LOG][Proc: 0]p: update_non_local_matrix_data: 0.201 [ms]
[OGL LOG][Proc: 0]p_matrix: call_update: 13.886 [ms]
[OGL LOG][Proc: 0]p_rhs: call_update: 4.586 [ms]
[OGL LOG][Preconditioner.H:121] Generate preconditioner BJ MaxBlockSize 1
[OGL LOG][Proc: 0]p: init_precond: 0.903 [ms]
[OGL LOG][StoppingCriterion.H:372] Creating stopping criterion with minIter 1373 frequency 13
[OGL LOG][Proc: 0]p: generate_solver: 0.002 [ms]
[OGL LOG][Proc: 0]p: solve: 3789.33 [ms]
[OGL LOG][Proc: 0]p: copy_x_back: 5.363 [ms]
[OGL LOG][lduLduBase.H:339] 
Statistics:
	Time per iteration: 1655 [mu s]
	Time per residual norm calculation: 308.000000 [mu s]
	Time per iteration and DOF: 0.061296 [ns]
	Retrieve results bandwidth 2.517000 [GByte/s]
[OGL LOG][Proc: 0]p: solve_multi_gpu: 3815.28 [ms]
BJhipGKOCG:  Solving for p, Initial residual = 0.817156, Final residual = 8.05201e-05, No Iterations 2289
[INFO] SolveP: 3862.1 [ms]
time step continuity errors : sum local = 1.00045e-08, global = 2.77151e-22, cumulative = 1.06225e-20
[INFO] ContinuityError: 27.759 [ms]
[INFO] CorrectBoundary: 1.469 [ms]
[INFO] PISOStep: 4292.77 [ms]
[INFO] TimeStep: 10608.3 [ms]
ExecutionTime = 167.3 s  ClockTime = 146 s

Time = 0.00249

Courant Number mean: 0.0451536 max: 0.541228
[INFO] MatrixAssemblyU: 208.992 [ms]
DILUPBiCGStab:  Solving for Ux, Initial residual = 0.0157188, Final residual = 0.00134351, No Iterations 5
DILUPBiCGStab:  Solving for Uy, Initial residual = 0.0615682, Final residual = 0.00421525, No Iterations 5
DILUPBiCGStab:  Solving for Uz, Initial residual = 0.487401, Final residual = 0.0167505, No Iterations 5
[INFO] MomentumPredictor: 1766.81 [ms]
[INFO] MatrixAssemblyPI: 241.093 [ms]
[INFO] AdjustPhi: 14.356 [ms]
[INFO] ConstrainPressure: 0.004 [ms]
[INFO] MatrixAssemblyPII: 70.884 [ms]
[OGL LOG][Proc: 0]: global_index_init: 0.072 [ms]
[OGL LOG][Proc: 0]p_local_coeffs: call_update: 0 [ms]
[OGL LOG][Proc: 0]p_non_local_coeffs: call_update: 0 [ms]
[OGL LOG][Proc: 0]p: update_local_matrix_data: 38.018 [ms]
[OGL LOG][Proc: 0]p: update_non_local_matrix_data: 0.255 [ms]
[OGL LOG][Proc: 0]p_matrix: call_update: 20.13 [ms]
[OGL LOG][Proc: 0]p_rhs: call_update: 4.956 [ms]
[OGL LOG][Preconditioner.H:121] Generate preconditioner BJ MaxBlockSize 1
[OGL LOG][Proc: 0]p: init_precond: 0.947 [ms]
[OGL LOG][StoppingCriterion.H:372] Creating stopping criterion with minIter 1373 frequency 13
[OGL LOG][Proc: 0]p: generate_solver: 0.002 [ms]
[OGL LOG][Proc: 0]p: solve: 3763 [ms]
[OGL LOG][Proc: 0]p: copy_x_back: 5.581 [ms]
[OGL LOG][lduLduBase.H:339] 
Statistics:
	Time per iteration: 1643 [mu s]
	Time per residual norm calculation: 298.000000 [mu s]
	Time per iteration and DOF: 0.060852 [ns]
	Retrieve results bandwidth 2.418000 [GByte/s]
[OGL LOG][Proc: 0]p: solve_multi_gpu: 3795.81 [ms]
BJhipGKOCG:  Solving for p, Initial residual = 0.904983, Final residual = 8.32917e-05, No Iterations 2289
[INFO] SolveP: 3842.49 [ms]
time step continuity errors : sum local = 1.02929e-08, global = 1.34113e-21, cumulative = 1.19636e-20
[INFO] ContinuityError: 29.228 [ms]
[INFO] CorrectBoundary: 1.2 [ms]
[INFO] PISOStep: 4280.57 [ms]
[INFO] MatrixAssemblyPI: 233.629 [ms]
[INFO] AdjustPhi: 14.002 [ms]
[INFO] ConstrainPressure: 0.004 [ms]
[INFO] MatrixAssemblyPII: 70.954 [ms]
[OGL LOG][Proc: 0]: global_index_init: 0.102 [ms]
[OGL LOG][Proc: 0]p_local_coeffs: call_update: 0 [ms]
[OGL LOG][Proc: 0]p_non_local_coeffs: call_update: 0 [ms]
[OGL LOG][Proc: 0]p: update_local_matrix_data: 37.638 [ms]
[OGL LOG][Proc: 0]p: update_non_local_matrix_data: 0.191 [ms]
[OGL LOG][Proc: 0]p_matrix: call_update: 17.878 [ms]
[OGL LOG][Proc: 0]p_rhs: call_update: 3.976 [ms]
[OGL LOG][Preconditioner.H:121] Generate preconditioner BJ MaxBlockSize 1
[OGL LOG][Proc: 0]p: init_precond: 0.941 [ms]
[OGL LOG][StoppingCriterion.H:372] Creating stopping criterion with minIter 1373 frequency 13
[OGL LOG][Proc: 0]p: generate_solver: 0.002 [ms]
[OGL LOG][Proc: 0]p: solve: 3808.89 [ms]
[OGL LOG][Proc: 0]p: copy_x_back: 5.202 [ms]
[OGL LOG][lduLduBase.H:339] 
Statistics:
	Time per iteration: 1663 [mu s]
	Time per residual norm calculation: 801.000000 [mu s]
	Time per iteration and DOF: 0.061593 [ns]
	Retrieve results bandwidth 2.595000 [GByte/s]
[OGL LOG][Proc: 0]p: solve_multi_gpu: 3837.89 [ms]
BJhipGKOCG:  Solving for p, Initial residual = 0.844015, Final residual = 7.77316e-05, No Iterations 2289
[INFO] SolveP: 3884.84 [ms]
time step continuity errors : sum local = 9.55271e-09, global = 1.31309e-22, cumulative = 1.20949e-20
[INFO] ContinuityError: 29.98 [ms]
[INFO] CorrectBoundary: 1.108 [ms]
[INFO] PISOStep: 4315.32 [ms]
[INFO] TimeStep: 10600.4 [ms]
ExecutionTime = 179.59 s  ClockTime = 156 s

Time = 0.002656

Courant Number mean: 0.0462455 max: 0.492918
[INFO] MatrixAssemblyU: 210.979 [ms]
DILUPBiCGStab:  Solving for Ux, Initial residual = 0.0156961, Final residual = 0.00133899, No Iterations 5
DILUPBiCGStab:  Solving for Uy, Initial residual = 0.0574761, Final residual = 0.00377504, No Iterations 5
DILUPBiCGStab:  Solving for Uz, Initial residual = 0.481391, Final residual = 0.0165081, No Iterations 5
[INFO] MomentumPredictor: 1769.35 [ms]
[INFO] MatrixAssemblyPI: 241.723 [ms]
[INFO] AdjustPhi: 13.275 [ms]
[INFO] ConstrainPressure: 0.005 [ms]
[INFO] MatrixAssemblyPII: 70.778 [ms]
[OGL LOG][Proc: 0]: global_index_init: 0.166 [ms]
[OGL LOG][Proc: 0]p_local_coeffs: call_update: 0 [ms]
[OGL LOG][Proc: 0]p_non_local_coeffs: call_update: 0 [ms]
[OGL LOG][Proc: 0]p: update_local_matrix_data: 37.79 [ms]
[OGL LOG][Proc: 0]p: update_non_local_matrix_data: 0.176 [ms]
[OGL LOG][Proc: 0]p_matrix: call_update: 14.454 [ms]
[OGL LOG][Proc: 0]p_rhs: call_update: 5.235 [ms]
[OGL LOG][Preconditioner.H:121] Generate preconditioner BJ MaxBlockSize 1
[OGL LOG][Proc: 0]p: init_precond: 0.959 [ms]
[OGL LOG][StoppingCriterion.H:372] Creating stopping criterion with minIter 1373 frequency 21
[OGL LOG][Proc: 0]p: generate_solver: 0.002 [ms]
[OGL LOG][Proc: 0]p: solve: 3772.13 [ms]
[OGL LOG][Proc: 0]p: copy_x_back: 5.04 [ms]
[OGL LOG][lduLduBase.H:339] 
Statistics:
	Time per iteration: 1647 [mu s]
	Time per residual norm calculation: 301.000000 [mu s]
	Time per iteration and DOF: 0.061000 [ns]
	Retrieve results bandwidth 2.678000 [GByte/s]
[OGL LOG][Proc: 0]p: solve_multi_gpu: 3798.95 [ms]
BJhipGKOCG:  Solving for p, Initial residual = 0.891505, Final residual = 8.47056e-05, No Iterations 2290
[INFO] SolveP: 3847.18 [ms]
time step continuity errors : sum local = 1.08839e-08, global = 6.38595e-22, cumulative = 1.27335e-20
[INFO] ContinuityError: 30.164 [ms]
[INFO] CorrectBoundary: 1.395 [ms]
[INFO] PISOStep: 4289.79 [ms]
[INFO] MatrixAssemblyPI: 234.547 [ms]
[INFO] AdjustPhi: 12.841 [ms]
[INFO] ConstrainPressure: 0.003 [ms]
[INFO] MatrixAssemblyPII: 70.695 [ms]
[OGL LOG][Proc: 0]: global_index_init: 0.102 [ms]
[OGL LOG][Proc: 0]p_local_coeffs: call_update: 0 [ms]
[OGL LOG][Proc: 0]p_non_local_coeffs: call_update: 0 [ms]
[OGL LOG][Proc: 0]p: update_local_matrix_data: 37.911 [ms]
[OGL LOG][Proc: 0]p: update_non_local_matrix_data: 0.177 [ms]
[OGL LOG][Proc: 0]p_matrix: call_update: 16.309 [ms]
[OGL LOG][Proc: 0]p_rhs: call_update: 2.652 [ms]
[OGL LOG][Preconditioner.H:121] Generate preconditioner BJ MaxBlockSize 1
[OGL LOG][Proc: 0]p: init_precond: 0.947 [ms]
[OGL LOG][StoppingCriterion.H:372] Creating stopping criterion with minIter 1374 frequency 13
[OGL LOG][Proc: 0]p: generate_solver: 0.002 [ms]
[OGL LOG][Proc: 0]p: solve: 3781.21 [ms]
[OGL LOG][Proc: 0]p: copy_x_back: 5.622 [ms]
[OGL LOG][lduLduBase.H:339] 
Statistics:
	Time per iteration: 1651 [mu s]
	Time per residual norm calculation: 301.000000 [mu s]
	Time per iteration and DOF: 0.061148 [ns]
	Retrieve results bandwidth 2.401000 [GByte/s]
[OGL LOG][Proc: 0]p: solve_multi_gpu: 3807.77 [ms]
BJhipGKOCG:  Solving for p, Initial residual = 0.819127, Final residual = 7.9842e-05, No Iterations 2289
[INFO] SolveP: 3854.32 [ms]
time step continuity errors : sum local = 1.03445e-08, global = 4.92529e-22, cumulative = 1.32261e-20
[INFO] ContinuityError: 28.164 [ms]
[INFO] CorrectBoundary: 0.569 [ms]
[INFO] PISOStep: 4284.08 [ms]
[INFO] TimeStep: 10582.8 [ms]
ExecutionTime = 191.88 s  ClockTime = 167 s

Time = 0.002822

Courant Number mean: 0.0473494 max: 0.551301
[INFO] MatrixAssemblyU: 209.751 [ms]
DILUPBiCGStab:  Solving for Ux, Initial residual = 0.0151132, Final residual = 0.00123537, No Iterations 5
DILUPBiCGStab:  Solving for Uy, Initial residual = 0.0587848, Final residual = 0.00380448, No Iterations 5
DILUPBiCGStab:  Solving for Uz, Initial residual = 0.491726, Final residual = 0.0163974, No Iterations 5
[INFO] MomentumPredictor: 1775.24 [ms]
[INFO] MatrixAssemblyPI: 241.533 [ms]
[INFO] AdjustPhi: 13.027 [ms]
[INFO] ConstrainPressure: 0.004 [ms]
[INFO] MatrixAssemblyPII: 70.596 [ms]
[OGL LOG][Proc: 0]: global_index_init: 0.038 [ms]
[OGL LOG][Proc: 0]p_local_coeffs: call_update: 0 [ms]
[OGL LOG][Proc: 0]p_non_local_coeffs: call_update: 0 [ms]
[OGL LOG][Proc: 0]p: update_local_matrix_data: 38.438 [ms]
[OGL LOG][Proc: 0]p: update_non_local_matrix_data: 0.2 [ms]
[OGL LOG][Proc: 0]p_matrix: call_update: 15.07 [ms]
[OGL LOG][Proc: 0]p_rhs: call_update: 3.308 [ms]
[OGL LOG][Preconditioner.H:121] Generate preconditioner BJ MaxBlockSize 1
[OGL LOG][Proc: 0]p: init_precond: 0.962 [ms]
[OGL LOG][StoppingCriterion.H:372] Creating stopping criterion with minIter 1373 frequency 13
[OGL LOG][Proc: 0]p: generate_solver: 0.003 [ms]
[OGL LOG][Proc: 0]p: solve: 3770.61 [ms]
[OGL LOG][Proc: 0]p: copy_x_back: 5.572 [ms]
[OGL LOG][lduLduBase.H:339] 
Statistics:
	Time per iteration: 1647 [mu s]
	Time per residual norm calculation: 304.000000 [mu s]
	Time per iteration and DOF: 0.061000 [ns]
	Retrieve results bandwidth 2.422000 [GByte/s]
[OGL LOG][Proc: 0]p: solve_multi_gpu: 3796.78 [ms]
BJhipGKOCG:  Solving for p, Initial residual = 0.906289, Final residual = 8.42372e-05, No Iterations 2289
[INFO] SolveP: 3843.76 [ms]
time step continuity errors : sum local = 1.0913e-08, global = 8.32651e-22, cumulative = 1.40587e-20
[INFO] ContinuityError: 28.743 [ms]
[INFO] CorrectBoundary: 0.804 [ms]
[INFO] PISOStep: 4281.25 [ms]
[INFO] MatrixAssemblyPI: 234.496 [ms]
[INFO] AdjustPhi: 14.488 [ms]
[INFO] ConstrainPressure: 0.003 [ms]
[INFO] MatrixAssemblyPII: 70.75 [ms]
[OGL LOG][Proc: 0]: global_index_init: 0.045 [ms]
[OGL LOG][Proc: 0]p_local_coeffs: call_update: 0 [ms]
[OGL LOG][Proc: 0]p_non_local_coeffs: call_update: 0 [ms]
[OGL LOG][Proc: 0]p: update_local_matrix_data: 37.872 [ms]
[OGL LOG][Proc: 0]p: update_non_local_matrix_data: 0.155 [ms]
[OGL LOG][Proc: 0]p_matrix: call_update: 28.748 [ms]
[OGL LOG][Proc: 0]p_rhs: call_update: 1.902 [ms]
[OGL LOG][Preconditioner.H:121] Generate preconditioner BJ MaxBlockSize 1
[OGL LOG][Proc: 0]p: init_precond: 0.96 [ms]
[OGL LOG][StoppingCriterion.H:372] Creating stopping criterion with minIter 1373 frequency 13
[OGL LOG][Proc: 0]p: generate_solver: 0.002 [ms]
[OGL LOG][Proc: 0]p: solve: 3779.81 [ms]
[OGL LOG][Proc: 0]p: copy_x_back: 5.623 [ms]
[OGL LOG][lduLduBase.H:339] 
Statistics:
	Time per iteration: 1651 [mu s]
	Time per residual norm calculation: 299.000000 [mu s]
	Time per iteration and DOF: 0.061148 [ns]
	Retrieve results bandwidth 2.400000 [GByte/s]
[OGL LOG][Proc: 0]p: solve_multi_gpu: 3818.24 [ms]
BJhipGKOCG:  Solving for p, Initial residual = 0.842341, Final residual = 7.86765e-05, No Iterations 2289
[INFO] SolveP: 3864.56 [ms]
time step continuity errors : sum local = 1.01485e-08, global = -1.32879e-22, cumulative = 1.39258e-20
[INFO] ContinuityError: 28.357 [ms]
[INFO] CorrectBoundary: 0.98 [ms]
[INFO] PISOStep: 4295.72 [ms]
[INFO] TimeStep: 10590.5 [ms]
ExecutionTime = 204.08 s  ClockTime = 178 s

Time = 0.002988

Courant Number mean: 0.0483286 max: 0.496232
[INFO] MatrixAssemblyU: 210.454 [ms]
DILUPBiCGStab:  Solving for Ux, Initial residual = 0.0152252, Final residual = 0.00124308, No Iterations 5
DILUPBiCGStab:  Solving for Uy, Initial residual = 0.0556508, Final residual = 0.00343531, No Iterations 5
DILUPBiCGStab:  Solving for Uz, Initial residual = 0.487964, Final residual = 0.0162083, No Iterations 5
[INFO] MomentumPredictor: 1771.01 [ms]
[INFO] MatrixAssemblyPI: 240.901 [ms]
[INFO] AdjustPhi: 13.311 [ms]
[INFO] ConstrainPressure: 0.005 [ms]
[INFO] MatrixAssemblyPII: 70.371 [ms]
[OGL LOG][Proc: 0]: global_index_init: 0.738 [ms]
[OGL LOG][Proc: 0]p_local_coeffs: call_update: 0 [ms]
[OGL LOG][Proc: 0]p_non_local_coeffs: call_update: 0 [ms]
[OGL LOG][Proc: 0]p: update_local_matrix_data: 37.561 [ms]
[OGL LOG][Proc: 0]p: update_non_local_matrix_data: 0.277 [ms]
[OGL LOG][Proc: 0]p_matrix: call_update: 14.718 [ms]
[OGL LOG][Proc: 0]p_rhs: call_update: 5.913 [ms]
[OGL LOG][Preconditioner.H:121] Generate preconditioner BJ MaxBlockSize 1
[OGL LOG][Proc: 0]p: init_precond: 0.915 [ms]
[OGL LOG][StoppingCriterion.H:372] Creating stopping criterion with minIter 1373 frequency 13
[OGL LOG][Proc: 0]p: generate_solver: 0.002 [ms]
[OGL LOG][Proc: 0]p: solve: 3738.89 [ms]
[OGL LOG][Proc: 0]p: copy_x_back: 5.63 [ms]
[OGL LOG][lduLduBase.H:339] 
Statistics:
	Time per iteration: 1633 [mu s]
	Time per residual norm calculation: 297.000000 [mu s]
	Time per iteration and DOF: 0.060481 [ns]
	Retrieve results bandwidth 2.397000 [GByte/s]
[OGL LOG][Proc: 0]p: solve_multi_gpu: 3767.21 [ms]
BJhipGKOCG:  Solving for p, Initial residual = 0.895988, Final residual = 8.13956e-05, No Iterations 2289
[INFO] SolveP: 3814.27 [ms]
time step continuity errors : sum local = 1.09569e-08, global = 1.38212e-21, cumulative = 1.5308e-20
[INFO] ContinuityError: 30.338 [ms]
[INFO] CorrectBoundary: 1.359 [ms]
[INFO] PISOStep: 4253.73 [ms]
[INFO] MatrixAssemblyPI: 234.918 [ms]
[INFO] AdjustPhi: 14.334 [ms]
[INFO] ConstrainPressure: 0.004 [ms]
[INFO] MatrixAssemblyPII: 71.106 [ms]
[OGL LOG][Proc: 0]: global_index_init: 0.08 [ms]
[OGL LOG][Proc: 0]p_local_coeffs: call_update: 0 [ms]
[OGL LOG][Proc: 0]p_non_local_coeffs: call_update: 0 [ms]
[OGL LOG][Proc: 0]p: update_local_matrix_data: 37.887 [ms]
[OGL LOG][Proc: 0]p: update_non_local_matrix_data: 0.162 [ms]
[OGL LOG][Proc: 0]p_matrix: call_update: 15.096 [ms]
[OGL LOG][Proc: 0]p_rhs: call_update: 2.497 [ms]
[OGL LOG][Preconditioner.H:121] Generate preconditioner BJ MaxBlockSize 1
[OGL LOG][Proc: 0]p: init_precond: 0.786 [ms]
[OGL LOG][StoppingCriterion.H:372] Creating stopping criterion with minIter 1373 frequency 13
[OGL LOG][Proc: 0]p: generate_solver: 0.002 [ms]
[OGL LOG][Proc: 0]p: solve: 3795.5 [ms]
[OGL LOG][Proc: 0]p: copy_x_back: 5.4 [ms]
[OGL LOG][lduLduBase.H:339] 
Statistics:
	Time per iteration: 1658 [mu s]
	Time per residual norm calculation: 299.000000 [mu s]
	Time per iteration and DOF: 0.061407 [ns]
	Retrieve results bandwidth 2.500000 [GByte/s]
[OGL LOG][Proc: 0]p: solve_multi_gpu: 3820.34 [ms]
BJhipGKOCG:  Solving for p, Initial residual = 0.822283, Final residual = 7.80134e-05, No Iterations 2289
[INFO] SolveP: 3868.23 [ms]
time step continuity errors : sum local = 1.05776e-08, global = 2.52521e-21, cumulative = 1.78332e-20
[INFO] ContinuityError: 30.56 [ms]
[INFO] CorrectBoundary: 0.714 [ms]
[INFO] PISOStep: 4301.46 [ms]
[INFO] TimeStep: 10565.5 [ms]
ExecutionTime = 216.22 s  ClockTime = 188 s

Time = 0.003154

Courant Number mean: 0.0493356 max: 0.562806
[INFO] MatrixAssemblyU: 213.859 [ms]
DILUPBiCGStab:  Solving for Ux, Initial residual = 0.0148152, Final residual = 0.00115002, No Iterations 5
DILUPBiCGStab:  Solving for Uy, Initial residual = 0.0572168, Final residual = 0.00349281, No Iterations 5
DILUPBiCGStab:  Solving for Uz, Initial residual = 0.498832, Final residual = 0.0161896, No Iterations 5
[INFO] MomentumPredictor: 1759.32 [ms]
[INFO] MatrixAssemblyPI: 241.916 [ms]
[INFO] AdjustPhi: 12.727 [ms]
[INFO] ConstrainPressure: 0.004 [ms]
[INFO] MatrixAssemblyPII: 70.952 [ms]
[OGL LOG][Proc: 0]: global_index_init: 0.037 [ms]
[OGL LOG][Proc: 0]p_local_coeffs: call_update: 0 [ms]
[OGL LOG][Proc: 0]p_non_local_coeffs: call_update: 0 [ms]
[OGL LOG][Proc: 0]p: update_local_matrix_data: 38.127 [ms]
[OGL LOG][Proc: 0]p: update_non_local_matrix_data: 0.179 [ms]
[OGL LOG][Proc: 0]p_matrix: call_update: 14.89 [ms]
[OGL LOG][Proc: 0]p_rhs: call_update: 4.034 [ms]
[OGL LOG][Preconditioner.H:121] Generate preconditioner BJ MaxBlockSize 1
[OGL LOG][Proc: 0]p: init_precond: 0.917 [ms]
[OGL LOG][StoppingCriterion.H:372] Creating stopping criterion with minIter 1373 frequency 13
[OGL LOG][Proc: 0]p: generate_solver: 0.002 [ms]
[OGL LOG][Proc: 0]p: solve: 3767.06 [ms]
[OGL LOG][Proc: 0]p: copy_x_back: 5.92 [ms]
[OGL LOG][lduLduBase.H:339] 
Statistics:
	Time per iteration: 1645 [mu s]
	Time per residual norm calculation: 298.000000 [mu s]
	Time per iteration and DOF: 0.060926 [ns]
	Retrieve results bandwidth 2.280000 [GByte/s]
[OGL LOG][Proc: 0]p: solve_multi_gpu: 3793.95 [ms]
BJhipGKOCG:  Solving for p, Initial residual = 0.908914, Final residual = 8.60472e-05, No Iterations 2289
[INFO] SolveP: 3840.69 [ms]
time step continuity errors : sum local = 1.17396e-08, global = 3.51862e-22, cumulative = 1.8185e-20
[INFO] ContinuityError: 28.87 [ms]
[INFO] CorrectBoundary: 1.36 [ms]
[INFO] PISOStep: 4279.88 [ms]
[INFO] MatrixAssemblyPI: 235.001 [ms]
[INFO] AdjustPhi: 13.229 [ms]
[INFO] ConstrainPressure: 0.004 [ms]
[INFO] MatrixAssemblyPII: 70.581 [ms]
[OGL LOG][Proc: 0]: global_index_init: 0.038 [ms]
[OGL LOG][Proc: 0]p_local_coeffs: call_update: 0 [ms]
[OGL LOG][Proc: 0]p_non_local_coeffs: call_update: 0 [ms]
[OGL LOG][Proc: 0]p: update_local_matrix_data: 37.875 [ms]
[OGL LOG][Proc: 0]p: update_non_local_matrix_data: 0.159 [ms]
[OGL LOG][Proc: 0]p_matrix: call_update: 19.704 [ms]
[OGL LOG][Proc: 0]p_rhs: call_update: 2.293 [ms]
[OGL LOG][Preconditioner.H:121] Generate preconditioner BJ MaxBlockSize 1
[OGL LOG][Proc: 0]p: init_precond: 0.941 [ms]
[OGL LOG][StoppingCriterion.H:372] Creating stopping criterion with minIter 1373 frequency 13
[OGL LOG][Proc: 0]p: generate_solver: 0.002 [ms]
[OGL LOG][Proc: 0]p: solve: 3767.43 [ms]
[OGL LOG][Proc: 0]p: copy_x_back: 5.782 [ms]
[OGL LOG][lduLduBase.H:339] 
Statistics:
	Time per iteration: 1645 [mu s]
	Time per residual norm calculation: 300.000000 [mu s]
	Time per iteration and DOF: 0.060926 [ns]
	Retrieve results bandwidth 2.334000 [GByte/s]
[OGL LOG][Proc: 0]p: solve_multi_gpu: 3797.11 [ms]
BJhipGKOCG:  Solving for p, Initial residual = 0.84202, Final residual = 8.02652e-05, No Iterations 2289
[INFO] SolveP: 3843.44 [ms]
time step continuity errors : sum local = 1.09148e-08, global = 1.01976e-21, cumulative = 1.92048e-20
[INFO] ContinuityError: 28.599 [ms]
[INFO] CorrectBoundary: 0.998 [ms]
[INFO] PISOStep: 4273.7 [ms]
[INFO] TimeStep: 10555.3 [ms]
ExecutionTime = 228.36 s  ClockTime = 199 s

Time = 0.00332

Courant Number mean: 0.0502223 max: 0.49982
[INFO] MatrixAssemblyU: 208.617 [ms]
DILUPBiCGStab:  Solving for Ux, Initial residual = 0.0150254, Final residual = 0.00116367, No Iterations 5
DILUPBiCGStab:  Solving for Uy, Initial residual = 0.0548592, Final residual = 0.00318279, No Iterations 5
DILUPBiCGStab:  Solving for Uz, Initial residual = 0.496964, Final residual = 0.0160737, No Iterations 5
[INFO] MomentumPredictor: 1774.17 [ms]
[INFO] MatrixAssemblyPI: 241.504 [ms]
[INFO] AdjustPhi: 12.949 [ms]
[INFO] ConstrainPressure: 0.004 [ms]
[INFO] MatrixAssemblyPII: 70.877 [ms]
[OGL LOG][Proc: 0]: global_index_init: 0.071 [ms]
[OGL LOG][Proc: 0]p_local_coeffs: call_update: 0 [ms]
[OGL LOG][Proc: 0]p_non_local_coeffs: call_update: 0 [ms]
[OGL LOG][Proc: 0]p: update_local_matrix_data: 38.321 [ms]
[OGL LOG][Proc: 0]p: update_non_local_matrix_data: 0.163 [ms]
[OGL LOG][Proc: 0]p_matrix: call_update: 27.512 [ms]
[OGL LOG][Proc: 0]p_rhs: call_update: 2.788 [ms]
[OGL LOG][Preconditioner.H:121] Generate preconditioner BJ MaxBlockSize 1
[OGL LOG][Proc: 0]p: init_precond: 0.935 [ms]
[OGL LOG][StoppingCriterion.H:372] Creating stopping criterion with minIter 1373 frequency 13
[OGL LOG][Proc: 0]p: generate_solver: 0.002 [ms]
[OGL LOG][Proc: 0]p: solve: 3778.68 [ms]
[OGL LOG][Proc: 0]p: copy_x_back: 5.722 [ms]
[OGL LOG][lduLduBase.H:339] 
Statistics:
	Time per iteration: 1650 [mu s]
	Time per residual norm calculation: 296.000000 [mu s]
	Time per iteration and DOF: 0.061111 [ns]
	Retrieve results bandwidth 2.359000 [GByte/s]
[OGL LOG][Proc: 0]p: solve_multi_gpu: 3816.65 [ms]
BJhipGKOCG:  Solving for p, Initial residual = 0.901488, Final residual = 8.96124e-05, No Iterations 2289
[INFO] SolveP: 3863.41 [ms]
time step continuity errors : sum local = 1.26944e-08, global = 1.87315e-21, cumulative = 2.10779e-20
[INFO] ContinuityError: 28.664 [ms]
[INFO] CorrectBoundary: 1.352 [ms]
[INFO] PISOStep: 4299.85 [ms]
[INFO] MatrixAssemblyPI: 234.775 [ms]
[INFO] AdjustPhi: 13.386 [ms]
[INFO] ConstrainPressure: 0.004 [ms]
[INFO] MatrixAssemblyPII: 71.141 [ms]
[OGL LOG][Proc: 0]: global_index_init: 0.033 [ms]
[OGL LOG][Proc: 0]p_local_coeffs: call_update: 0 [ms]
[OGL LOG][Proc: 0]p_non_local_coeffs: call_update: 0 [ms]
[OGL LOG][Proc: 0]p: update_local_matrix_data: 37.854 [ms]
[OGL LOG][Proc: 0]p: update_non_local_matrix_data: 0.155 [ms]
[OGL LOG][Proc: 0]p_matrix: call_update: 17.845 [ms]
[OGL LOG][Proc: 0]p_rhs: call_update: 3.06 [ms]
[OGL LOG][Preconditioner.H:121] Generate preconditioner BJ MaxBlockSize 1
[OGL LOG][Proc: 0]p: init_precond: 1.06 [ms]
[OGL LOG][StoppingCriterion.H:372] Creating stopping criterion with minIter 1373 frequency 13
[OGL LOG][Proc: 0]p: generate_solver: 0.01 [ms]
[OGL LOG][Proc: 0]p: solve: 3788.06 [ms]
[OGL LOG][Proc: 0]p: copy_x_back: 5.891 [ms]
[OGL LOG][lduLduBase.H:339] 
Statistics:
	Time per iteration: 1654 [mu s]
	Time per residual norm calculation: 300.000000 [mu s]
	Time per iteration and DOF: 0.061259 [ns]
	Retrieve results bandwidth 2.291000 [GByte/s]
[OGL LOG][Proc: 0]p: solve_multi_gpu: 3817.3 [ms]
BJhipGKOCG:  Solving for p, Initial residual = 0.826551, Final residual = 8.28076e-05, No Iterations 2289
[INFO] SolveP: 3863.65 [ms]
time step continuity errors : sum local = 1.18045e-08, global = 1.51695e-21, cumulative = 2.25949e-20
[INFO] ContinuityError: 28.54 [ms]
[INFO] CorrectBoundary: 1.08 [ms]
[INFO] PISOStep: 4293.61 [ms]
[INFO] TimeStep: 10604.9 [ms]
ExecutionTime = 240.5 s  ClockTime = 209 s

End

Finalising parallel run
