/*---------------------------------------------------------------------------*\
| =========                 |                                                 |
| \\      /  F ield         | OpenFOAM: The Open Source CFD Toolbox           |
|  \\    /   O peration     | Version:  2312                                  |
|   \\  /    A nd           | Website:  www.openfoam.com                      |
|    \\/     M anipulation  |                                                 |
\*---------------------------------------------------------------------------*/
Build  : a46b310f-20240104 OPENFOAM=2312 version=v2312
Arch   : "LSB;label=32;scalar=64"
Exec   : icoFoam -parallel -case /hppfs/scratch/0B/di35yan/lidDriven3D/workspace/04192684fb8d47caa6406287e51c6522/case
Date   : Feb 19 2024
Time   : 07:40:32
Host   : i20r02c01s08
PID    : 187408
I/O    : uncollated
Case   : /hppfs/scratch/0B/di35yan/lidDriven3D/workspace/04192684fb8d47caa6406287e51c6522/case
nProcs : 448
Hosts  :
(
    (i20r02c01s08 112)
    (i20r02c01s10 112)
    (i20r02c02s02 112)
    (i20r02c02s06 112)
)
Pstream initialized with:
    floatTransfer      : false
    nProcsSimpleSum    : 0
    nonBlockingExchange: 0 (tuning: 0)
    exchange algorithm : 0
    commsType          : nonBlocking
    polling iterations : 0
trapFpe: Floating point exception trapping enabled (FOAM_SIGFPE).
fileModificationChecking : Monitoring run-time modified files using timeStampMaster (fileModificationSkew 5, maxFileModificationPolls 20)
allowSystemOperations : Allowing user-supplied system call operations

// * * * * * * * * * * * * * * * * * * * * * * * * * * * * * * * * * * * * * //
Create time

--> FOAM Warning : 
    From void* Foam::dlLibraryTable::openLibrary(const Foam::fileName&, bool)
    in file db/dynamicLibrary/dlLibraryTable/dlLibraryTable.C at line 188
    Could not load "libpetscFoam.so"
libpetscFoam.so: cannot open shared object file: No such file or directory
Create mesh for time = 0


PISO: Operating solver in PISO mode

Reading transportProperties

Reading field p

Reading field U

Reading/calculating face flux field phi


Starting time loop

Time = 0.000166

Courant Number mean: 8.14055e-18 max: 3.11001e-14
[INFO] MatrixAssemblyU: 28.011 [ms]
DILUPBiCGStab:  Solving for Ux, Initial residual = 1, Final residual = 0.0194196, No Iterations 5
DILUPBiCGStab:  Solving for Uy:  solution singularity
DILUPBiCGStab:  Solving for Uz:  solution singularity
[INFO] MomentumPredictor: 88.285 [ms]
[INFO] MatrixAssemblyPI: 21.52 [ms]
[INFO] AdjustPhi: 4.075 [ms]
[INFO] ConstrainPressure: 0.005 [ms]
[INFO] MatrixAssemblyPII: 6.27 [ms]
nonePCG:  Solving for p, Initial residual = 1, Final residual = 9.9414e-05, No Iterations 2425
[INFO] SolveP: 3488.48 [ms]
time step continuity errors : sum local = 4.42031e-09, global = 2.71141e-21, cumulative = 2.71141e-21
[INFO] ContinuityError: 4.109 [ms]
[INFO] CorrectBoundary: 0.135 [ms]
[INFO] PISOStep: 3534.11 [ms]
[INFO] MatrixAssemblyPI: 21.353 [ms]
[INFO] AdjustPhi: 2.209 [ms]
[INFO] ConstrainPressure: 0.002 [ms]
[INFO] MatrixAssemblyPII: 6.48 [ms]
nonePCG:  Solving for p, Initial residual = 0.815835, Final residual = 9.98136e-05, No Iterations 2410
[INFO] SolveP: 3245.03 [ms]
time step continuity errors : sum local = 5.35151e-09, global = 6.3528e-22, cumulative = 3.34669e-21
[INFO] ContinuityError: 2.396 [ms]
[INFO] CorrectBoundary: 0.554 [ms]
[INFO] PISOStep: 3286.3 [ms]
[INFO] TimeStep: 6940.75 [ms]
ExecutionTime = 16.2 s  ClockTime = 17 s

Time = 0.000332

Courant Number mean: 0.0126047 max: 0.426558
[INFO] MatrixAssemblyU: 18.314 [ms]
DILUPBiCGStab:  Solving for Ux, Initial residual = 0.11715, Final residual = 0.0117746, No Iterations 5
DILUPBiCGStab:  Solving for Uy, Initial residual = 0.462218, Final residual = 0.0398731, No Iterations 5
DILUPBiCGStab:  Solving for Uz, Initial residual = 0.972159, Final residual = 0.0901795, No Iterations 5
[INFO] MomentumPredictor: 206.258 [ms]
[INFO] MatrixAssemblyPI: 20.551 [ms]
[INFO] AdjustPhi: 4.664 [ms]
[INFO] ConstrainPressure: 0.002 [ms]
[INFO] MatrixAssemblyPII: 6.364 [ms]
nonePCG:  Solving for p, Initial residual = 0.890952, Final residual = 9.97413e-05, No Iterations 2377
[INFO] SolveP: 3252.17 [ms]
time step continuity errors : sum local = 1.05837e-08, global = -1.74219e-22, cumulative = 3.17247e-21
[INFO] ContinuityError: 1.73 [ms]
[INFO] CorrectBoundary: 0.153 [ms]
[INFO] PISOStep: 3296.93 [ms]
[INFO] MatrixAssemblyPI: 22.201 [ms]
[INFO] AdjustPhi: 1.403 [ms]
[INFO] ConstrainPressure: 0.002 [ms]
[INFO] MatrixAssemblyPII: 6.987 [ms]
nonePCG:  Solving for p, Initial residual = 0.835458, Final residual = 9.79772e-05, No Iterations 2374
[INFO] SolveP: 3156.54 [ms]
time step continuity errors : sum local = 1.05966e-08, global = 1.08636e-21, cumulative = 4.25883e-21
[INFO] ContinuityError: 1.651 [ms]
[INFO] CorrectBoundary: 0.099 [ms]
[INFO] PISOStep: 3196.92 [ms]
[INFO] TimeStep: 6722.04 [ms]
ExecutionTime = 22.94 s  ClockTime = 24 s

Time = 0.000498

Courant Number mean: 0.0195107 max: 0.49178
[INFO] MatrixAssemblyU: 19.992 [ms]
DILUPBiCGStab:  Solving for Ux, Initial residual = 0.054529, Final residual = 0.00456232, No Iterations 5
DILUPBiCGStab:  Solving for Uy, Initial residual = 0.227606, Final residual = 0.0206253, No Iterations 5
DILUPBiCGStab:  Solving for Uz, Initial residual = 0.828723, Final residual = 0.0656804, No Iterations 5
[INFO] MomentumPredictor: 151.862 [ms]
[INFO] MatrixAssemblyPI: 21.681 [ms]
[INFO] AdjustPhi: 1.151 [ms]
[INFO] ConstrainPressure: 0.002 [ms]
[INFO] MatrixAssemblyPII: 6.183 [ms]
nonePCG:  Solving for p, Initial residual = 0.919476, Final residual = 9.8501e-05, No Iterations 1150
[INFO] SolveP: 1619.65 [ms]
time step continuity errors : sum local = 1.15482e-08, global = 7.05303e-22, cumulative = 4.96413e-21
[INFO] ContinuityError: 2.651 [ms]
[INFO] CorrectBoundary: 0.584 [ms]
[INFO] PISOStep: 1659.92 [ms]
[INFO] MatrixAssemblyPI: 22.395 [ms]
[INFO] AdjustPhi: 2.721 [ms]
[INFO] ConstrainPressure: 0.003 [ms]
[INFO] MatrixAssemblyPII: 6.646 [ms]
nonePCG:  Solving for p, Initial residual = 0.883144, Final residual = 9.73449e-05, No Iterations 1148
[INFO] SolveP: 1693.57 [ms]
time step continuity errors : sum local = 1.0931e-08, global = 2.95001e-22, cumulative = 5.25913e-21
[INFO] ContinuityError: 1.782 [ms]
[INFO] CorrectBoundary: 0.122 [ms]
[INFO] PISOStep: 1738.35 [ms]
[INFO] TimeStep: 3572.82 [ms]
ExecutionTime = 26.52 s  ClockTime = 27 s

Time = 0.000664

Courant Number mean: 0.0235766 max: 0.471863
[INFO] MatrixAssemblyU: 20.813 [ms]
DILUPBiCGStab:  Solving for Ux, Initial residual = 0.0387268, Final residual = 0.00365445, No Iterations 5
DILUPBiCGStab:  Solving for Uy, Initial residual = 0.174528, Final residual = 0.0174623, No Iterations 5
DILUPBiCGStab:  Solving for Uz, Initial residual = 0.72013, Final residual = 0.0492542, No Iterations 5
[INFO] MomentumPredictor: 152.685 [ms]
[INFO] MatrixAssemblyPI: 21.879 [ms]
[INFO] AdjustPhi: 1.142 [ms]
[INFO] ConstrainPressure: 0.003 [ms]
[INFO] MatrixAssemblyPII: 6.181 [ms]
nonePCG:  Solving for p, Initial residual = 0.899372, Final residual = 9.87485e-05, No Iterations 1166
[INFO] SolveP: 1561.24 [ms]
time step continuity errors : sum local = 1.27984e-08, global = -1.56879e-23, cumulative = 5.24345e-21
[INFO] ContinuityError: 1.766 [ms]
[INFO] CorrectBoundary: 0.101 [ms]
[INFO] PISOStep: 1600.51 [ms]
[INFO] MatrixAssemblyPI: 20.695 [ms]
[INFO] AdjustPhi: 1.544 [ms]
[INFO] ConstrainPressure: 0.002 [ms]
[INFO] MatrixAssemblyPII: 6.256 [ms]
nonePCG:  Solving for p, Initial residual = 0.836353, Final residual = 9.99524e-05, No Iterations 1147
[INFO] SolveP: 1505.19 [ms]
time step continuity errors : sum local = 1.2566e-08, global = 7.09311e-22, cumulative = 5.95276e-21
[INFO] ContinuityError: 1.639 [ms]
[INFO] CorrectBoundary: 0.096 [ms]
[INFO] PISOStep: 1543.74 [ms]
[INFO] TimeStep: 3321.07 [ms]
ExecutionTime = 29.85 s  ClockTime = 31 s

Time = 0.00083

Courant Number mean: 0.0270356 max: 0.506593
[INFO] MatrixAssemblyU: 20.152 [ms]
DILUPBiCGStab:  Solving for Ux, Initial residual = 0.0326155, Final residual = 0.00322432, No Iterations 5
DILUPBiCGStab:  Solving for Uy, Initial residual = 0.131259, Final residual = 0.0148201, No Iterations 5
DILUPBiCGStab:  Solving for Uz, Initial residual = 0.66252, Final residual = 0.0416581, No Iterations 5
[INFO] MomentumPredictor: 150.898 [ms]
[INFO] MatrixAssemblyPI: 21.832 [ms]
[INFO] AdjustPhi: 1.04 [ms]
[INFO] ConstrainPressure: 0.002 [ms]
[INFO] MatrixAssemblyPII: 6.425 [ms]
nonePCG:  Solving for p, Initial residual = 0.918074, Final residual = 9.81636e-05, No Iterations 2374
[INFO] SolveP: 3120.46 [ms]
time step continuity errors : sum local = 1.17689e-08, global = 1.20847e-21, cumulative = 7.16122e-21
[INFO] ContinuityError: 1.772 [ms]
[INFO] CorrectBoundary: 0.104 [ms]
[INFO] PISOStep: 3159.59 [ms]
[INFO] MatrixAssemblyPI: 20.711 [ms]
[INFO] AdjustPhi: 1.554 [ms]
[INFO] ConstrainPressure: 0.002 [ms]
[INFO] MatrixAssemblyPII: 6.426 [ms]
nonePCG:  Solving for p, Initial residual = 0.875321, Final residual = 9.73954e-05, No Iterations 2373
[INFO] SolveP: 3401.69 [ms]
time step continuity errors : sum local = 1.15352e-08, global = 6.72694e-22, cumulative = 7.83392e-21
[INFO] ContinuityError: 2.348 [ms]
[INFO] CorrectBoundary: 0.116 [ms]
[INFO] PISOStep: 3441.71 [ms]
[INFO] TimeStep: 6774.91 [ms]
ExecutionTime = 36.65 s  ClockTime = 38 s

Time = 0.000996

Courant Number mean: 0.0297255 max: 0.478202
[INFO] MatrixAssemblyU: 19.803 [ms]
DILUPBiCGStab:  Solving for Ux, Initial residual = 0.0274258, Final residual = 0.00295779, No Iterations 5
DILUPBiCGStab:  Solving for Uy, Initial residual = 0.113182, Final residual = 0.0118798, No Iterations 5
DILUPBiCGStab:  Solving for Uz, Initial residual = 0.57949, Final residual = 0.0331632, No Iterations 5
[INFO] MomentumPredictor: 156.698 [ms]
[INFO] MatrixAssemblyPI: 20.478 [ms]
[INFO] AdjustPhi: 4.342 [ms]
[INFO] ConstrainPressure: 0.002 [ms]
[INFO] MatrixAssemblyPII: 6.283 [ms]
nonePCG:  Solving for p, Initial residual = 0.898322, Final residual = 9.94836e-05, No Iterations 2320
[INFO] SolveP: 3035.01 [ms]
time step continuity errors : sum local = 1.22683e-08, global = -5.67635e-23, cumulative = 7.77715e-21
[INFO] ContinuityError: 2.444 [ms]
[INFO] CorrectBoundary: 0.096 [ms]
[INFO] PISOStep: 3077.1 [ms]
[INFO] MatrixAssemblyPI: 20.953 [ms]
[INFO] AdjustPhi: 1.633 [ms]
[INFO] ConstrainPressure: 0.002 [ms]
[INFO] MatrixAssemblyPII: 6.271 [ms]
nonePCG:  Solving for p, Initial residual = 0.832362, Final residual = 9.99501e-05, No Iterations 2314
[INFO] SolveP: 3042.6 [ms]
time step continuity errors : sum local = 1.25e-08, global = 8.70987e-23, cumulative = 7.86425e-21
[INFO] ContinuityError: 2.379 [ms]
[INFO] CorrectBoundary: 0.098 [ms]
[INFO] PISOStep: 3082.23 [ms]
[INFO] TimeStep: 6339.34 [ms]
ExecutionTime = 43 s  ClockTime = 44 s

Time = 0.001162

Courant Number mean: 0.0321323 max: 0.513961
[INFO] MatrixAssemblyU: 19.546 [ms]
DILUPBiCGStab:  Solving for Ux, Initial residual = 0.0248798, Final residual = 0.00274399, No Iterations 5
DILUPBiCGStab:  Solving for Uy, Initial residual = 0.100039, Final residual = 0.0108113, No Iterations 5
DILUPBiCGStab:  Solving for Uz, Initial residual = 0.557306, Final residual = 0.0296611, No Iterations 5
[INFO] MomentumPredictor: 152.3 [ms]
[INFO] MatrixAssemblyPI: 21.543 [ms]
[INFO] AdjustPhi: 1.278 [ms]
[INFO] ConstrainPressure: 0.002 [ms]
[INFO] MatrixAssemblyPII: 6.229 [ms]
nonePCG:  Solving for p, Initial residual = 0.915018, Final residual = 9.90082e-05, No Iterations 2094
[INFO] SolveP: 2743.74 [ms]
time step continuity errors : sum local = 1.19262e-08, global = 9.7004e-22, cumulative = 8.83429e-21
[INFO] ContinuityError: 1.81 [ms]
[INFO] CorrectBoundary: 0.091 [ms]
[INFO] PISOStep: 2782.98 [ms]
[INFO] MatrixAssemblyPI: 20.734 [ms]
[INFO] AdjustPhi: 1.378 [ms]
[INFO] ConstrainPressure: 0.002 [ms]
[INFO] MatrixAssemblyPII: 6.476 [ms]
nonePCG:  Solving for p, Initial residual = 0.865732, Final residual = 9.99475e-05, No Iterations 2082
[INFO] SolveP: 2783.8 [ms]
time step continuity errors : sum local = 1.19157e-08, global = 8.8767e-22, cumulative = 9.72196e-21
[INFO] ContinuityError: 1.709 [ms]
[INFO] CorrectBoundary: 0.122 [ms]
[INFO] PISOStep: 2822.19 [ms]
[INFO] TimeStep: 5779.81 [ms]
ExecutionTime = 48.79 s  ClockTime = 50 s

Time = 0.001328

Courant Number mean: 0.0341647 max: 0.481146
[INFO] MatrixAssemblyU: 19.992 [ms]
DILUPBiCGStab:  Solving for Ux, Initial residual = 0.0224983, Final residual = 0.00255667, No Iterations 5
DILUPBiCGStab:  Solving for Uy, Initial residual = 0.0885371, Final residual = 0.009089, No Iterations 5
DILUPBiCGStab:  Solving for Uz, Initial residual = 0.518422, Final residual = 0.0270736, No Iterations 5
[INFO] MomentumPredictor: 150.783 [ms]
[INFO] MatrixAssemblyPI: 21.727 [ms]
[INFO] AdjustPhi: 1.061 [ms]
[INFO] ConstrainPressure: 0.002 [ms]
[INFO] MatrixAssemblyPII: 6.421 [ms]
nonePCG:  Solving for p, Initial residual = 0.895366, Final residual = 9.99194e-05, No Iterations 2298
[INFO] SolveP: 3333.34 [ms]
time step continuity errors : sum local = 1.22574e-08, global = 1.44496e-21, cumulative = 1.11669e-20
[INFO] ContinuityError: 2.453 [ms]
[INFO] CorrectBoundary: 0.106 [ms]
[INFO] PISOStep: 3374.15 [ms]
[INFO] MatrixAssemblyPI: 21.554 [ms]
[INFO] AdjustPhi: 2.693 [ms]
[INFO] ConstrainPressure: 0.002 [ms]
[INFO] MatrixAssemblyPII: 7.129 [ms]
nonePCG:  Solving for p, Initial residual = 0.826837, Final residual = 9.98611e-05, No Iterations 1128
[INFO] SolveP: 1488.25 [ms]
time step continuity errors : sum local = 1.40046e-08, global = -4.43586e-22, cumulative = 1.07233e-20
[INFO] ContinuityError: 1.737 [ms]
[INFO] CorrectBoundary: 0.084 [ms]
[INFO] PISOStep: 1529.7 [ms]
[INFO] TimeStep: 5077.18 [ms]
ExecutionTime = 53.88 s  ClockTime = 55 s

Time = 0.001494

Courant Number mean: 0.0360525 max: 0.52038
[INFO] MatrixAssemblyU: 20.182 [ms]
DILUPBiCGStab:  Solving for Ux, Initial residual = 0.0210339, Final residual = 0.00239816, No Iterations 5
DILUPBiCGStab:  Solving for Uy, Initial residual = 0.0834578, Final residual = 0.00848041, No Iterations 5
DILUPBiCGStab:  Solving for Uz, Initial residual = 0.522439, Final residual = 0.0289741, No Iterations 5
[INFO] MomentumPredictor: 150.822 [ms]
[INFO] MatrixAssemblyPI: 21.772 [ms]
[INFO] AdjustPhi: 1.045 [ms]
[INFO] ConstrainPressure: 0.002 [ms]
[INFO] MatrixAssemblyPII: 6.532 [ms]
nonePCG:  Solving for p, Initial residual = 0.911124, Final residual = 9.87113e-05, No Iterations 2293
[INFO] SolveP: 3024.04 [ms]
time step continuity errors : sum local = 1.18559e-08, global = -9.4629e-22, cumulative = 9.77704e-21
[INFO] ContinuityError: 1.716 [ms]
[INFO] CorrectBoundary: 0.111 [ms]
[INFO] PISOStep: 3063.16 [ms]
[INFO] MatrixAssemblyPI: 20.717 [ms]
[INFO] AdjustPhi: 1.374 [ms]
[INFO] ConstrainPressure: 0.002 [ms]
[INFO] MatrixAssemblyPII: 6.249 [ms]
nonePCG:  Solving for p, Initial residual = 0.857522, Final residual = 9.7943e-05, No Iterations 2292
[INFO] SolveP: 3011.23 [ms]
time step continuity errors : sum local = 1.16614e-08, global = 1.05625e-21, cumulative = 1.08333e-20
[INFO] ContinuityError: 1.575 [ms]
[INFO] CorrectBoundary: 0.078 [ms]
[INFO] PISOStep: 3049.66 [ms]
[INFO] TimeStep: 6286.44 [ms]
ExecutionTime = 60.19 s  ClockTime = 61 s

Time = 0.00166

Courant Number mean: 0.0377054 max: 0.484135
[INFO] MatrixAssemblyU: 20.023 [ms]
DILUPBiCGStab:  Solving for Ux, Initial residual = 0.0197098, Final residual = 0.00224597, No Iterations 5
DILUPBiCGStab:  Solving for Uy, Initial residual = 0.0753626, Final residual = 0.00740987, No Iterations 5
DILUPBiCGStab:  Solving for Uz, Initial residual = 0.495049, Final residual = 0.0243732, No Iterations 5
[INFO] MomentumPredictor: 150.63 [ms]
[INFO] MatrixAssemblyPI: 21.882 [ms]
[INFO] AdjustPhi: 1.007 [ms]
[INFO] ConstrainPressure: 0.003 [ms]
[INFO] MatrixAssemblyPII: 6.132 [ms]
nonePCG:  Solving for p, Initial residual = 0.893736, Final residual = 9.74979e-05, No Iterations 2293
[INFO] SolveP: 3022.78 [ms]
time step continuity errors : sum local = 1.20563e-08, global = -2.02664e-22, cumulative = 1.06306e-20
[INFO] ContinuityError: 2.245 [ms]
[INFO] CorrectBoundary: 0.118 [ms]
[INFO] PISOStep: 3062.42 [ms]
[INFO] MatrixAssemblyPI: 20.698 [ms]
[INFO] AdjustPhi: 1.862 [ms]
[INFO] ConstrainPressure: 0.002 [ms]
[INFO] MatrixAssemblyPII: 6.185 [ms]
nonePCG:  Solving for p, Initial residual = 0.822267, Final residual = 9.72567e-05, No Iterations 2291
[INFO] SolveP: 3010.28 [ms]
time step continuity errors : sum local = 1.21661e-08, global = -6.35615e-22, cumulative = 9.99502e-21
[INFO] ContinuityError: 1.683 [ms]
[INFO] CorrectBoundary: 0.07 [ms]
[INFO] PISOStep: 3049.28 [ms]
[INFO] TimeStep: 6284.99 [ms]
ExecutionTime = 66.49 s  ClockTime = 67 s

Time = 0.001826

Courant Number mean: 0.0392779 max: 0.527199
[INFO] MatrixAssemblyU: 20.011 [ms]
DILUPBiCGStab:  Solving for Ux, Initial residual = 0.0185326, Final residual = 0.00208919, No Iterations 5
DILUPBiCGStab:  Solving for Uy, Initial residual = 0.0735431, Final residual = 0.00708574, No Iterations 5
DILUPBiCGStab:  Solving for Uz, Initial residual = 0.49355, Final residual = 0.0231072, No Iterations 5
[INFO] MomentumPredictor: 151.155 [ms]
[INFO] MatrixAssemblyPI: 21.868 [ms]
[INFO] AdjustPhi: 0.832 [ms]
[INFO] ConstrainPressure: 0.002 [ms]
[INFO] MatrixAssemblyPII: 6.513 [ms]
nonePCG:  Solving for p, Initial residual = 0.911018, Final residual = 9.85879e-05, No Iterations 2291
[INFO] SolveP: 3289.05 [ms]
time step continuity errors : sum local = 1.2101e-08, global = 2.20635e-21, cumulative = 1.22014e-20
[INFO] ContinuityError: 2.394 [ms]
[INFO] CorrectBoundary: 0.143 [ms]
[INFO] PISOStep: 3329.76 [ms]
[INFO] MatrixAssemblyPI: 21.763 [ms]
[INFO] AdjustPhi: 1.999 [ms]
[INFO] ConstrainPressure: 0.002 [ms]
[INFO] MatrixAssemblyPII: 7.138 [ms]
nonePCG:  Solving for p, Initial residual = 0.852104, Final residual = 9.96902e-05, No Iterations 2289
[INFO] SolveP: 3015.77 [ms]
time step continuity errors : sum local = 1.21472e-08, global = 8.21615e-22, cumulative = 1.3023e-20
[INFO] ContinuityError: 2.572 [ms]
[INFO] CorrectBoundary: 0.083 [ms]
[INFO] PISOStep: 3057.23 [ms]
[INFO] TimeStep: 6560.85 [ms]
ExecutionTime = 73.08 s  ClockTime = 74 s

Time = 0.001992

Courant Number mean: 0.0406765 max: 0.487347
[INFO] MatrixAssemblyU: 19.708 [ms]
DILUPBiCGStab:  Solving for Ux, Initial residual = 0.0178719, Final residual = 0.00201662, No Iterations 5
DILUPBiCGStab:  Solving for Uy, Initial residual = 0.0667926, Final residual = 0.0062373, No Iterations 5
DILUPBiCGStab:  Solving for Uz, Initial residual = 0.478784, Final residual = 0.0221717, No Iterations 5
[INFO] MomentumPredictor: 152.41 [ms]
[INFO] MatrixAssemblyPI: 21.955 [ms]
[INFO] AdjustPhi: 2.584 [ms]
[INFO] ConstrainPressure: 0.002 [ms]
[INFO] MatrixAssemblyPII: 6.448 [ms]
nonePCG:  Solving for p, Initial residual = 0.895168, Final residual = 9.90775e-05, No Iterations 2291
[INFO] SolveP: 3013.47 [ms]
time step continuity errors : sum local = 1.26351e-08, global = -1.33783e-22, cumulative = 1.28892e-20
[INFO] ContinuityError: 1.693 [ms]
[INFO] CorrectBoundary: 0.079 [ms]
[INFO] PISOStep: 3054.82 [ms]
[INFO] MatrixAssemblyPI: 21.016 [ms]
[INFO] AdjustPhi: 1.093 [ms]
[INFO] ConstrainPressure: 0.002 [ms]
[INFO] MatrixAssemblyPII: 6.483 [ms]
nonePCG:  Solving for p, Initial residual = 0.821731, Final residual = 9.8616e-05, No Iterations 2289
[INFO] SolveP: 3041.26 [ms]
time step continuity errors : sum local = 1.27044e-08, global = -2.6109e-22, cumulative = 1.26281e-20
[INFO] ContinuityError: 1.556 [ms]
[INFO] CorrectBoundary: 0.109 [ms]
[INFO] PISOStep: 3079.61 [ms]
[INFO] TimeStep: 6309.66 [ms]
ExecutionTime = 79.41 s  ClockTime = 80 s

Time = 0.002158

Courant Number mean: 0.0420352 max: 0.534808
[INFO] MatrixAssemblyU: 19.985 [ms]
DILUPBiCGStab:  Solving for Ux, Initial residual = 0.0169321, Final residual = 0.0018633, No Iterations 5
DILUPBiCGStab:  Solving for Uy, Initial residual = 0.0667202, Final residual = 0.00610016, No Iterations 5
DILUPBiCGStab:  Solving for Uz, Initial residual = 0.485472, Final residual = 0.0218201, No Iterations 5
[INFO] MomentumPredictor: 151.035 [ms]
[INFO] MatrixAssemblyPI: 21.911 [ms]
[INFO] AdjustPhi: 0.916 [ms]
[INFO] ConstrainPressure: 0.002 [ms]
[INFO] MatrixAssemblyPII: 6.317 [ms]
nonePCG:  Solving for p, Initial residual = 0.91149, Final residual = 9.93774e-05, No Iterations 2290
[INFO] SolveP: 3020.55 [ms]
time step continuity errors : sum local = 1.26622e-08, global = 1.5051e-21, cumulative = 1.41332e-20
[INFO] ContinuityError: 1.884 [ms]
[INFO] CorrectBoundary: 0.09 [ms]
[INFO] PISOStep: 3059.75 [ms]
[INFO] MatrixAssemblyPI: 20.908 [ms]
[INFO] AdjustPhi: 1.13 [ms]
[INFO] ConstrainPressure: 0.002 [ms]
[INFO] MatrixAssemblyPII: 6.423 [ms]
nonePCG:  Solving for p, Initial residual = 0.8488, Final residual = 9.97801e-05, No Iterations 2288
[INFO] SolveP: 4897.01 [ms]
time step continuity errors : sum local = 1.26389e-08, global = 1.11695e-21, cumulative = 1.52502e-20
[INFO] ContinuityError: 2.119 [ms]
[INFO] CorrectBoundary: 0.096 [ms]
[INFO] PISOStep: 4935.48 [ms]
[INFO] TimeStep: 8168.93 [ms]
ExecutionTime = 87.6 s  ClockTime = 88 s

Time = 0.002324

Courant Number mean: 0.0432513 max: 0.490261
[INFO] MatrixAssemblyU: 20.131 [ms]
DILUPBiCGStab:  Solving for Ux, Initial residual = 0.0166174, Final residual = 0.0018317, No Iterations 5
DILUPBiCGStab:  Solving for Uy, Initial residual = 0.0613386, Final residual = 0.00542604, No Iterations 5
DILUPBiCGStab:  Solving for Uz, Initial residual = 0.476009, Final residual = 0.0211553, No Iterations 5
[INFO] MomentumPredictor: 155.215 [ms]
[INFO] MatrixAssemblyPI: 21.517 [ms]
[INFO] AdjustPhi: 1.318 [ms]
[INFO] ConstrainPressure: 0.002 [ms]
[INFO] MatrixAssemblyPII: 6.378 [ms]
nonePCG:  Solving for p, Initial residual = 0.897044, Final residual = 9.92413e-05, No Iterations 2290
[INFO] SolveP: 3008.58 [ms]
time step continuity errors : sum local = 1.31448e-08, global = 5.70454e-22, cumulative = 1.58206e-20
[INFO] ContinuityError: 1.765 [ms]
[INFO] CorrectBoundary: 0.09 [ms]
[INFO] PISOStep: 3047.7 [ms]
[INFO] MatrixAssemblyPI: 20.708 [ms]
[INFO] AdjustPhi: 1.365 [ms]
[INFO] ConstrainPressure: 0.002 [ms]
[INFO] MatrixAssemblyPII: 6.241 [ms]
nonePCG:  Solving for p, Initial residual = 0.822558, Final residual = 9.80405e-05, No Iterations 2288
[INFO] SolveP: 3215.54 [ms]
time step continuity errors : sum local = 1.30993e-08, global = 1.8565e-22, cumulative = 1.60063e-20
[INFO] ContinuityError: 2.79 [ms]
[INFO] CorrectBoundary: 0.108 [ms]
[INFO] PISOStep: 3255.66 [ms]
[INFO] TimeStep: 6481.7 [ms]
ExecutionTime = 94.1 s  ClockTime = 95 s

Time = 0.00249

Courant Number mean: 0.0444524 max: 0.543388
[INFO] MatrixAssemblyU: 21.206 [ms]
DILUPBiCGStab:  Solving for Ux, Initial residual = 0.0158602, Final residual = 0.0016875, No Iterations 5
DILUPBiCGStab:  Solving for Uy, Initial residual = 0.0620156, Final residual = 0.00538399, No Iterations 5
DILUPBiCGStab:  Solving for Uz, Initial residual = 0.484749, Final residual = 0.0210561, No Iterations 5
[INFO] MomentumPredictor: 193.873 [ms]
[INFO] MatrixAssemblyPI: 22.038 [ms]
[INFO] AdjustPhi: 2.073 [ms]
[INFO] ConstrainPressure: 0.003 [ms]
[INFO] MatrixAssemblyPII: 5.907 [ms]
nonePCG:  Solving for p, Initial residual = 0.911604, Final residual = 9.89854e-05, No Iterations 2196
[INFO] SolveP: 2891.53 [ms]
time step continuity errors : sum local = 1.31372e-08, global = 6.41599e-22, cumulative = 1.66479e-20
[INFO] ContinuityError: 2.39 [ms]
[INFO] CorrectBoundary: 0.086 [ms]
[INFO] PISOStep: 2932.66 [ms]
[INFO] MatrixAssemblyPI: 20.504 [ms]
[INFO] AdjustPhi: 2.266 [ms]
[INFO] ConstrainPressure: 0.002 [ms]
[INFO] MatrixAssemblyPII: 6.412 [ms]
nonePCG:  Solving for p, Initial residual = 0.846012, Final residual = 9.92891e-05, No Iterations 2286
[INFO] SolveP: 2997.79 [ms]
time step continuity errors : sum local = 1.31173e-08, global = 1.55372e-21, cumulative = 1.82016e-20
[INFO] ContinuityError: 1.685 [ms]
[INFO] CorrectBoundary: 0.11 [ms]
[INFO] PISOStep: 3037.14 [ms]
[INFO] TimeStep: 6189.15 [ms]
ExecutionTime = 100.31 s  ClockTime = 101 s

Time = 0.002656

Courant Number mean: 0.0455295 max: 0.493071
[INFO] MatrixAssemblyU: 19.633 [ms]
DILUPBiCGStab:  Solving for Ux, Initial residual = 0.0157503, Final residual = 0.00168194, No Iterations 5
DILUPBiCGStab:  Solving for Uy, Initial residual = 0.0577891, Final residual = 0.00483097, No Iterations 5
DILUPBiCGStab:  Solving for Uz, Initial residual = 0.47819, Final residual = 0.0205073, No Iterations 5
[INFO] MomentumPredictor: 150.934 [ms]
[INFO] MatrixAssemblyPI: 21.483 [ms]
[INFO] AdjustPhi: 1.26 [ms]
[INFO] ConstrainPressure: 0.002 [ms]
[INFO] MatrixAssemblyPII: 6.187 [ms]
nonePCG:  Solving for p, Initial residual = 0.899295, Final residual = 9.77845e-05, No Iterations 2291
[INFO] SolveP: 3007.97 [ms]
time step continuity errors : sum local = 1.34644e-08, global = 1.61599e-21, cumulative = 1.98176e-20
[INFO] ContinuityError: 1.646 [ms]
[INFO] CorrectBoundary: 0.117 [ms]
[INFO] PISOStep: 3046.85 [ms]
[INFO] MatrixAssemblyPI: 20.938 [ms]
[INFO] AdjustPhi: 1.238 [ms]
[INFO] ConstrainPressure: 0.003 [ms]
[INFO] MatrixAssemblyPII: 6.457 [ms]
nonePCG:  Solving for p, Initial residual = 0.823736, Final residual = 9.96073e-05, No Iterations 2288
[INFO] SolveP: 3006.19 [ms]
time step continuity errors : sum local = 1.38183e-08, global = 1.32968e-21, cumulative = 2.11472e-20
[INFO] ContinuityError: 2.187 [ms]
[INFO] CorrectBoundary: 0.071 [ms]
[INFO] PISOStep: 3045.08 [ms]
[INFO] TimeStep: 6265.11 [ms]
ExecutionTime = 106.59 s  ClockTime = 107 s

Time = 0.002822

Courant Number mean: 0.0466107 max: 0.553204
[INFO] MatrixAssemblyU: 20.41 [ms]
DILUPBiCGStab:  Solving for Ux, Initial residual = 0.0151528, Final residual = 0.00154983, No Iterations 5
DILUPBiCGStab:  Solving for Uy, Initial residual = 0.0588392, Final residual = 0.00484589, No Iterations 5
DILUPBiCGStab:  Solving for Uz, Initial residual = 0.487511, Final residual = 0.0205685, No Iterations 5
[INFO] MomentumPredictor: 159.378 [ms]
[INFO] MatrixAssemblyPI: 21.781 [ms]
[INFO] AdjustPhi: 1.096 [ms]
[INFO] ConstrainPressure: 0.002 [ms]
[INFO] MatrixAssemblyPII: 6.287 [ms]
nonePCG:  Solving for p, Initial residual = 0.912404, Final residual = 9.92993e-05, No Iterations 2290
[INFO] SolveP: 3058.22 [ms]
time step continuity errors : sum local = 1.37519e-08, global = 1.02847e-22, cumulative = 2.12501e-20
[INFO] ContinuityError: 1.773 [ms]
[INFO] CorrectBoundary: 0.103 [ms]
[INFO] PISOStep: 3097.38 [ms]
[INFO] MatrixAssemblyPI: 21.047 [ms]
[INFO] AdjustPhi: 0.974 [ms]
[INFO] ConstrainPressure: 0.002 [ms]
[INFO] MatrixAssemblyPII: 6.341 [ms]
nonePCG:  Solving for p, Initial residual = 0.843716, Final residual = 9.88173e-05, No Iterations 2288
[INFO] SolveP: 3030.71 [ms]
time step continuity errors : sum local = 1.36378e-08, global = 7.81736e-22, cumulative = 2.20318e-20
[INFO] ContinuityError: 1.631 [ms]
[INFO] CorrectBoundary: 0.124 [ms]
[INFO] PISOStep: 3069.05 [ms]
[INFO] TimeStep: 6348.9 [ms]
ExecutionTime = 112.96 s  ClockTime = 114 s

Time = 0.002988

Courant Number mean: 0.0475778 max: 0.495948
[INFO] MatrixAssemblyU: 20.21 [ms]
DILUPBiCGStab:  Solving for Ux, Initial residual = 0.0151783, Final residual = 0.00155863, No Iterations 5
DILUPBiCGStab:  Solving for Uy, Initial residual = 0.0555993, Final residual = 0.0043839, No Iterations 5
DILUPBiCGStab:  Solving for Uz, Initial residual = 0.483356, Final residual = 0.020252, No Iterations 5
[INFO] MomentumPredictor: 154.604 [ms]
[INFO] MatrixAssemblyPI: 21.657 [ms]
[INFO] AdjustPhi: 1.113 [ms]
[INFO] ConstrainPressure: 0.002 [ms]
[INFO] MatrixAssemblyPII: 6.221 [ms]
nonePCG:  Solving for p, Initial residual = 0.90329, Final residual = 9.80648e-05, No Iterations 2291
[INFO] SolveP: 3032.31 [ms]
time step continuity errors : sum local = 1.40729e-08, global = 1.27292e-23, cumulative = 2.20446e-20
[INFO] ContinuityError: 2.237 [ms]
[INFO] CorrectBoundary: 0.11 [ms]
[INFO] PISOStep: 3071.85 [ms]
[INFO] MatrixAssemblyPI: 21.21 [ms]
[INFO] AdjustPhi: 2.822 [ms]
[INFO] ConstrainPressure: 0.002 [ms]
[INFO] MatrixAssemblyPII: 6.516 [ms]
nonePCG:  Solving for p, Initial residual = 0.826205, Final residual = 9.9655e-05, No Iterations 2288
[INFO] SolveP: 3005.61 [ms]
time step continuity errors : sum local = 1.43933e-08, global = 7.84245e-23, cumulative = 2.2123e-20
[INFO] ContinuityError: 1.597 [ms]
[INFO] CorrectBoundary: 0.098 [ms]
[INFO] PISOStep: 3046.43 [ms]
[INFO] TimeStep: 6295.69 [ms]
ExecutionTime = 119.27 s  ClockTime = 120 s

Time = 0.003154

Courant Number mean: 0.0485633 max: 0.564224
[INFO] MatrixAssemblyU: 20.048 [ms]
DILUPBiCGStab:  Solving for Ux, Initial residual = 0.0147407, Final residual = 0.00144032, No Iterations 5
DILUPBiCGStab:  Solving for Uy, Initial residual = 0.056874, Final residual = 0.00443306, No Iterations 5
DILUPBiCGStab:  Solving for Uz, Initial residual = 0.493088, Final residual = 0.0204101, No Iterations 5
[INFO] MomentumPredictor: 150.977 [ms]
[INFO] MatrixAssemblyPI: 21.683 [ms]
[INFO] AdjustPhi: 1.147 [ms]
[INFO] ConstrainPressure: 0.002 [ms]
[INFO] MatrixAssemblyPII: 6.454 [ms]
nonePCG:  Solving for p, Initial residual = 0.914459, Final residual = 9.8086e-05, No Iterations 2291
[INFO] SolveP: 3006.33 [ms]
time step continuity errors : sum local = 1.42261e-08, global = -1.24324e-21, cumulative = 2.08797e-20
[INFO] ContinuityError: 2.42 [ms]
[INFO] CorrectBoundary: 0.098 [ms]
[INFO] PISOStep: 3046.21 [ms]
[INFO] MatrixAssemblyPI: 21.017 [ms]
[INFO] AdjustPhi: 1.386 [ms]
[INFO] ConstrainPressure: 0.002 [ms]
[INFO] MatrixAssemblyPII: 6.545 [ms]
nonePCG:  Solving for p, Initial residual = 0.842862, Final residual = 9.77743e-05, No Iterations 2289
[INFO] SolveP: 3139.82 [ms]
time step continuity errors : sum local = 1.41454e-08, global = -1.95457e-22, cumulative = 2.06843e-20
[INFO] ContinuityError: 1.613 [ms]
[INFO] CorrectBoundary: 0.096 [ms]
[INFO] PISOStep: 3179.67 [ms]
[INFO] TimeStep: 6399.44 [ms]
ExecutionTime = 125.7 s  ClockTime = 126 s

Time = 0.00332

Courant Number mean: 0.0494411 max: 0.498948
[INFO] MatrixAssemblyU: 21.638 [ms]
DILUPBiCGStab:  Solving for Ux, Initial residual = 0.0148644, Final residual = 0.00145604, No Iterations 5
DILUPBiCGStab:  Solving for Uy, Initial residual = 0.0544, Final residual = 0.00404397, No Iterations 5
DILUPBiCGStab:  Solving for Uz, Initial residual = 0.490483, Final residual = 0.020167, No Iterations 5
[INFO] MomentumPredictor: 202.809 [ms]
[INFO] MatrixAssemblyPI: 21.123 [ms]
[INFO] AdjustPhi: 3.634 [ms]
[INFO] ConstrainPressure: 0.002 [ms]
[INFO] MatrixAssemblyPII: 6.3 [ms]
nonePCG:  Solving for p, Initial residual = 0.907996, Final residual = 9.98904e-05, No Iterations 2190
[INFO] SolveP: 2980.66 [ms]
time step continuity errors : sum local = 1.49936e-08, global = -4.55447e-23, cumulative = 2.06387e-20
[INFO] ContinuityError: 2.996 [ms]
[INFO] CorrectBoundary: 0.669 [ms]
[INFO] PISOStep: 3025.11 [ms]
[INFO] MatrixAssemblyPI: 20.177 [ms]
[INFO] AdjustPhi: 3.191 [ms]
[INFO] ConstrainPressure: 0.002 [ms]
[INFO] MatrixAssemblyPII: 6.295 [ms]
nonePCG:  Solving for p, Initial residual = 0.829684, Final residual = 9.94016e-05, No Iterations 2284
[INFO] SolveP: 3001.12 [ms]
time step continuity errors : sum local = 1.50029e-08, global = 6.60758e-22, cumulative = 2.12995e-20
[INFO] ContinuityError: 1.686 [ms]
[INFO] CorrectBoundary: 0.066 [ms]
[INFO] PISOStep: 3041.25 [ms]
[INFO] TimeStep: 6293.76 [ms]
ExecutionTime = 132 s  ClockTime = 133 s

End

Finalising parallel run
