/*---------------------------------------------------------------------------*\
| =========                 |                                                 |
| \\      /  F ield         | OpenFOAM: The Open Source CFD Toolbox           |
|  \\    /   O peration     | Version:  2306                                  |
|   \\  /    A nd           | Website:  www.openfoam.com                      |
|    \\/     M anipulation  |                                                 |
\*---------------------------------------------------------------------------*/
Build  : a6e826bd55-20230630 OPENFOAM=2306 version=v2306
Arch   : "LSB;label=32;scalar=64"
Exec   : icoFoam -parallel -case /tmp/lidDrivenCavity3D/workspace/7f162e5f58ec1df12f895e7d80cb9c89/case
Date   : Dec 05 2023
Time   : 16:36:55
Host   : nla-gpu2.ianm.kit.edu
PID    : 3923782
I/O    : uncollated
Case   : /tmp/lidDrivenCavity3D/workspace/7f162e5f58ec1df12f895e7d80cb9c89/case
nProcs : 8
Hosts  :
(
    (nla-gpu2.ianm.kit.edu 8)
)
Pstream initialized with:
    floatTransfer      : false
    nProcsSimpleSum    : 0
    nonBlockingExchange: 0 (tuning: 0)
    exchange algorithm : -1
    commsType          : nonBlocking
    polling iterations : 0
trapFpe: Floating point exception trapping enabled (FOAM_SIGFPE).
fileModificationChecking : Monitoring run-time modified files using timeStampMaster (fileModificationSkew 5, maxFileModificationPolls 20)
allowSystemOperations : Allowing user-supplied system call operations

// * * * * * * * * * * * * * * * * * * * * * * * * * * * * * * * * * * * * * //
Create time

--> FOAM Warning : 
    From void* Foam::dlLibraryTable::openLibrary(const Foam::fileName&, bool)
    in file db/dynamicLibrary/dlLibraryTable/dlLibraryTable.C at line 188
    Could not load "libpetscFoam.so"
libpetscFoam.so: cannot open shared object file: No such file or directory
Create mesh for time = 0


PISO: Operating solver in PISO mode

Reading transportProperties

Reading field p

Reading field U

Reading/calculating face flux field phi


Starting time loop

Time = 0.00025

Courant Number mean: 8.24341e-18 max: 2.08167e-14
momentum setup 109.264 [ms]
DILUPBiCGStab:  Solving for Ux, Initial residual = 1, Final residual = 0.00959752, No Iterations 5
DILUPBiCGStab:  Solving for Uy:  solution singularity
DILUPBiCGStab:  Solving for Uz:  solution singularity
piso setup 113.598 [ms]
 correctNonOrthogonal 
 setRef 
 startSolve 
DICPCG:  Solving for p, Initial residual = 1, Final residual = 9.73667e-05, No Iterations 641
piso step 14618.4 [ms]
 contErrors 
time step continuity errors : sum local = 7.48211e-09, global = -2.08194e-22, cumulative = -2.08194e-22
piso setup 109.061 [ms]
 correctNonOrthogonal 
 setRef 
 startSolve 
DICPCG:  Solving for p, Initial residual = 0.786529, Final residual = 9.28563e-05, No Iterations 645
piso step 14570.5 [ms]
 contErrors 
time step continuity errors : sum local = 8.9173e-09, global = -1.4906e-21, cumulative = -1.69879e-21
ExecutionTime = 30.73 s  ClockTime = 31 s

Time = 0.0005

Courant Number mean: 0.0159725 max: 0.41252
momentum setup 81.558 [ms]
DILUPBiCGStab:  Solving for Ux, Initial residual = 0.129596, Final residual = 0.00510248, No Iterations 5
DILUPBiCGStab:  Solving for Uy, Initial residual = 0.426758, Final residual = 0.0132341, No Iterations 5
DILUPBiCGStab:  Solving for Uz, Initial residual = 0.993449, Final residual = 0.0333354, No Iterations 5
piso setup 110.141 [ms]
 correctNonOrthogonal 
 setRef 
 startSolve 
DICPCG:  Solving for p, Initial residual = 0.824122, Final residual = 9.78473e-05, No Iterations 637
piso step 14431.7 [ms]
 contErrors 
time step continuity errors : sum local = 1.43363e-08, global = -3.62434e-22, cumulative = -2.06123e-21
piso setup 110.331 [ms]
 correctNonOrthogonal 
 setRef 
 startSolve 
DICPCG:  Solving for p, Initial residual = 0.767407, Final residual = 9.72532e-05, No Iterations 635
piso step 14441.1 [ms]
 contErrors 
time step continuity errors : sum local = 1.45057e-08, global = -1.10832e-21, cumulative = -3.16955e-21
ExecutionTime = 60.71 s  ClockTime = 61 s

Time = 0.00075

Courant Number mean: 0.0243584 max: 0.471979
momentum setup 79.8 [ms]
DILUPBiCGStab:  Solving for Ux, Initial residual = 0.0547594, Final residual = 0.00175944, No Iterations 5
DILUPBiCGStab:  Solving for Uy, Initial residual = 0.182102, Final residual = 0.00707718, No Iterations 5
DILUPBiCGStab:  Solving for Uz, Initial residual = 0.81524, Final residual = 0.0252645, No Iterations 5
piso setup 109.08 [ms]
 correctNonOrthogonal 
 setRef 
 startSolve 
DICPCG:  Solving for p, Initial residual = 0.84873, Final residual = 9.6514e-05, No Iterations 281
piso step 6484.53 [ms]
 contErrors 
time step continuity errors : sum local = 1.42037e-08, global = -2.39055e-22, cumulative = -3.4086e-21
piso setup 107.941 [ms]
 correctNonOrthogonal 
 setRef 
 startSolve 
DICPCG:  Solving for p, Initial residual = 0.815441, Final residual = 9.74569e-05, No Iterations 280
piso step 6358.97 [ms]
 contErrors 
time step continuity errors : sum local = 1.31497e-08, global = 7.54544e-23, cumulative = -3.33315e-21
ExecutionTime = 74.76 s  ClockTime = 75 s

Time = 0.001

Courant Number mean: 0.0292331 max: 0.467777
momentum setup 79.328 [ms]
DILUPBiCGStab:  Solving for Ux, Initial residual = 0.0346294, Final residual = 0.00116244, No Iterations 5
DILUPBiCGStab:  Solving for Uy, Initial residual = 0.129107, Final residual = 0.00439253, No Iterations 5
DILUPBiCGStab:  Solving for Uz, Initial residual = 0.60543, Final residual = 0.0152785, No Iterations 5
piso setup 107.741 [ms]
 correctNonOrthogonal 
 setRef 
 startSolve 
DICPCG:  Solving for p, Initial residual = 0.769415, Final residual = 9.94315e-05, No Iterations 283
piso step 6543.89 [ms]
 contErrors 
time step continuity errors : sum local = 1.35829e-08, global = -1.5702e-21, cumulative = -4.90334e-21
piso setup 105.674 [ms]
 correctNonOrthogonal 
 setRef 
 startSolve 
DICPCG:  Solving for p, Initial residual = 0.706719, Final residual = 9.24469e-05, No Iterations 280
piso step 6408.48 [ms]
 contErrors 
time step continuity errors : sum local = 1.18238e-08, global = -1.78438e-21, cumulative = -6.68773e-21
ExecutionTime = 88.93 s  ClockTime = 89 s

Time = 0.00125

Courant Number mean: 0.0333808 max: 0.472894
momentum setup 82.558 [ms]
DILUPBiCGStab:  Solving for Ux, Initial residual = 0.0271479, Final residual = 0.000844589, No Iterations 5
DILUPBiCGStab:  Solving for Uy, Initial residual = 0.0811119, Final residual = 0.00325258, No Iterations 5
DILUPBiCGStab:  Solving for Uz, Initial residual = 0.459465, Final residual = 0.0122256, No Iterations 5
piso setup 108.494 [ms]
 correctNonOrthogonal 
 setRef 
 startSolve 
DICPCG:  Solving for p, Initial residual = 0.774894, Final residual = 9.74163e-05, No Iterations 562
piso step 12670.2 [ms]
 contErrors 
time step continuity errors : sum local = 9.80357e-09, global = -7.65724e-22, cumulative = -7.45345e-21
piso setup 106.623 [ms]
 correctNonOrthogonal 
 setRef 
 startSolve 
DICPCG:  Solving for p, Initial residual = 0.723545, Final residual = 9.51827e-05, No Iterations 563
piso step 12705.6 [ms]
 contErrors 
time step continuity errors : sum local = 9.45263e-09, global = -3.69564e-21, cumulative = -1.11491e-20
ExecutionTime = 115.43 s  ClockTime = 116 s

Time = 0.0015

Courant Number mean: 0.0366867 max: 0.475574
momentum setup 81.041 [ms]
DILUPBiCGStab:  Solving for Ux, Initial residual = 0.0203865, Final residual = 0.000602766, No Iterations 5
DILUPBiCGStab:  Solving for Uy, Initial residual = 0.0657864, Final residual = 0.00224602, No Iterations 5
DILUPBiCGStab:  Solving for Uz, Initial residual = 0.331502, Final residual = 0.00797742, No Iterations 5
piso setup 108.67 [ms]
 correctNonOrthogonal 
 setRef 
 startSolve 
DICPCG:  Solving for p, Initial residual = 0.68144, Final residual = 9.72837e-05, No Iterations 585
piso step 13296.7 [ms]
 contErrors 
time step continuity errors : sum local = 9.0066e-09, global = -1.34749e-21, cumulative = -1.24966e-20
piso setup 106.759 [ms]
 correctNonOrthogonal 
 setRef 
 startSolve 
DICPCG:  Solving for p, Initial residual = 0.62061, Final residual = 9.73146e-05, No Iterations 584
piso step 13144.4 [ms]
 contErrors 
time step continuity errors : sum local = 9.04275e-09, global = -2.1155e-21, cumulative = -1.46121e-20
ExecutionTime = 142.99 s  ClockTime = 143 s

Time = 0.00175

Courant Number mean: 0.0396042 max: 0.477519
momentum setup 80.31 [ms]
DILUPBiCGStab:  Solving for Ux, Initial residual = 0.0174145, Final residual = 0.000479259, No Iterations 5
DILUPBiCGStab:  Solving for Uy, Initial residual = 0.0488032, Final residual = 0.00163106, No Iterations 5
DILUPBiCGStab:  Solving for Uz, Initial residual = 0.250686, Final residual = 0.00694358, No Iterations 5
piso setup 108.244 [ms]
 correctNonOrthogonal 
 setRef 
 startSolve 
DICPCG:  Solving for p, Initial residual = 0.677214, Final residual = 9.62228e-05, No Iterations 564
piso step 12804.1 [ms]
 contErrors 
time step continuity errors : sum local = 7.44289e-09, global = -1.88315e-21, cumulative = -1.64952e-20
piso setup 109.173 [ms]
 correctNonOrthogonal 
 setRef 
 startSolve 
DICPCG:  Solving for p, Initial residual = 0.617386, Final residual = 9.84397e-05, No Iterations 564
piso step 12759.2 [ms]
 contErrors 
time step continuity errors : sum local = 7.57478e-09, global = -2.457e-21, cumulative = -1.89522e-20
ExecutionTime = 169.69 s  ClockTime = 170 s

Time = 0.002

Courant Number mean: 0.0421309 max: 0.479218
momentum setup 78.867 [ms]
DILUPBiCGStab:  Solving for Ux, Initial residual = 0.0142534, Final residual = 0.000366267, No Iterations 5
DILUPBiCGStab:  Solving for Uy, Initial residual = 0.0416152, Final residual = 0.00126977, No Iterations 5
DILUPBiCGStab:  Solving for Uz, Initial residual = 0.197225, Final residual = 0.00560614, No Iterations 5
piso setup 108.821 [ms]
 correctNonOrthogonal 
 setRef 
 startSolve 
DICPCG:  Solving for p, Initial residual = 0.586082, Final residual = 9.75592e-05, No Iterations 272
piso step 6209.96 [ms]
 contErrors 
time step continuity errors : sum local = 8.21291e-09, global = -2.10052e-21, cumulative = -2.10528e-20
piso setup 105.935 [ms]
 correctNonOrthogonal 
 setRef 
 startSolve 
DICPCG:  Solving for p, Initial residual = 0.528293, Final residual = 9.77938e-05, No Iterations 267
piso step 6071.7 [ms]
 contErrors 
time step continuity errors : sum local = 7.55002e-09, global = -2.37602e-21, cumulative = -2.34288e-20
ExecutionTime = 183.16 s  ClockTime = 184 s

Time = 0.00225

Courant Number mean: 0.0444171 max: 0.480371
momentum setup 80.903 [ms]
DILUPBiCGStab:  Solving for Ux, Initial residual = 0.0125572, Final residual = 0.000301876, No Iterations 5
DILUPBiCGStab:  Solving for Uy, Initial residual = 0.0334629, Final residual = 0.000893401, No Iterations 5
DILUPBiCGStab:  Solving for Uz, Initial residual = 0.161324, Final residual = 0.00547669, No Iterations 5
piso setup 108.321 [ms]
 correctNonOrthogonal 
 setRef 
 startSolve 
DICPCG:  Solving for p, Initial residual = 0.573129, Final residual = 9.37956e-05, No Iterations 563
piso step 12785.1 [ms]
 contErrors 
time step continuity errors : sum local = 5.98708e-09, global = -1.30523e-22, cumulative = -2.35593e-20
piso setup 145.436 [ms]
 correctNonOrthogonal 
 setRef 
 startSolve 
DICPCG:  Solving for p, Initial residual = 0.511964, Final residual = 9.6015e-05, No Iterations 562
piso step 12691.8 [ms]
 contErrors 
time step continuity errors : sum local = 6.12757e-09, global = -1.1906e-21, cumulative = -2.47499e-20
ExecutionTime = 209.8 s  ClockTime = 211 s

Time = 0.0025

Courant Number mean: 0.0464719 max: 0.481476
momentum setup 78.992 [ms]
DILUPBiCGStab:  Solving for Ux, Initial residual = 0.0107956, Final residual = 0.000242447, No Iterations 5
DILUPBiCGStab:  Solving for Uy, Initial residual = 0.0293775, Final residual = 0.000734813, No Iterations 5
DILUPBiCGStab:  Solving for Uz, Initial residual = 0.130149, Final residual = 0.00429326, No Iterations 5
piso setup 109.461 [ms]
 correctNonOrthogonal 
 setRef 
 startSolve 
DICPCG:  Solving for p, Initial residual = 0.496478, Final residual = 9.88727e-05, No Iterations 564
piso step 12890.8 [ms]
 contErrors 
time step continuity errors : sum local = 6.12732e-09, global = -1.98666e-21, cumulative = -2.67366e-20
piso setup 106.595 [ms]
 correctNonOrthogonal 
 setRef 
 startSolve 
DICPCG:  Solving for p, Initial residual = 0.443486, Final residual = 9.8439e-05, No Iterations 562
piso step 12761.1 [ms]
 contErrors 
time step continuity errors : sum local = 6.0746e-09, global = -7.53174e-22, cumulative = -2.74897e-20
ExecutionTime = 236.59 s  ClockTime = 238 s

Time = 0.00275

Courant Number mean: 0.0483595 max: 0.482245
momentum setup 79.787 [ms]
DILUPBiCGStab:  Solving for Ux, Initial residual = 0.00966764, Final residual = 0.000204557, No Iterations 5
DILUPBiCGStab:  Solving for Uy, Initial residual = 0.0248566, Final residual = 0.000529036, No Iterations 5
DILUPBiCGStab:  Solving for Uz, Initial residual = 0.106078, Final residual = 0.00383868, No Iterations 5
piso setup 107.666 [ms]
 correctNonOrthogonal 
 setRef 
 startSolve 
DICPCG:  Solving for p, Initial residual = 0.472178, Final residual = 9.99837e-05, No Iterations 558
piso step 12615.5 [ms]
 contErrors 
time step continuity errors : sum local = 5.60186e-09, global = -1.02154e-21, cumulative = -2.85113e-20
piso setup 107.298 [ms]
 correctNonOrthogonal 
 setRef 
 startSolve 
DICPCG:  Solving for p, Initial residual = 0.417449, Final residual = 9.50002e-05, No Iterations 558
piso step 12750.6 [ms]
 contErrors 
time step continuity errors : sum local = 5.32872e-09, global = -8.1348e-23, cumulative = -2.85926e-20
ExecutionTime = 263.06 s  ClockTime = 264 s

Time = 0.003

Courant Number mean: 0.050092 max: 0.48304
momentum setup 79.385 [ms]
DILUPBiCGStab:  Solving for Ux, Initial residual = 0.00857833, Final residual = 0.000170919, No Iterations 5
DILUPBiCGStab:  Solving for Uy, Initial residual = 0.0221987, Final residual = 0.000439093, No Iterations 5
DILUPBiCGStab:  Solving for Uz, Initial residual = 0.0904457, Final residual = 0.00338935, No Iterations 5
piso setup 108.101 [ms]
 correctNonOrthogonal 
 setRef 
 startSolve 
DICPCG:  Solving for p, Initial residual = 0.41487, Final residual = 9.79152e-05, No Iterations 272
piso step 6247.29 [ms]
 contErrors 
time step continuity errors : sum local = 6.22323e-09, global = -2.26782e-21, cumulative = -3.08604e-20
piso setup 106.853 [ms]
 correctNonOrthogonal 
 setRef 
 startSolve 
DICPCG:  Solving for p, Initial residual = 0.368029, Final residual = 9.49526e-05, No Iterations 262
piso step 5996.34 [ms]
 contErrors 
time step continuity errors : sum local = 5.45582e-09, global = -6.00856e-21, cumulative = -3.6869e-20
ExecutionTime = 276.5 s  ClockTime = 278 s

Time = 0.00325

Courant Number mean: 0.0517011 max: 0.483601
momentum setup 78.579 [ms]
DILUPBiCGStab:  Solving for Ux, Initial residual = 0.00780264, Final residual = 0.00014717, No Iterations 5
DILUPBiCGStab:  Solving for Uy, Initial residual = 0.0194168, Final residual = 0.000339625, No Iterations 5
DILUPBiCGStab:  Solving for Uz, Initial residual = 0.078642, Final residual = 0.003297, No Iterations 5
piso setup 108.305 [ms]
 correctNonOrthogonal 
 setRef 
 startSolve 
DICPCG:  Solving for p, Initial residual = 0.384169, Final residual = 9.84559e-05, No Iterations 559
piso step 12695.3 [ms]
 contErrors 
time step continuity errors : sum local = 5.01088e-09, global = -3.63843e-22, cumulative = -3.72328e-20
piso setup 105.456 [ms]
 correctNonOrthogonal 
 setRef 
 startSolve 
DICPCG:  Solving for p, Initial residual = 0.337707, Final residual = 9.20333e-05, No Iterations 559
piso step 12612.9 [ms]
 contErrors 
time step continuity errors : sum local = 4.69108e-09, global = -3.01927e-21, cumulative = -4.02521e-20
ExecutionTime = 302.94 s  ClockTime = 304 s

Time = 0.0035

Courant Number mean: 0.0531955 max: 0.484201
momentum setup 79.197 [ms]
DILUPBiCGStab:  Solving for Ux, Initial residual = 0.0070593, Final residual = 0.000126333, No Iterations 5
DILUPBiCGStab:  Solving for Uy, Initial residual = 0.0176515, Final residual = 0.000281623, No Iterations 5
DILUPBiCGStab:  Solving for Uz, Initial residual = 0.0676112, Final residual = 0.00273907, No Iterations 5
piso setup 109.12 [ms]
 correctNonOrthogonal 
 setRef 
 startSolve 
DICPCG:  Solving for p, Initial residual = 0.342562, Final residual = 9.95089e-05, No Iterations 559
piso step 12761.9 [ms]
 contErrors 
time step continuity errors : sum local = 4.90144e-09, global = -4.13874e-21, cumulative = -4.43909e-20
piso setup 106.907 [ms]
 correctNonOrthogonal 
 setRef 
 startSolve 
DICPCG:  Solving for p, Initial residual = 0.302716, Final residual = 9.29089e-05, No Iterations 559
piso step 12634.5 [ms]
 contErrors 
time step continuity errors : sum local = 4.55862e-09, global = -4.7773e-21, cumulative = -4.91682e-20
ExecutionTime = 329.46 s  ClockTime = 331 s

Time = 0.00375

Courant Number mean: 0.0545957 max: 0.484636
momentum setup 78.357 [ms]
DILUPBiCGStab:  Solving for Ux, Initial residual = 0.00647475, Final residual = 0.000110192, No Iterations 5
DILUPBiCGStab:  Solving for Uy, Initial residual = 0.015806, Final residual = 0.000235009, No Iterations 5
DILUPBiCGStab:  Solving for Uz, Initial residual = 0.0574055, Final residual = 0.00245524, No Iterations 5
piso setup 108.795 [ms]
 correctNonOrthogonal 
 setRef 
 startSolve 
DICPCG:  Solving for p, Initial residual = 0.310517, Final residual = 9.55912e-05, No Iterations 557
piso step 12603.1 [ms]
 contErrors 
time step continuity errors : sum local = 4.5219e-09, global = -3.11959e-21, cumulative = -5.22878e-20
piso setup 107.866 [ms]
 correctNonOrthogonal 
 setRef 
 startSolve 
DICPCG:  Solving for p, Initial residual = 0.272302, Final residual = 9.62779e-05, No Iterations 556
piso step 12611.6 [ms]
 contErrors 
time step continuity errors : sum local = 4.56e-09, global = 6.8276e-22, cumulative = -5.1605e-20
ExecutionTime = 355.79 s  ClockTime = 357 s

Time = 0.004

Courant Number mean: 0.0559078 max: 0.485105
momentum setup 78.81 [ms]
DILUPBiCGStab:  Solving for Ux, Initial residual = 0.0059503, Final residual = 9.66992e-05, No Iterations 5
DILUPBiCGStab:  Solving for Uy, Initial residual = 0.0145065, Final residual = 0.000196885, No Iterations 5
DILUPBiCGStab:  Solving for Uz, Initial residual = 0.0511693, Final residual = 0.00218411, No Iterations 5
piso setup 108.003 [ms]
 correctNonOrthogonal 
 setRef 
 startSolve 
DICPCG:  Solving for p, Initial residual = 0.280099, Final residual = 9.91302e-05, No Iterations 273
piso step 6225.78 [ms]
 contErrors 
time step continuity errors : sum local = 5.32903e-09, global = -1.63254e-21, cumulative = -5.32375e-20
piso setup 105.954 [ms]
 correctNonOrthogonal 
 setRef 
 startSolve 
DICPCG:  Solving for p, Initial residual = 0.24679, Final residual = 9.97343e-05, No Iterations 250
piso step 5667.65 [ms]
 contErrors 
time step continuity errors : sum local = 4.81181e-09, global = -5.81826e-21, cumulative = -5.90558e-20
ExecutionTime = 368.87 s  ClockTime = 371 s

Time = 0.00425

Courant Number mean: 0.0571444 max: 0.485456
momentum setup 78.606 [ms]
DILUPBiCGStab:  Solving for Ux, Initial residual = 0.0055184, Final residual = 8.52938e-05, No Iterations 5
DILUPBiCGStab:  Solving for Uy, Initial residual = 0.0132018, Final residual = 0.000175207, No Iterations 5
DILUPBiCGStab:  Solving for Uz, Initial residual = 0.0459033, Final residual = 0.00202918, No Iterations 5
piso setup 108.728 [ms]
 correctNonOrthogonal 
 setRef 
 startSolve 
DICPCG:  Solving for p, Initial residual = 0.250267, Final residual = 9.49015e-05, No Iterations 556
piso step 12673.4 [ms]
 contErrors 
time step continuity errors : sum local = 4.23352e-09, global = -4.25838e-21, cumulative = -6.33142e-20
piso setup 107.856 [ms]
 correctNonOrthogonal 
 setRef 
 startSolve 
DICPCG:  Solving for p, Initial residual = 0.218836, Final residual = 9.57558e-05, No Iterations 555
piso step 12578.7 [ms]
 contErrors 
time step continuity errors : sum local = 4.27588e-09, global = -2.13436e-21, cumulative = -6.54485e-20
ExecutionTime = 395.25 s  ClockTime = 397 s

Time = 0.0045

Courant Number mean: 0.0583119 max: 0.485832
momentum setup 81.397 [ms]
DILUPBiCGStab:  Solving for Ux, Initial residual = 0.00511901, Final residual = 7.5952e-05, No Iterations 5
DILUPBiCGStab:  Solving for Uy, Initial residual = 0.0122751, Final residual = 0.000150213, No Iterations 5
DILUPBiCGStab:  Solving for Uz, Initial residual = 0.0410912, Final residual = 0.00172095, No Iterations 5
piso setup 108.553 [ms]
 correctNonOrthogonal 
 setRef 
 startSolve 
DICPCG:  Solving for p, Initial residual = 0.22741, Final residual = 9.42146e-05, No Iterations 555
piso step 12587.9 [ms]
 contErrors 
time step continuity errors : sum local = 4.05115e-09, global = -1.51469e-21, cumulative = -6.69632e-20
piso setup 106.386 [ms]
 correctNonOrthogonal 
 setRef 
 startSolve 
DICPCG:  Solving for p, Initial residual = 0.199709, Final residual = 9.5528e-05, No Iterations 554
piso step 12519.1 [ms]
 contErrors 
time step continuity errors : sum local = 4.09821e-09, global = -1.71621e-21, cumulative = -6.86794e-20
ExecutionTime = 421.49 s  ClockTime = 423 s

Time = 0.00475

Courant Number mean: 0.0594174 max: 0.486126
momentum setup 79.287 [ms]
DILUPBiCGStab:  Solving for Ux, Initial residual = 0.00476786, Final residual = 6.73936e-05, No Iterations 5
DILUPBiCGStab:  Solving for Uy, Initial residual = 0.0113096, Final residual = 0.000138044, No Iterations 5
DILUPBiCGStab:  Solving for Uz, Initial residual = 0.0359051, Final residual = 0.00149759, No Iterations 5
piso setup 108.206 [ms]
 correctNonOrthogonal 
 setRef 
 startSolve 
DICPCG:  Solving for p, Initial residual = 0.201793, Final residual = 9.83873e-05, No Iterations 552
piso step 12522.5 [ms]
 contErrors 
time step continuity errors : sum local = 4.1907e-09, global = -6.02061e-21, cumulative = -7.47e-20
piso setup 106.962 [ms]
 correctNonOrthogonal 
 setRef 
 startSolve 
DICPCG:  Solving for p, Initial residual = 0.176156, Final residual = 9.5643e-05, No Iterations 551
piso step 12532.9 [ms]
 contErrors 
time step continuity errors : sum local = 4.07591e-09, global = -4.27903e-21, cumulative = -7.89791e-20
ExecutionTime = 447.66 s  ClockTime = 450 s

Time = 0.005

Courant Number mean: 0.0604662 max: 0.486434
momentum setup 80.726 [ms]
DILUPBiCGStab:  Solving for Ux, Initial residual = 0.00446447, Final residual = 6.06686e-05, No Iterations 5
DILUPBiCGStab:  Solving for Uy, Initial residual = 0.0105658, Final residual = 0.000121178, No Iterations 5
DILUPBiCGStab:  Solving for Uz, Initial residual = 0.0328001, Final residual = 0.00131797, No Iterations 5
piso setup 108.534 [ms]
 correctNonOrthogonal 
 setRef 
 startSolve 
DICPCG:  Solving for p, Initial residual = 0.183397, Final residual = 9.98233e-05, No Iterations 552
piso step 12563.2 [ms]
 contErrors 
time step continuity errors : sum local = 4.10712e-09, global = -2.63516e-21, cumulative = -8.16142e-20
piso setup 109.177 [ms]
 correctNonOrthogonal 
 setRef 
 startSolve 
DICPCG:  Solving for p, Initial residual = 0.160762, Final residual = 9.87089e-05, No Iterations 246
piso step 5646.54 [ms]
 contErrors 
time step continuity errors : sum local = 4.75416e-09, global = -8.70142e-22, cumulative = -8.24844e-20
ExecutionTime = 467.04 s  ClockTime = 469 s

End

Finalising parallel run
