/*---------------------------------------------------------------------------*\
| =========                 |                                                 |
| \\      /  F ield         | OpenFOAM: The Open Source CFD Toolbox           |
|  \\    /   O peration     | Version:  2306                                  |
|   \\  /    A nd           | Website:  www.openfoam.com                      |
|    \\/     M anipulation  |                                                 |
\*---------------------------------------------------------------------------*/
Build  : a6e826bd55-20230630 OPENFOAM=2306 version=v2306
Arch   : "LSB;label=32;scalar=64"
Exec   : icoFoam -parallel -case /tmp/lidDrivenCavity3D/workspace/1273bd1bc2a041f61bbf616f75dad38f/case
Date   : Dec 05 2023
Time   : 16:17:36
Host   : nla-gpu2.ianm.kit.edu
PID    : 3922945
I/O    : uncollated
Case   : /tmp/lidDrivenCavity3D/workspace/1273bd1bc2a041f61bbf616f75dad38f/case
nProcs : 32
Hosts  :
(
    (nla-gpu2.ianm.kit.edu 32)
)
Pstream initialized with:
    floatTransfer      : false
    nProcsSimpleSum    : 0
    nonBlockingExchange: 0 (tuning: 0)
    exchange algorithm : -1
    commsType          : nonBlocking
    polling iterations : 0
trapFpe: Floating point exception trapping enabled (FOAM_SIGFPE).
fileModificationChecking : Monitoring run-time modified files using timeStampMaster (fileModificationSkew 5, maxFileModificationPolls 20)
allowSystemOperations : Allowing user-supplied system call operations

// * * * * * * * * * * * * * * * * * * * * * * * * * * * * * * * * * * * * * //
Create time

--> FOAM Warning : 
    From void* Foam::dlLibraryTable::openLibrary(const Foam::fileName&, bool)
    in file db/dynamicLibrary/dlLibraryTable/dlLibraryTable.C at line 188
    Could not load "libpetscFoam.so"
libpetscFoam.so: cannot open shared object file: No such file or directory
Create mesh for time = 0


PISO: Operating solver in PISO mode

Reading transportProperties

Reading field p

Reading field U

Reading/calculating face flux field phi


Starting time loop

Time = 0.0005

Courant Number mean: 8.62851e-18 max: 8.67362e-15
momentum setup 6.241 [ms]
DILUPBiCGStab:  Solving for Ux, Initial residual = 1, Final residual = 0.00283431, No Iterations 5
DILUPBiCGStab:  Solving for Uy:  solution singularity
DILUPBiCGStab:  Solving for Uz:  solution singularity
piso setup 6.014 [ms]
 correctNonOrthogonal 
 setRef 
 startSolve 
[OGL LOG][lduLduBase.H:119] Initialising OGL
	OGL commit:  5ef1233
	Branch: feat/on_device_permute 
	Build type: Release
	Ginkgo version: 1.7.0 ( develop)
	Ginkgo commit: sparse-communicator
	MPI is GPU aware: 1
	Forces host buffer based communication: 0
	CPU ranks per GPU: 1
	Matrix format: Coo
	End OGL_INFO
[OGL LOG][Proc: 0]: global_index_init: 14.533 [ms]
[OGL LOG][Proc: 0]p_local_cols: call_init: 0.014 [ms]
[OGL LOG][Proc: 0]p_local_rows: call_init: 0.002 [ms]
[OGL LOG][Proc: 0]p_local_ldu_map: call_init: 0.002 [ms]
[OGL LOG][Proc: 0]p_local_coeffs: call_init: 0.004 [ms]
[OGL LOG][Proc: 0]p_non_local_cols: call_init: 0.004 [ms]
[OGL LOG][Proc: 0]p_non_local_rows: call_init: 0.003 [ms]
[OGL LOG][Proc: 0]p_non_local_ldu_map: call_init: 0.002 [ms]
[OGL LOG][Proc: 0]p_non_local_coeffs: call_init: 0.002 [ms]
[OGL LOG][Proc: 0]p: init_local_sparsity_pattern: 6.572 [ms]
[OGL LOG][Proc: 0]p: init_non_local_sparsity_pattern: 0.737 [ms]
[OGL LOG][Proc: 0]p: update_local_matrix_data: 0.688 [ms]
[OGL LOG][Proc: 0]p: update_non_local_matrix_data: 0.049 [ms]
[OGL LOG][Proc: 0]device_partition: call_init: 0.135 [ms]
[OGL LOG][Proc: 0]p_matrix: call_init: 65.613 [ms]
[OGL LOG][Proc: 0]p_rhs: call_init: 4.787 [ms]
[OGL LOG][Proc: 0]p_solution: call_init: 0.139 [ms]
[OGL LOG][Preconditioner.H:121] Generate preconditioner BJ MaxBlockSize 1
[OGL LOG][Proc: 0]p: init_precond: 4.912 [ms]
[OGL LOG][StoppingCriterion.H:373] Creating stopping criterion with minIter 0 frequency 1
[OGL LOG][Proc: 0]p: generate_solver: 0.014 [ms]
[OGL LOG][Proc: 0]p: solve: 2646 [ms]
[OGL LOG][Proc: 0]p: copy_x_back: 0.199 [ms]
[OGL LOG][lduLduBase.H:330] 
Statistics:
	Time per iteration: 3387 [mu s]
	Time per residual norm calculation: 1549.000000 [mu s]
	Time per iteration and DOF: 3.387000 [ns]
	Retrieve results bandwidth 1.256000 [GByte/s]
[OGL LOG][Proc: 0]p: solve_multi_gpu: 2723.34 [ms]
BJhipGKOCG:  Solving for p, Initial residual = 1, Final residual = 9.8364e-05, No Iterations 781
piso step 3098.31 [ms]
 contErrors 
time step continuity errors : sum local = 2.11349e-08, global = 1.98006e-23, cumulative = 1.98006e-23
piso setup 6.684 [ms]
 correctNonOrthogonal 
 setRef 
 startSolve 
[OGL LOG][Proc: 0]: global_index_init: 0.058 [ms]
[OGL LOG][Proc: 0]p_local_coeffs: call_update: 0 [ms]
[OGL LOG][Proc: 0]p_non_local_coeffs: call_update: 0 [ms]
[OGL LOG][Proc: 0]p: update_local_matrix_data: 0.741 [ms]
[OGL LOG][Proc: 0]p: update_non_local_matrix_data: 0.025 [ms]
[OGL LOG][Proc: 0]p_matrix: call_update: 1.961 [ms]
[OGL LOG][Proc: 0]p_rhs: call_update: 0.263 [ms]
[OGL LOG][Preconditioner.H:121] Generate preconditioner BJ MaxBlockSize 1
[OGL LOG][Proc: 0]p: init_precond: 0.158 [ms]
[OGL LOG][StoppingCriterion.H:373] Creating stopping criterion with minIter 468 frequency 12
[OGL LOG][Proc: 0]p: generate_solver: 0.002 [ms]
[OGL LOG][Proc: 0]p: solve: 475.112 [ms]
[OGL LOG][Proc: 0]p: copy_x_back: 0.138 [ms]
[OGL LOG][lduLduBase.H:330] 
Statistics:
	Time per iteration: 617 [mu s]
	Time per residual norm calculation: 141.000000 [mu s]
	Time per iteration and DOF: 0.617000 [ns]
	Retrieve results bandwidth 1.811000 [GByte/s]
[OGL LOG][Proc: 0]p: solve_multi_gpu: 478.123 [ms]
BJhipGKOCG:  Solving for p, Initial residual = 0.731149, Final residual = 9.80831e-05, No Iterations 769
piso step 482.43 [ms]
 contErrors 
time step continuity errors : sum local = 2.78264e-08, global = -1.912e-21, cumulative = -1.8922e-21
ExecutionTime = 3.94 s  ClockTime = 4 s

Time = 0.001

Courant Number mean: 0.0215183 max: 0.377124
momentum setup 3 [ms]
DILUPBiCGStab:  Solving for Ux, Initial residual = 0.150306, Final residual = 0.00140866, No Iterations 5
DILUPBiCGStab:  Solving for Uy, Initial residual = 0.368268, Final residual = 0.00287078, No Iterations 5
DILUPBiCGStab:  Solving for Uz, Initial residual = 0.986403, Final residual = 0.00766046, No Iterations 5
piso setup 5.788 [ms]
 correctNonOrthogonal 
 setRef 
 startSolve 
[OGL LOG][Proc: 0]: global_index_init: 0.052 [ms]
[OGL LOG][Proc: 0]p_local_coeffs: call_update: 0 [ms]
[OGL LOG][Proc: 0]p_non_local_coeffs: call_update: 0 [ms]
[OGL LOG][Proc: 0]p: update_local_matrix_data: 0.479 [ms]
[OGL LOG][Proc: 0]p: update_non_local_matrix_data: 0.018 [ms]
[OGL LOG][Proc: 0]p_matrix: call_update: 1.732 [ms]
[OGL LOG][Proc: 0]p_rhs: call_update: 0.348 [ms]
[OGL LOG][Preconditioner.H:121] Generate preconditioner BJ MaxBlockSize 1
[OGL LOG][Proc: 0]p: init_precond: 0.133 [ms]
[OGL LOG][StoppingCriterion.H:373] Creating stopping criterion with minIter 461 frequency 8
[OGL LOG][Proc: 0]p: generate_solver: 0.001 [ms]
[OGL LOG][Proc: 0]p: solve: 643.286 [ms]
[OGL LOG][Proc: 0]p: copy_x_back: 0.22 [ms]
[OGL LOG][lduLduBase.H:330] 
Statistics:
	Time per iteration: 836 [mu s]
	Time per residual norm calculation: 141.000000 [mu s]
	Time per iteration and DOF: 0.836000 [ns]
	Retrieve results bandwidth 1.136000 [GByte/s]
[OGL LOG][Proc: 0]p: solve_multi_gpu: 646.302 [ms]
BJhipGKOCG:  Solving for p, Initial residual = 0.693027, Final residual = 7.675e-05, No Iterations 769
piso step 650.533 [ms]
 contErrors 
time step continuity errors : sum local = 2.45523e-08, global = -9.74238e-21, cumulative = -1.16346e-20
piso setup 6.292 [ms]
 correctNonOrthogonal 
 setRef 
 startSolve 
[OGL LOG][Proc: 0]: global_index_init: 0.065 [ms]
[OGL LOG][Proc: 0]p_local_coeffs: call_update: 0 [ms]
[OGL LOG][Proc: 0]p_non_local_coeffs: call_update: 0 [ms]
[OGL LOG][Proc: 0]p: update_local_matrix_data: 0.729 [ms]
[OGL LOG][Proc: 0]p: update_non_local_matrix_data: 0.025 [ms]
[OGL LOG][Proc: 0]p_matrix: call_update: 2.211 [ms]
[OGL LOG][Proc: 0]p_rhs: call_update: 0.314 [ms]
[OGL LOG][Preconditioner.H:121] Generate preconditioner BJ MaxBlockSize 1
[OGL LOG][Proc: 0]p: init_precond: 0.141 [ms]
[OGL LOG][StoppingCriterion.H:373] Creating stopping criterion with minIter 461 frequency 7
[OGL LOG][Proc: 0]p: generate_solver: 0.002 [ms]
[OGL LOG][Proc: 0]p: solve: 539.478 [ms]
[OGL LOG][Proc: 0]p: copy_x_back: 0.139 [ms]
[OGL LOG][lduLduBase.H:330] 
Statistics:
	Time per iteration: 706 [mu s]
	Time per residual norm calculation: 131.000000 [mu s]
	Time per iteration and DOF: 0.706000 [ns]
	Retrieve results bandwidth 1.798000 [GByte/s]
[OGL LOG][Proc: 0]p: solve_multi_gpu: 542.73 [ms]
BJhipGKOCG:  Solving for p, Initial residual = 0.622423, Final residual = 9.25883e-05, No Iterations 764
piso step 546.748 [ms]
 contErrors 
time step continuity errors : sum local = 3.02122e-08, global = -3.79729e-21, cumulative = -1.54319e-20
ExecutionTime = 5.19 s  ClockTime = 5 s

Time = 0.0015

Courant Number mean: 0.0324754 max: 0.441214
momentum setup 3.122 [ms]
DILUPBiCGStab:  Solving for Ux, Initial residual = 0.0531309, Final residual = 0.000432431, No Iterations 5
DILUPBiCGStab:  Solving for Uy, Initial residual = 0.124792, Final residual = 0.000734712, No Iterations 5
DILUPBiCGStab:  Solving for Uz, Initial residual = 0.579328, Final residual = 0.00404212, No Iterations 5
piso setup 5.853 [ms]
 correctNonOrthogonal 
 setRef 
 startSolve 
[OGL LOG][Proc: 0]: global_index_init: 0.048 [ms]
[OGL LOG][Proc: 0]p_local_coeffs: call_update: 0 [ms]
[OGL LOG][Proc: 0]p_non_local_coeffs: call_update: 0 [ms]
[OGL LOG][Proc: 0]p: update_local_matrix_data: 0.474 [ms]
[OGL LOG][Proc: 0]p: update_non_local_matrix_data: 0.021 [ms]
[OGL LOG][Proc: 0]p_matrix: call_update: 1.748 [ms]
[OGL LOG][Proc: 0]p_rhs: call_update: 0.439 [ms]
[OGL LOG][Preconditioner.H:121] Generate preconditioner BJ MaxBlockSize 1
[OGL LOG][Proc: 0]p: init_precond: 0.129 [ms]
[OGL LOG][StoppingCriterion.H:373] Creating stopping criterion with minIter 458 frequency 7
[OGL LOG][Proc: 0]p: generate_solver: 0.002 [ms]
[OGL LOG][Proc: 0]p: solve: 491.089 [ms]
[OGL LOG][Proc: 0]p: copy_x_back: 0.146 [ms]
[OGL LOG][lduLduBase.H:330] 
Statistics:
	Time per iteration: 642 [mu s]
	Time per residual norm calculation: 136.000000 [mu s]
	Time per iteration and DOF: 0.642000 [ns]
	Retrieve results bandwidth 1.712000 [GByte/s]
[OGL LOG][Proc: 0]p: solve_multi_gpu: 494.265 [ms]
BJhipGKOCG:  Solving for p, Initial residual = 0.633354, Final residual = 7.13137e-05, No Iterations 764
piso step 497.63 [ms]
 contErrors 
time step continuity errors : sum local = 1.63782e-08, global = 3.73818e-21, cumulative = -1.16937e-20
piso setup 6.9 [ms]
 correctNonOrthogonal 
 setRef 
 startSolve 
[OGL LOG][Proc: 0]: global_index_init: 0.057 [ms]
[OGL LOG][Proc: 0]p_local_coeffs: call_update: 0 [ms]
[OGL LOG][Proc: 0]p_non_local_coeffs: call_update: 0 [ms]
[OGL LOG][Proc: 0]p: update_local_matrix_data: 0.701 [ms]
[OGL LOG][Proc: 0]p: update_non_local_matrix_data: 0.016 [ms]
[OGL LOG][Proc: 0]p_matrix: call_update: 1.842 [ms]
[OGL LOG][Proc: 0]p_rhs: call_update: 0.365 [ms]
[OGL LOG][Preconditioner.H:121] Generate preconditioner BJ MaxBlockSize 1
[OGL LOG][Proc: 0]p: init_precond: 0.132 [ms]
[OGL LOG][StoppingCriterion.H:373] Creating stopping criterion with minIter 458 frequency 8
[OGL LOG][Proc: 0]p: generate_solver: 0.002 [ms]
[OGL LOG][Proc: 0]p: solve: 467.69 [ms]
[OGL LOG][Proc: 0]p: copy_x_back: 0.134 [ms]
[OGL LOG][lduLduBase.H:330] 
Statistics:
	Time per iteration: 614 [mu s]
	Time per residual norm calculation: 135.000000 [mu s]
	Time per iteration and DOF: 0.614000 [ns]
	Retrieve results bandwidth 1.865000 [GByte/s]
[OGL LOG][Proc: 0]p: solve_multi_gpu: 470.794 [ms]
BJhipGKOCG:  Solving for p, Initial residual = 0.580721, Final residual = 7.381e-05, No Iterations 761
piso step 474.517 [ms]
 contErrors 
time step continuity errors : sum local = 1.64981e-08, global = 5.46441e-21, cumulative = -6.22928e-21
ExecutionTime = 6.23 s  ClockTime = 6 s

Time = 0.002

Courant Number mean: 0.0388747 max: 0.452906
momentum setup 3.352 [ms]
DILUPBiCGStab:  Solving for Ux, Initial residual = 0.0319166, Final residual = 0.00022899, No Iterations 5
DILUPBiCGStab:  Solving for Uy, Initial residual = 0.08141, Final residual = 0.000474783, No Iterations 5
DILUPBiCGStab:  Solving for Uz, Initial residual = 0.279692, Final residual = 0.00157487, No Iterations 5
piso setup 6.423 [ms]
 correctNonOrthogonal 
 setRef 
 startSolve 
[OGL LOG][Proc: 0]: global_index_init: 0.058 [ms]
[OGL LOG][Proc: 0]p_local_coeffs: call_update: 0 [ms]
[OGL LOG][Proc: 0]p_non_local_coeffs: call_update: 0 [ms]
[OGL LOG][Proc: 0]p: update_local_matrix_data: 0.493 [ms]
[OGL LOG][Proc: 0]p: update_non_local_matrix_data: 0.017 [ms]
[OGL LOG][Proc: 0]p_matrix: call_update: 1.705 [ms]
[OGL LOG][Proc: 0]p_rhs: call_update: 0.338 [ms]
[OGL LOG][Preconditioner.H:121] Generate preconditioner BJ MaxBlockSize 1
[OGL LOG][Proc: 0]p: init_precond: 0.134 [ms]
[OGL LOG][StoppingCriterion.H:373] Creating stopping criterion with minIter 456 frequency 8
[OGL LOG][Proc: 0]p: generate_solver: 0.001 [ms]
[OGL LOG][Proc: 0]p: solve: 516.729 [ms]
[OGL LOG][Proc: 0]p: copy_x_back: 0.206 [ms]
[OGL LOG][lduLduBase.H:330] 
Statistics:
	Time per iteration: 679 [mu s]
	Time per residual norm calculation: 139.000000 [mu s]
	Time per iteration and DOF: 0.679000 [ns]
	Retrieve results bandwidth 1.213000 [GByte/s]
[OGL LOG][Proc: 0]p: solve_multi_gpu: 519.868 [ms]
BJhipGKOCG:  Solving for p, Initial residual = 0.414445, Final residual = 5.66859e-05, No Iterations 761
piso step 523.854 [ms]
 contErrors 
time step continuity errors : sum local = 1.11244e-08, global = -4.86954e-21, cumulative = -1.10988e-20
piso setup 6.268 [ms]
 correctNonOrthogonal 
 setRef 
 startSolve 
[OGL LOG][Proc: 0]: global_index_init: 0.045 [ms]
[OGL LOG][Proc: 0]p_local_coeffs: call_update: 0 [ms]
[OGL LOG][Proc: 0]p_non_local_coeffs: call_update: 0 [ms]
[OGL LOG][Proc: 0]p: update_local_matrix_data: 0.717 [ms]
[OGL LOG][Proc: 0]p: update_non_local_matrix_data: 0.217 [ms]
[OGL LOG][Proc: 0]p_matrix: call_update: 2.263 [ms]
[OGL LOG][Proc: 0]p_rhs: call_update: 0.083 [ms]
[OGL LOG][Preconditioner.H:121] Generate preconditioner BJ MaxBlockSize 1
[OGL LOG][Proc: 0]p: init_precond: 0.148 [ms]
[OGL LOG][StoppingCriterion.H:373] Creating stopping criterion with minIter 456 frequency 8
[OGL LOG][Proc: 0]p: generate_solver: 0.002 [ms]
[OGL LOG][Proc: 0]p: solve: 477.578 [ms]
[OGL LOG][Proc: 0]p: copy_x_back: 0.141 [ms]
[OGL LOG][lduLduBase.H:330] 
Statistics:
	Time per iteration: 634 [mu s]
	Time per residual norm calculation: 134.000000 [mu s]
	Time per iteration and DOF: 0.634000 [ns]
	Retrieve results bandwidth 1.773000 [GByte/s]
[OGL LOG][Proc: 0]p: solve_multi_gpu: 480.64 [ms]
BJhipGKOCG:  Solving for p, Initial residual = 0.352495, Final residual = 9.24714e-05, No Iterations 753
piso step 484.651 [ms]
 contErrors 
time step continuity errors : sum local = 1.83272e-08, global = -9.18476e-21, cumulative = -2.02836e-20
ExecutionTime = 7.3 s  ClockTime = 7 s

Time = 0.0025

Courant Number mean: 0.0439274 max: 0.459589
momentum setup 3.8 [ms]
DILUPBiCGStab:  Solving for Ux, Initial residual = 0.0235244, Final residual = 0.000146232, No Iterations 5
DILUPBiCGStab:  Solving for Uy, Initial residual = 0.0515455, Final residual = 0.000276581, No Iterations 5
DILUPBiCGStab:  Solving for Uz, Initial residual = 0.101024, Final residual = 0.00057673, No Iterations 5
piso setup 6.154 [ms]
 correctNonOrthogonal 
 setRef 
 startSolve 
[OGL LOG][Proc: 0]: global_index_init: 0.06 [ms]
[OGL LOG][Proc: 0]p_local_coeffs: call_update: 0 [ms]
[OGL LOG][Proc: 0]p_non_local_coeffs: call_update: 0 [ms]
[OGL LOG][Proc: 0]p: update_local_matrix_data: 0.529 [ms]
[OGL LOG][Proc: 0]p: update_non_local_matrix_data: 0.018 [ms]
[OGL LOG][Proc: 0]p_matrix: call_update: 1.811 [ms]
[OGL LOG][Proc: 0]p_rhs: call_update: 0.411 [ms]
[OGL LOG][Preconditioner.H:121] Generate preconditioner BJ MaxBlockSize 1
[OGL LOG][Proc: 0]p: init_precond: 0.131 [ms]
[OGL LOG][StoppingCriterion.H:373] Creating stopping criterion with minIter 451 frequency 8
[OGL LOG][Proc: 0]p: generate_solver: 0.002 [ms]
[OGL LOG][Proc: 0]p: solve: 447.413 [ms]
[OGL LOG][Proc: 0]p: copy_x_back: 0.139 [ms]
[OGL LOG][lduLduBase.H:330] 
Statistics:
	Time per iteration: 620 [mu s]
	Time per residual norm calculation: 142.000000 [mu s]
	Time per iteration and DOF: 0.620000 [ns]
	Retrieve results bandwidth 1.798000 [GByte/s]
[OGL LOG][Proc: 0]p: solve_multi_gpu: 450.462 [ms]
BJhipGKOCG:  Solving for p, Initial residual = 0.315908, Final residual = 8.26009e-05, No Iterations 721
piso step 453.956 [ms]
 contErrors 
time step continuity errors : sum local = 1.33616e-08, global = -3.45045e-21, cumulative = -2.3734e-20
piso setup 6.728 [ms]
 correctNonOrthogonal 
 setRef 
 startSolve 
[OGL LOG][Proc: 0]: global_index_init: 0.052 [ms]
[OGL LOG][Proc: 0]p_local_coeffs: call_update: 0 [ms]
[OGL LOG][Proc: 0]p_non_local_coeffs: call_update: 0 [ms]
[OGL LOG][Proc: 0]p: update_local_matrix_data: 0.542 [ms]
[OGL LOG][Proc: 0]p: update_non_local_matrix_data: 0.018 [ms]
[OGL LOG][Proc: 0]p_matrix: call_update: 1.803 [ms]
[OGL LOG][Proc: 0]p_rhs: call_update: 0.91 [ms]
[OGL LOG][Preconditioner.H:121] Generate preconditioner BJ MaxBlockSize 1
[OGL LOG][Proc: 0]p: init_precond: 0.134 [ms]
[OGL LOG][StoppingCriterion.H:373] Creating stopping criterion with minIter 432 frequency 8
[OGL LOG][Proc: 0]p: generate_solver: 0.001 [ms]
[OGL LOG][Proc: 0]p: solve: 436.32 [ms]
[OGL LOG][Proc: 0]p: copy_x_back: 0.141 [ms]
[OGL LOG][lduLduBase.H:330] 
Statistics:
	Time per iteration: 611 [mu s]
	Time per residual norm calculation: 135.000000 [mu s]
	Time per iteration and DOF: 0.611000 [ns]
	Retrieve results bandwidth 1.773000 [GByte/s]
[OGL LOG][Proc: 0]p: solve_multi_gpu: 439.889 [ms]
BJhipGKOCG:  Solving for p, Initial residual = 0.270275, Final residual = 9.84195e-05, No Iterations 713
piso step 443.568 [ms]
 contErrors 
time step continuity errors : sum local = 1.58e-08, global = -2.07479e-21, cumulative = -2.58088e-20
ExecutionTime = 8.26 s  ClockTime = 8 s

Time = 0.003

Courant Number mean: 0.0479685 max: 0.463832
momentum setup 3.492 [ms]
DILUPBiCGStab:  Solving for Ux, Initial residual = 0.0179066, Final residual = 0.000103905, No Iterations 5
DILUPBiCGStab:  Solving for Uy, Initial residual = 0.0401372, Final residual = 0.000165324, No Iterations 5
DILUPBiCGStab:  Solving for Uz, Initial residual = 0.0872205, Final residual = 0.000513799, No Iterations 5
piso setup 5.829 [ms]
 correctNonOrthogonal 
 setRef 
 startSolve 
[OGL LOG][Proc: 0]: global_index_init: 0.055 [ms]
[OGL LOG][Proc: 0]p_local_coeffs: call_update: 0 [ms]
[OGL LOG][Proc: 0]p_non_local_coeffs: call_update: 0 [ms]
[OGL LOG][Proc: 0]p: update_local_matrix_data: 0.548 [ms]
[OGL LOG][Proc: 0]p: update_non_local_matrix_data: 0.02 [ms]
[OGL LOG][Proc: 0]p_matrix: call_update: 1.791 [ms]
[OGL LOG][Proc: 0]p_rhs: call_update: 0.348 [ms]
[OGL LOG][Preconditioner.H:121] Generate preconditioner BJ MaxBlockSize 1
[OGL LOG][Proc: 0]p: init_precond: 0.133 [ms]
[OGL LOG][StoppingCriterion.H:373] Creating stopping criterion with minIter 427 frequency 8
[OGL LOG][Proc: 0]p: generate_solver: 0.002 [ms]
[OGL LOG][Proc: 0]p: solve: 476.215 [ms]
[OGL LOG][Proc: 0]p: copy_x_back: 0.128 [ms]
[OGL LOG][lduLduBase.H:330] 
Statistics:
	Time per iteration: 667 [mu s]
	Time per residual norm calculation: 135.000000 [mu s]
	Time per iteration and DOF: 0.667000 [ns]
	Retrieve results bandwidth 1.953000 [GByte/s]
[OGL LOG][Proc: 0]p: solve_multi_gpu: 479.061 [ms]
BJhipGKOCG:  Solving for p, Initial residual = 0.197754, Final residual = 9.61554e-05, No Iterations 713
piso step 482.619 [ms]
 contErrors 
time step continuity errors : sum local = 1.50098e-08, global = 3.08332e-21, cumulative = -2.27255e-20
piso setup 13.172 [ms]
 correctNonOrthogonal 
 setRef 
 startSolve 
[OGL LOG][Proc: 0]: global_index_init: 0.043 [ms]
[OGL LOG][Proc: 0]p_local_coeffs: call_update: 0 [ms]
[OGL LOG][Proc: 0]p_non_local_coeffs: call_update: 0 [ms]
[OGL LOG][Proc: 0]p: update_local_matrix_data: 0.43 [ms]
[OGL LOG][Proc: 0]p: update_non_local_matrix_data: 0.02 [ms]
[OGL LOG][Proc: 0]p_matrix: call_update: 1.779 [ms]
[OGL LOG][Proc: 0]p_rhs: call_update: 0.558 [ms]
[OGL LOG][Preconditioner.H:121] Generate preconditioner BJ MaxBlockSize 1
[OGL LOG][Proc: 0]p: init_precond: 0.126 [ms]
[OGL LOG][StoppingCriterion.H:373] Creating stopping criterion with minIter 427 frequency 8
[OGL LOG][Proc: 0]p: generate_solver: 0.002 [ms]
[OGL LOG][Proc: 0]p: solve: 477.759 [ms]
[OGL LOG][Proc: 0]p: copy_x_back: 0.191 [ms]
[OGL LOG][lduLduBase.H:330] 
Statistics:
	Time per iteration: 670 [mu s]
	Time per residual norm calculation: 142.000000 [mu s]
	Time per iteration and DOF: 0.670000 [ns]
	Retrieve results bandwidth 1.308000 [GByte/s]
[OGL LOG][Proc: 0]p: solve_multi_gpu: 481.185 [ms]
BJhipGKOCG:  Solving for p, Initial residual = 0.164497, Final residual = 9.03668e-05, No Iterations 713
piso step 485.722 [ms]
 contErrors 
time step continuity errors : sum local = 1.41195e-08, global = 9.84216e-23, cumulative = -2.26271e-20
ExecutionTime = 9.29 s  ClockTime = 9 s

Time = 0.0035

Courant Number mean: 0.0513786 max: 0.466712
momentum setup 4.289 [ms]
DILUPBiCGStab:  Solving for Ux, Initial residual = 0.0146518, Final residual = 7.22102e-05, No Iterations 5
DILUPBiCGStab:  Solving for Uy, Initial residual = 0.0317672, Final residual = 0.000141624, No Iterations 5
DILUPBiCGStab:  Solving for Uz, Initial residual = 0.0577388, Final residual = 0.00030744, No Iterations 5
piso setup 5.811 [ms]
 correctNonOrthogonal 
 setRef 
 startSolve 
[OGL LOG][Proc: 0]: global_index_init: 0.05 [ms]
[OGL LOG][Proc: 0]p_local_coeffs: call_update: 0 [ms]
[OGL LOG][Proc: 0]p_non_local_coeffs: call_update: 0 [ms]
[OGL LOG][Proc: 0]p: update_local_matrix_data: 0.748 [ms]
[OGL LOG][Proc: 0]p: update_non_local_matrix_data: 0.026 [ms]
[OGL LOG][Proc: 0]p_matrix: call_update: 2.107 [ms]
[OGL LOG][Proc: 0]p_rhs: call_update: 0.074 [ms]
[OGL LOG][Preconditioner.H:121] Generate preconditioner BJ MaxBlockSize 1
[OGL LOG][Proc: 0]p: init_precond: 0.147 [ms]
[OGL LOG][StoppingCriterion.H:373] Creating stopping criterion with minIter 427 frequency 8
[OGL LOG][Proc: 0]p: generate_solver: 0.001 [ms]
[OGL LOG][Proc: 0]p: solve: 285.089 [ms]
[OGL LOG][Proc: 0]p: copy_x_back: 0.138 [ms]
[OGL LOG][lduLduBase.H:330] 
Statistics:
	Time per iteration: 623 [mu s]
	Time per residual norm calculation: 131.000000 [mu s]
	Time per iteration and DOF: 0.623000 [ns]
	Retrieve results bandwidth 1.811000 [GByte/s]
[OGL LOG][Proc: 0]p: solve_multi_gpu: 287.934 [ms]
BJhipGKOCG:  Solving for p, Initial residual = 0.139534, Final residual = 9.02107e-05, No Iterations 457
piso step 291.646 [ms]
 contErrors 
time step continuity errors : sum local = 1.46298e-08, global = -1.63947e-21, cumulative = -2.42665e-20
piso setup 6.465 [ms]
 correctNonOrthogonal 
 setRef 
 startSolve 
[OGL LOG][Proc: 0]: global_index_init: 0.053 [ms]
[OGL LOG][Proc: 0]p_local_coeffs: call_update: 0 [ms]
[OGL LOG][Proc: 0]p_non_local_coeffs: call_update: 0 [ms]
[OGL LOG][Proc: 0]p: update_local_matrix_data: 0.747 [ms]
[OGL LOG][Proc: 0]p: update_non_local_matrix_data: 0.018 [ms]
[OGL LOG][Proc: 0]p_matrix: call_update: 1.759 [ms]
[OGL LOG][Proc: 0]p_rhs: call_update: 0.387 [ms]
[OGL LOG][Preconditioner.H:121] Generate preconditioner BJ MaxBlockSize 1
[OGL LOG][Proc: 0]p: init_precond: 0.13 [ms]
[OGL LOG][StoppingCriterion.H:373] Creating stopping criterion with minIter 274 frequency 6
[OGL LOG][Proc: 0]p: generate_solver: 0.002 [ms]
[OGL LOG][Proc: 0]p: solve: 206.357 [ms]
[OGL LOG][Proc: 0]p: copy_x_back: 0.144 [ms]
[OGL LOG][lduLduBase.H:330] 
Statistics:
	Time per iteration: 634 [mu s]
	Time per residual norm calculation: 136.000000 [mu s]
	Time per iteration and DOF: 0.634000 [ns]
	Retrieve results bandwidth 1.736000 [GByte/s]
[OGL LOG][Proc: 0]p: solve_multi_gpu: 209.345 [ms]
BJhipGKOCG:  Solving for p, Initial residual = 0.116684, Final residual = 9.8797e-05, No Iterations 325
piso step 213.097 [ms]
 contErrors 
time step continuity errors : sum local = 1.50049e-08, global = 2.97976e-21, cumulative = -2.12868e-20
ExecutionTime = 9.85 s  ClockTime = 9 s

Time = 0.004

Courant Number mean: 0.0543189 max: 0.468922
momentum setup 4.088 [ms]
DILUPBiCGStab:  Solving for Ux, Initial residual = 0.012293, Final residual = 5.46136e-05, No Iterations 5
DILUPBiCGStab:  Solving for Uy, Initial residual = 0.0265262, Final residual = 8.83122e-05, No Iterations 5
DILUPBiCGStab:  Solving for Uz, Initial residual = 0.0522223, Final residual = 0.000216193, No Iterations 5
piso setup 5.879 [ms]
 correctNonOrthogonal 
 setRef 
 startSolve 
[OGL LOG][Proc: 0]: global_index_init: 0.049 [ms]
[OGL LOG][Proc: 0]p_local_coeffs: call_update: 0 [ms]
[OGL LOG][Proc: 0]p_non_local_coeffs: call_update: 0 [ms]
[OGL LOG][Proc: 0]p: update_local_matrix_data: 0.539 [ms]
[OGL LOG][Proc: 0]p: update_non_local_matrix_data: 0.034 [ms]
[OGL LOG][Proc: 0]p_matrix: call_update: 1.852 [ms]
[OGL LOG][Proc: 0]p_rhs: call_update: 0.298 [ms]
[OGL LOG][Preconditioner.H:121] Generate preconditioner BJ MaxBlockSize 1
[OGL LOG][Proc: 0]p: init_precond: 0.138 [ms]
[OGL LOG][StoppingCriterion.H:373] Creating stopping criterion with minIter 195 frequency 5
[OGL LOG][Proc: 0]p: generate_solver: 0.001 [ms]
[OGL LOG][Proc: 0]p: solve: 194.682 [ms]
[OGL LOG][Proc: 0]p: copy_x_back: 0.151 [ms]
[OGL LOG][lduLduBase.H:330] 
Statistics:
	Time per iteration: 606 [mu s]
	Time per residual norm calculation: 133.000000 [mu s]
	Time per iteration and DOF: 0.606000 [ns]
	Retrieve results bandwidth 1.655000 [GByte/s]
[OGL LOG][Proc: 0]p: solve_multi_gpu: 197.69 [ms]
BJhipGKOCG:  Solving for p, Initial residual = 0.0910605, Final residual = 9.44815e-05, No Iterations 321
piso step 201.239 [ms]
 contErrors 
time step continuity errors : sum local = 1.37572e-08, global = -5.11156e-21, cumulative = -2.63983e-20
piso setup 5.951 [ms]
 correctNonOrthogonal 
 setRef 
 startSolve 
[OGL LOG][Proc: 0]: global_index_init: 0.052 [ms]
[OGL LOG][Proc: 0]p_local_coeffs: call_update: 0 [ms]
[OGL LOG][Proc: 0]p_non_local_coeffs: call_update: 0 [ms]
[OGL LOG][Proc: 0]p: update_local_matrix_data: 0.753 [ms]
[OGL LOG][Proc: 0]p: update_non_local_matrix_data: 0.018 [ms]
[OGL LOG][Proc: 0]p_matrix: call_update: 1.838 [ms]
[OGL LOG][Proc: 0]p_rhs: call_update: 0.297 [ms]
[OGL LOG][Preconditioner.H:121] Generate preconditioner BJ MaxBlockSize 1
[OGL LOG][Proc: 0]p: init_precond: 0.137 [ms]
[OGL LOG][StoppingCriterion.H:373] Creating stopping criterion with minIter 192 frequency 5
[OGL LOG][Proc: 0]p: generate_solver: 0.002 [ms]
[OGL LOG][Proc: 0]p: solve: 194.491 [ms]
[OGL LOG][Proc: 0]p: copy_x_back: 0.155 [ms]
[OGL LOG][lduLduBase.H:330] 
Statistics:
	Time per iteration: 605 [mu s]
	Time per residual norm calculation: 137.000000 [mu s]
	Time per iteration and DOF: 0.605000 [ns]
	Retrieve results bandwidth 1.612000 [GByte/s]
[OGL LOG][Proc: 0]p: solve_multi_gpu: 197.446 [ms]
BJhipGKOCG:  Solving for p, Initial residual = 0.0753981, Final residual = 8.36916e-05, No Iterations 321
piso step 201.229 [ms]
 contErrors 
time step continuity errors : sum local = 1.21839e-08, global = -1.96638e-21, cumulative = -2.83647e-20
ExecutionTime = 10.32 s  ClockTime = 10 s

Time = 0.0045

Courant Number mean: 0.0568973 max: 0.470627
momentum setup 3.831 [ms]
DILUPBiCGStab:  Solving for Ux, Initial residual = 0.0105441, Final residual = 4.26213e-05, No Iterations 5
DILUPBiCGStab:  Solving for Uy, Initial residual = 0.0226755, Final residual = 7.58952e-05, No Iterations 5
DILUPBiCGStab:  Solving for Uz, Initial residual = 0.0436707, Final residual = 0.000164999, No Iterations 5
piso setup 5.804 [ms]
 correctNonOrthogonal 
 setRef 
 startSolve 
[OGL LOG][Proc: 0]: global_index_init: 0.054 [ms]
[OGL LOG][Proc: 0]p_local_coeffs: call_update: 0 [ms]
[OGL LOG][Proc: 0]p_non_local_coeffs: call_update: 0 [ms]
[OGL LOG][Proc: 0]p: update_local_matrix_data: 0.545 [ms]
[OGL LOG][Proc: 0]p: update_non_local_matrix_data: 0.019 [ms]
[OGL LOG][Proc: 0]p_matrix: call_update: 1.644 [ms]
[OGL LOG][Proc: 0]p_rhs: call_update: 0.317 [ms]
[OGL LOG][Preconditioner.H:121] Generate preconditioner BJ MaxBlockSize 1
[OGL LOG][Proc: 0]p: init_precond: 0.133 [ms]
[OGL LOG][StoppingCriterion.H:373] Creating stopping criterion with minIter 192 frequency 5
[OGL LOG][Proc: 0]p: generate_solver: 0.002 [ms]
[OGL LOG][Proc: 0]p: solve: 186.311 [ms]
[OGL LOG][Proc: 0]p: copy_x_back: 0.139 [ms]
[OGL LOG][lduLduBase.H:330] 
Statistics:
	Time per iteration: 580 [mu s]
	Time per residual norm calculation: 131.000000 [mu s]
	Time per iteration and DOF: 0.580000 [ns]
	Retrieve results bandwidth 1.798000 [GByte/s]
[OGL LOG][Proc: 0]p: solve_multi_gpu: 188.99 [ms]
BJhipGKOCG:  Solving for p, Initial residual = 0.0667431, Final residual = 9.94293e-05, No Iterations 321
piso step 192.632 [ms]
 contErrors 
time step continuity errors : sum local = 1.58719e-08, global = -1.49606e-21, cumulative = -2.98608e-20
piso setup 5.701 [ms]
 correctNonOrthogonal 
 setRef 
 startSolve 
[OGL LOG][Proc: 0]: global_index_init: 0.043 [ms]
[OGL LOG][Proc: 0]p_local_coeffs: call_update: 0 [ms]
[OGL LOG][Proc: 0]p_non_local_coeffs: call_update: 0 [ms]
[OGL LOG][Proc: 0]p: update_local_matrix_data: 0.548 [ms]
[OGL LOG][Proc: 0]p: update_non_local_matrix_data: 0.02 [ms]
[OGL LOG][Proc: 0]p_matrix: call_update: 2.257 [ms]
[OGL LOG][Proc: 0]p_rhs: call_update: 0.178 [ms]
[OGL LOG][Preconditioner.H:121] Generate preconditioner BJ MaxBlockSize 1
[OGL LOG][Proc: 0]p: init_precond: 0.133 [ms]
[OGL LOG][StoppingCriterion.H:373] Creating stopping criterion with minIter 192 frequency 5
[OGL LOG][Proc: 0]p: generate_solver: 0.002 [ms]
[OGL LOG][Proc: 0]p: solve: 203.34 [ms]
[OGL LOG][Proc: 0]p: copy_x_back: 0.144 [ms]
[OGL LOG][lduLduBase.H:330] 
Statistics:
	Time per iteration: 643 [mu s]
	Time per residual norm calculation: 134.000000 [mu s]
	Time per iteration and DOF: 0.643000 [ns]
	Retrieve results bandwidth 1.736000 [GByte/s]
[OGL LOG][Proc: 0]p: solve_multi_gpu: 206.328 [ms]
BJhipGKOCG:  Solving for p, Initial residual = 0.0557102, Final residual = 8.96655e-05, No Iterations 316
piso step 210.125 [ms]
 contErrors 
time step continuity errors : sum local = 1.34008e-08, global = -7.94269e-21, cumulative = -3.78035e-20
ExecutionTime = 10.79 s  ClockTime = 10 s

Time = 0.005

Courant Number mean: 0.0591939 max: 0.472024
momentum setup 3.734 [ms]
DILUPBiCGStab:  Solving for Ux, Initial residual = 0.00922456, Final residual = 3.56519e-05, No Iterations 5
DILUPBiCGStab:  Solving for Uy, Initial residual = 0.019743, Final residual = 5.87884e-05, No Iterations 5
DILUPBiCGStab:  Solving for Uz, Initial residual = 0.0388234, Final residual = 0.000136405, No Iterations 5
piso setup 5.814 [ms]
 correctNonOrthogonal 
 setRef 
 startSolve 
[OGL LOG][Proc: 0]: global_index_init: 0.065 [ms]
[OGL LOG][Proc: 0]p_local_coeffs: call_update: 0 [ms]
[OGL LOG][Proc: 0]p_non_local_coeffs: call_update: 0 [ms]
[OGL LOG][Proc: 0]p: update_local_matrix_data: 0.524 [ms]
[OGL LOG][Proc: 0]p: update_non_local_matrix_data: 0.02 [ms]
[OGL LOG][Proc: 0]p_matrix: call_update: 1.766 [ms]
[OGL LOG][Proc: 0]p_rhs: call_update: 0.392 [ms]
[OGL LOG][Preconditioner.H:121] Generate preconditioner BJ MaxBlockSize 1
[OGL LOG][Proc: 0]p: init_precond: 0.129 [ms]
[OGL LOG][StoppingCriterion.H:373] Creating stopping criterion with minIter 189 frequency 5
[OGL LOG][Proc: 0]p: generate_solver: 0.002 [ms]
[OGL LOG][Proc: 0]p: solve: 182.66 [ms]
[OGL LOG][Proc: 0]p: copy_x_back: 0.15 [ms]
[OGL LOG][lduLduBase.H:330] 
Statistics:
	Time per iteration: 578 [mu s]
	Time per residual norm calculation: 135.000000 [mu s]
	Time per iteration and DOF: 0.578000 [ns]
	Retrieve results bandwidth 1.666000 [GByte/s]
[OGL LOG][Proc: 0]p: solve_multi_gpu: 185.677 [ms]
BJhipGKOCG:  Solving for p, Initial residual = 0.0447962, Final residual = 9.75591e-05, No Iterations 316
piso step 189.149 [ms]
 contErrors 
time step continuity errors : sum local = 1.45009e-08, global = -4.72217e-22, cumulative = -3.82757e-20
piso setup 5.788 [ms]
 correctNonOrthogonal 
 setRef 
 startSolve 
[OGL LOG][Proc: 0]: global_index_init: 0.058 [ms]
[OGL LOG][Proc: 0]p_local_coeffs: call_update: 0 [ms]
[OGL LOG][Proc: 0]p_non_local_coeffs: call_update: 0 [ms]
[OGL LOG][Proc: 0]p: update_local_matrix_data: 0.602 [ms]
[OGL LOG][Proc: 0]p: update_non_local_matrix_data: 0.017 [ms]
[OGL LOG][Proc: 0]p_matrix: call_update: 2.24 [ms]
[OGL LOG][Proc: 0]p_rhs: call_update: 0.227 [ms]
[OGL LOG][Preconditioner.H:121] Generate preconditioner BJ MaxBlockSize 1
[OGL LOG][Proc: 0]p: init_precond: 0.133 [ms]
[OGL LOG][StoppingCriterion.H:373] Creating stopping criterion with minIter 189 frequency 5
[OGL LOG][Proc: 0]p: generate_solver: 0.002 [ms]
[OGL LOG][Proc: 0]p: solve: 195.972 [ms]
[OGL LOG][Proc: 0]p: copy_x_back: 0.132 [ms]
[OGL LOG][lduLduBase.H:330] 
Statistics:
	Time per iteration: 620 [mu s]
	Time per residual norm calculation: 137.000000 [mu s]
	Time per iteration and DOF: 0.620000 [ns]
	Retrieve results bandwidth 1.893000 [GByte/s]
[OGL LOG][Proc: 0]p: solve_multi_gpu: 198.986 [ms]
BJhipGKOCG:  Solving for p, Initial residual = 0.0378648, Final residual = 8.51368e-05, No Iterations 316
piso step 202.545 [ms]
 contErrors 
time step continuity errors : sum local = 1.21261e-08, global = -5.85902e-21, cumulative = -4.41347e-20
ExecutionTime = 11.24 s  ClockTime = 11 s

Time = 0.0055

Courant Number mean: 0.0612547 max: 0.473173
momentum setup 3.18 [ms]
DILUPBiCGStab:  Solving for Ux, Initial residual = 0.00815179, Final residual = 2.98424e-05, No Iterations 5
DILUPBiCGStab:  Solving for Uy, Initial residual = 0.0174476, Final residual = 5.25316e-05, No Iterations 5
DILUPBiCGStab:  Solving for Uz, Initial residual = 0.0348969, Final residual = 0.000121179, No Iterations 5
piso setup 12.641 [ms]
 correctNonOrthogonal 
 setRef 
 startSolve 
[OGL LOG][Proc: 0]: global_index_init: 0.044 [ms]
[OGL LOG][Proc: 0]p_local_coeffs: call_update: 0 [ms]
[OGL LOG][Proc: 0]p_non_local_coeffs: call_update: 0 [ms]
[OGL LOG][Proc: 0]p: update_local_matrix_data: 0.485 [ms]
[OGL LOG][Proc: 0]p: update_non_local_matrix_data: 0.02 [ms]
[OGL LOG][Proc: 0]p_matrix: call_update: 1.812 [ms]
[OGL LOG][Proc: 0]p_rhs: call_update: 0.415 [ms]
[OGL LOG][Preconditioner.H:121] Generate preconditioner BJ MaxBlockSize 1
[OGL LOG][Proc: 0]p: init_precond: 0.14 [ms]
[OGL LOG][StoppingCriterion.H:373] Creating stopping criterion with minIter 189 frequency 5
[OGL LOG][Proc: 0]p: generate_solver: 0.001 [ms]
[OGL LOG][Proc: 0]p: solve: 209.326 [ms]
[OGL LOG][Proc: 0]p: copy_x_back: 0.145 [ms]
[OGL LOG][lduLduBase.H:330] 
Statistics:
	Time per iteration: 613 [mu s]
	Time per residual norm calculation: 139.000000 [mu s]
	Time per iteration and DOF: 0.613000 [ns]
	Retrieve results bandwidth 1.724000 [GByte/s]
[OGL LOG][Proc: 0]p: solve_multi_gpu: 212.478 [ms]
BJhipGKOCG:  Solving for p, Initial residual = 0.0350638, Final residual = 9.30451e-05, No Iterations 341
piso step 216.153 [ms]
 contErrors 
time step continuity errors : sum local = 1.54772e-08, global = 5.00982e-21, cumulative = -3.91249e-20
piso setup 6.678 [ms]
 correctNonOrthogonal 
 setRef 
 startSolve 
[OGL LOG][Proc: 0]: global_index_init: 0.051 [ms]
[OGL LOG][Proc: 0]p_local_coeffs: call_update: 0 [ms]
[OGL LOG][Proc: 0]p_non_local_coeffs: call_update: 0 [ms]
[OGL LOG][Proc: 0]p: update_local_matrix_data: 0.53 [ms]
[OGL LOG][Proc: 0]p: update_non_local_matrix_data: 0.018 [ms]
[OGL LOG][Proc: 0]p_matrix: call_update: 1.775 [ms]
[OGL LOG][Proc: 0]p_rhs: call_update: 0.306 [ms]
[OGL LOG][Preconditioner.H:121] Generate preconditioner BJ MaxBlockSize 1
[OGL LOG][Proc: 0]p: init_precond: 0.127 [ms]
[OGL LOG][StoppingCriterion.H:373] Creating stopping criterion with minIter 204 frequency 5
[OGL LOG][Proc: 0]p: generate_solver: 0.002 [ms]
[OGL LOG][Proc: 0]p: solve: 229.279 [ms]
[OGL LOG][Proc: 0]p: copy_x_back: 0.135 [ms]
[OGL LOG][lduLduBase.H:330] 
Statistics:
	Time per iteration: 725 [mu s]
	Time per residual norm calculation: 134.000000 [mu s]
	Time per iteration and DOF: 0.725000 [ns]
	Retrieve results bandwidth 1.851000 [GByte/s]
[OGL LOG][Proc: 0]p: solve_multi_gpu: 232.212 [ms]
BJhipGKOCG:  Solving for p, Initial residual = 0.0298258, Final residual = 8.35707e-05, No Iterations 316
piso step 235.679 [ms]
 contErrors 
time step continuity errors : sum local = 1.26293e-08, global = 1.48789e-20, cumulative = -2.4246e-20
ExecutionTime = 11.77 s  ClockTime = 11 s

Time = 0.006

Courant Number mean: 0.0631274 max: 0.474153
momentum setup 3.619 [ms]
DILUPBiCGStab:  Solving for Ux, Initial residual = 0.00729081, Final residual = 2.61132e-05, No Iterations 5
DILUPBiCGStab:  Solving for Uy, Initial residual = 0.0155944, Final residual = 4.57002e-05, No Iterations 5
DILUPBiCGStab:  Solving for Uz, Initial residual = 0.0314952, Final residual = 0.000114169, No Iterations 5
piso setup 5.772 [ms]
 correctNonOrthogonal 
 setRef 
 startSolve 
[OGL LOG][Proc: 0]: global_index_init: 0.055 [ms]
[OGL LOG][Proc: 0]p_local_coeffs: call_update: 0 [ms]
[OGL LOG][Proc: 0]p_non_local_coeffs: call_update: 0 [ms]
[OGL LOG][Proc: 0]p: update_local_matrix_data: 0.466 [ms]
[OGL LOG][Proc: 0]p: update_non_local_matrix_data: 0.019 [ms]
[OGL LOG][Proc: 0]p_matrix: call_update: 1.751 [ms]
[OGL LOG][Proc: 0]p_rhs: call_update: 0.406 [ms]
[OGL LOG][Preconditioner.H:121] Generate preconditioner BJ MaxBlockSize 1
[OGL LOG][Proc: 0]p: init_precond: 0.13 [ms]
[OGL LOG][StoppingCriterion.H:373] Creating stopping criterion with minIter 189 frequency 5
[OGL LOG][Proc: 0]p: generate_solver: 0.002 [ms]
[OGL LOG][Proc: 0]p: solve: 242.226 [ms]
[OGL LOG][Proc: 0]p: copy_x_back: 0.166 [ms]
[OGL LOG][lduLduBase.H:330] 
Statistics:
	Time per iteration: 754 [mu s]
	Time per residual norm calculation: 136.000000 [mu s]
	Time per iteration and DOF: 0.754000 [ns]
	Retrieve results bandwidth 1.506000 [GByte/s]
[OGL LOG][Proc: 0]p: solve_multi_gpu: 245.448 [ms]
BJhipGKOCG:  Solving for p, Initial residual = 0.025332, Final residual = 9.51734e-05, No Iterations 321
piso step 248.885 [ms]
 contErrors 
time step continuity errors : sum local = 1.50805e-08, global = -9.23785e-21, cumulative = -3.34838e-20
piso setup 6.219 [ms]
 correctNonOrthogonal 
 setRef 
 startSolve 
[OGL LOG][Proc: 0]: global_index_init: 0.059 [ms]
[OGL LOG][Proc: 0]p_local_coeffs: call_update: 0 [ms]
[OGL LOG][Proc: 0]p_non_local_coeffs: call_update: 0 [ms]
[OGL LOG][Proc: 0]p: update_local_matrix_data: 0.514 [ms]
[OGL LOG][Proc: 0]p: update_non_local_matrix_data: 0.019 [ms]
[OGL LOG][Proc: 0]p_matrix: call_update: 1.738 [ms]
[OGL LOG][Proc: 0]p_rhs: call_update: 0.504 [ms]
[OGL LOG][Preconditioner.H:121] Generate preconditioner BJ MaxBlockSize 1
[OGL LOG][Proc: 0]p: init_precond: 0.136 [ms]
[OGL LOG][StoppingCriterion.H:373] Creating stopping criterion with minIter 192 frequency 5
[OGL LOG][Proc: 0]p: generate_solver: 0.002 [ms]
[OGL LOG][Proc: 0]p: solve: 195.081 [ms]
[OGL LOG][Proc: 0]p: copy_x_back: 0.191 [ms]
[OGL LOG][lduLduBase.H:330] 
Statistics:
	Time per iteration: 627 [mu s]
	Time per residual norm calculation: 136.000000 [mu s]
	Time per iteration and DOF: 0.627000 [ns]
	Retrieve results bandwidth 1.308000 [GByte/s]
[OGL LOG][Proc: 0]p: solve_multi_gpu: 198.338 [ms]
BJhipGKOCG:  Solving for p, Initial residual = 0.0221526, Final residual = 9.33882e-05, No Iterations 311
piso step 202.58 [ms]
 contErrors 
time step continuity errors : sum local = 1.34319e-08, global = -6.99161e-21, cumulative = -4.04754e-20
ExecutionTime = 12.29 s  ClockTime = 12 s

Time = 0.0065

Courant Number mean: 0.0648322 max: 0.47499
momentum setup 4.407 [ms]
DILUPBiCGStab:  Solving for Ux, Initial residual = 0.0065731, Final residual = 2.28746e-05, No Iterations 5
DILUPBiCGStab:  Solving for Uy, Initial residual = 0.0140504, Final residual = 4.12213e-05, No Iterations 5
DILUPBiCGStab:  Solving for Uz, Initial residual = 0.0291528, Final residual = 0.00010889, No Iterations 5
piso setup 5.804 [ms]
 correctNonOrthogonal 
 setRef 
 startSolve 
[OGL LOG][Proc: 0]: global_index_init: 0.053 [ms]
[OGL LOG][Proc: 0]p_local_coeffs: call_update: 0 [ms]
[OGL LOG][Proc: 0]p_non_local_coeffs: call_update: 0 [ms]
[OGL LOG][Proc: 0]p: update_local_matrix_data: 0.773 [ms]
[OGL LOG][Proc: 0]p: update_non_local_matrix_data: 0.026 [ms]
[OGL LOG][Proc: 0]p_matrix: call_update: 2.082 [ms]
[OGL LOG][Proc: 0]p_rhs: call_update: 0.034 [ms]
[OGL LOG][Preconditioner.H:121] Generate preconditioner BJ MaxBlockSize 1
[OGL LOG][Proc: 0]p: init_precond: 0.143 [ms]
[OGL LOG][StoppingCriterion.H:373] Creating stopping criterion with minIter 186 frequency 5
[OGL LOG][Proc: 0]p: generate_solver: 0.001 [ms]
[OGL LOG][Proc: 0]p: solve: 414.13 [ms]
[OGL LOG][Proc: 0]p: copy_x_back: 0.128 [ms]
[OGL LOG][lduLduBase.H:330] 
Statistics:
	Time per iteration: 603 [mu s]
	Time per residual norm calculation: 139.000000 [mu s]
	Time per iteration and DOF: 0.603000 [ns]
	Retrieve results bandwidth 1.953000 [GByte/s]
[OGL LOG][Proc: 0]p: solve_multi_gpu: 416.762 [ms]
BJhipGKOCG:  Solving for p, Initial residual = 0.0210297, Final residual = 9.83751e-05, No Iterations 686
piso step 420.546 [ms]
 contErrors 
time step continuity errors : sum local = 1.37745e-08, global = -3.79371e-21, cumulative = -4.42691e-20
piso setup 6.481 [ms]
 correctNonOrthogonal 
 setRef 
 startSolve 
[OGL LOG][Proc: 0]: global_index_init: 0.05 [ms]
[OGL LOG][Proc: 0]p_local_coeffs: call_update: 0 [ms]
[OGL LOG][Proc: 0]p_non_local_coeffs: call_update: 0 [ms]
[OGL LOG][Proc: 0]p: update_local_matrix_data: 0.542 [ms]
[OGL LOG][Proc: 0]p: update_non_local_matrix_data: 0.018 [ms]
[OGL LOG][Proc: 0]p_matrix: call_update: 1.955 [ms]
[OGL LOG][Proc: 0]p_rhs: call_update: 0.288 [ms]
[OGL LOG][Preconditioner.H:121] Generate preconditioner BJ MaxBlockSize 1
[OGL LOG][Proc: 0]p: init_precond: 0.135 [ms]
[OGL LOG][StoppingCriterion.H:373] Creating stopping criterion with minIter 411 frequency 8
[OGL LOG][Proc: 0]p: generate_solver: 0.002 [ms]
[OGL LOG][Proc: 0]p: solve: 395.352 [ms]
[OGL LOG][Proc: 0]p: copy_x_back: 0.156 [ms]
[OGL LOG][lduLduBase.H:330] 
Statistics:
	Time per iteration: 573 [mu s]
	Time per residual norm calculation: 137.000000 [mu s]
	Time per iteration and DOF: 0.573000 [ns]
	Retrieve results bandwidth 1.602000 [GByte/s]
[OGL LOG][Proc: 0]p: solve_multi_gpu: 398.323 [ms]
BJhipGKOCG:  Solving for p, Initial residual = 0.0185759, Final residual = 7.77841e-05, No Iterations 689
piso step 402.024 [ms]
 contErrors 
time step continuity errors : sum local = 1.08955e-08, global = -8.85497e-21, cumulative = -5.31241e-20
ExecutionTime = 13.17 s  ClockTime = 13 s

Time = 0.007

Courant Number mean: 0.0664007 max: 0.475723
momentum setup 3.661 [ms]
DILUPBiCGStab:  Solving for Ux, Initial residual = 0.00596731, Final residual = 2.05722e-05, No Iterations 5
DILUPBiCGStab:  Solving for Uy, Initial residual = 0.0127559, Final residual = 3.69683e-05, No Iterations 5
DILUPBiCGStab:  Solving for Uz, Initial residual = 0.0260243, Final residual = 8.59696e-05, No Iterations 5
piso setup 5.732 [ms]
 correctNonOrthogonal 
 setRef 
 startSolve 
[OGL LOG][Proc: 0]: global_index_init: 0.057 [ms]
[OGL LOG][Proc: 0]p_local_coeffs: call_update: 0 [ms]
[OGL LOG][Proc: 0]p_non_local_coeffs: call_update: 0 [ms]
[OGL LOG][Proc: 0]p: update_local_matrix_data: 0.544 [ms]
[OGL LOG][Proc: 0]p: update_non_local_matrix_data: 0.019 [ms]
[OGL LOG][Proc: 0]p_matrix: call_update: 2.049 [ms]
[OGL LOG][Proc: 0]p_rhs: call_update: 0.197 [ms]
[OGL LOG][Preconditioner.H:121] Generate preconditioner BJ MaxBlockSize 1
[OGL LOG][Proc: 0]p: init_precond: 0.132 [ms]
[OGL LOG][StoppingCriterion.H:373] Creating stopping criterion with minIter 413 frequency 8
[OGL LOG][Proc: 0]p: generate_solver: 0.001 [ms]
[OGL LOG][Proc: 0]p: solve: 432.728 [ms]
[OGL LOG][Proc: 0]p: copy_x_back: 0.147 [ms]
[OGL LOG][lduLduBase.H:330] 
Statistics:
	Time per iteration: 628 [mu s]
	Time per residual norm calculation: 133.000000 [mu s]
	Time per iteration and DOF: 0.628000 [ns]
	Retrieve results bandwidth 1.700000 [GByte/s]
[OGL LOG][Proc: 0]p: solve_multi_gpu: 435.715 [ms]
BJhipGKOCG:  Solving for p, Initial residual = 0.0164969, Final residual = 7.44601e-05, No Iterations 689
piso step 439.23 [ms]
 contErrors 
time step continuity errors : sum local = 1.04189e-08, global = -2.13692e-21, cumulative = -5.5261e-20
piso setup 6.563 [ms]
 correctNonOrthogonal 
 setRef 
 startSolve 
[OGL LOG][Proc: 0]: global_index_init: 0.054 [ms]
[OGL LOG][Proc: 0]p_local_coeffs: call_update: 0 [ms]
[OGL LOG][Proc: 0]p_non_local_coeffs: call_update: 0 [ms]
[OGL LOG][Proc: 0]p: update_local_matrix_data: 0.532 [ms]
[OGL LOG][Proc: 0]p: update_non_local_matrix_data: 0.019 [ms]
[OGL LOG][Proc: 0]p_matrix: call_update: 1.85 [ms]
[OGL LOG][Proc: 0]p_rhs: call_update: 0.306 [ms]
[OGL LOG][Preconditioner.H:121] Generate preconditioner BJ MaxBlockSize 1
[OGL LOG][Proc: 0]p: init_precond: 0.133 [ms]
[OGL LOG][StoppingCriterion.H:373] Creating stopping criterion with minIter 413 frequency 8
[OGL LOG][Proc: 0]p: generate_solver: 0.002 [ms]
[OGL LOG][Proc: 0]p: solve: 259.51 [ms]
[OGL LOG][Proc: 0]p: copy_x_back: 0.15 [ms]
[OGL LOG][lduLduBase.H:330] 
Statistics:
	Time per iteration: 622 [mu s]
	Time per residual norm calculation: 143.000000 [mu s]
	Time per iteration and DOF: 0.622000 [ns]
	Retrieve results bandwidth 1.666000 [GByte/s]
[OGL LOG][Proc: 0]p: solve_multi_gpu: 262.572 [ms]
BJhipGKOCG:  Solving for p, Initial residual = 0.0149751, Final residual = 8.81693e-05, No Iterations 417
piso step 266.378 [ms]
 contErrors 
time step continuity errors : sum local = 1.30556e-08, global = -7.86762e-21, cumulative = -6.31287e-20
ExecutionTime = 13.93 s  ClockTime = 14 s

Time = 0.0075

Courant Number mean: 0.0678482 max: 0.476363
momentum setup 3.479 [ms]
DILUPBiCGStab:  Solving for Ux, Initial residual = 0.00544343, Final residual = 1.85144e-05, No Iterations 5
DILUPBiCGStab:  Solving for Uy, Initial residual = 0.0116574, Final residual = 3.36078e-05, No Iterations 5
DILUPBiCGStab:  Solving for Uz, Initial residual = 0.0239673, Final residual = 8.29705e-05, No Iterations 5
piso setup 5.765 [ms]
 correctNonOrthogonal 
 setRef 
 startSolve 
[OGL LOG][Proc: 0]: global_index_init: 0.054 [ms]
[OGL LOG][Proc: 0]p_local_coeffs: call_update: 0 [ms]
[OGL LOG][Proc: 0]p_non_local_coeffs: call_update: 0 [ms]
[OGL LOG][Proc: 0]p: update_local_matrix_data: 0.54 [ms]
[OGL LOG][Proc: 0]p: update_non_local_matrix_data: 0.016 [ms]
[OGL LOG][Proc: 0]p_matrix: call_update: 1.78 [ms]
[OGL LOG][Proc: 0]p_rhs: call_update: 0.42 [ms]
[OGL LOG][Preconditioner.H:121] Generate preconditioner BJ MaxBlockSize 1
[OGL LOG][Proc: 0]p: init_precond: 0.132 [ms]
[OGL LOG][StoppingCriterion.H:373] Creating stopping criterion with minIter 250 frequency 6
[OGL LOG][Proc: 0]p: generate_solver: 0.003 [ms]
[OGL LOG][Proc: 0]p: solve: 409.496 [ms]
[OGL LOG][Proc: 0]p: copy_x_back: 0.144 [ms]
[OGL LOG][lduLduBase.H:330] 
Statistics:
	Time per iteration: 597 [mu s]
	Time per residual norm calculation: 135.000000 [mu s]
	Time per iteration and DOF: 0.597000 [ns]
	Retrieve results bandwidth 1.736000 [GByte/s]
[OGL LOG][Proc: 0]p: solve_multi_gpu: 412.517 [ms]
BJhipGKOCG:  Solving for p, Initial residual = 0.0141896, Final residual = 7.71418e-05, No Iterations 685
piso step 415.896 [ms]
 contErrors 
time step continuity errors : sum local = 1.07821e-08, global = 3.32728e-21, cumulative = -5.98014e-20
piso setup 6.173 [ms]
 correctNonOrthogonal 
 setRef 
 startSolve 
[OGL LOG][Proc: 0]: global_index_init: 0.053 [ms]
[OGL LOG][Proc: 0]p_local_coeffs: call_update: 0 [ms]
[OGL LOG][Proc: 0]p_non_local_coeffs: call_update: 0 [ms]
[OGL LOG][Proc: 0]p: update_local_matrix_data: 0.55 [ms]
[OGL LOG][Proc: 0]p: update_non_local_matrix_data: 0.017 [ms]
[OGL LOG][Proc: 0]p_matrix: call_update: 1.926 [ms]
[OGL LOG][Proc: 0]p_rhs: call_update: 0.31 [ms]
[OGL LOG][Preconditioner.H:121] Generate preconditioner BJ MaxBlockSize 1
[OGL LOG][Proc: 0]p: init_precond: 0.14 [ms]
[OGL LOG][StoppingCriterion.H:373] Creating stopping criterion with minIter 411 frequency 8
[OGL LOG][Proc: 0]p: generate_solver: 0.002 [ms]
[OGL LOG][Proc: 0]p: solve: 407.311 [ms]
[OGL LOG][Proc: 0]p: copy_x_back: 0.135 [ms]
[OGL LOG][lduLduBase.H:330] 
Statistics:
	Time per iteration: 598 [mu s]
	Time per residual norm calculation: 137.000000 [mu s]
	Time per iteration and DOF: 0.598000 [ns]
	Retrieve results bandwidth 1.851000 [GByte/s]
[OGL LOG][Proc: 0]p: solve_multi_gpu: 410.887 [ms]
BJhipGKOCG:  Solving for p, Initial residual = 0.0129628, Final residual = 8.61167e-05, No Iterations 681
piso step 414.813 [ms]
 contErrors 
time step continuity errors : sum local = 1.20404e-08, global = 8.7919e-22, cumulative = -5.89222e-20
ExecutionTime = 14.82 s  ClockTime = 14 s

Time = 0.008

Courant Number mean: 0.069186 max: 0.476934
momentum setup 3.007 [ms]
DILUPBiCGStab:  Solving for Ux, Initial residual = 0.00499578, Final residual = 1.69341e-05, No Iterations 5
DILUPBiCGStab:  Solving for Uy, Initial residual = 0.0107081, Final residual = 3.06882e-05, No Iterations 5
DILUPBiCGStab:  Solving for Uz, Initial residual = 0.0219242, Final residual = 7.25418e-05, No Iterations 5
piso setup 5.777 [ms]
 correctNonOrthogonal 
 setRef 
 startSolve 
[OGL LOG][Proc: 0]: global_index_init: 0.043 [ms]
[OGL LOG][Proc: 0]p_local_coeffs: call_update: 0 [ms]
[OGL LOG][Proc: 0]p_non_local_coeffs: call_update: 0 [ms]
[OGL LOG][Proc: 0]p: update_local_matrix_data: 0.464 [ms]
[OGL LOG][Proc: 0]p: update_non_local_matrix_data: 0.02 [ms]
[OGL LOG][Proc: 0]p_matrix: call_update: 1.81 [ms]
[OGL LOG][Proc: 0]p_rhs: call_update: 0.345 [ms]
[OGL LOG][Preconditioner.H:121] Generate preconditioner BJ MaxBlockSize 1
[OGL LOG][Proc: 0]p: init_precond: 0.132 [ms]
[OGL LOG][StoppingCriterion.H:373] Creating stopping criterion with minIter 408 frequency 8
[OGL LOG][Proc: 0]p: generate_solver: 0.002 [ms]
[OGL LOG][Proc: 0]p: solve: 241.25 [ms]
[OGL LOG][Proc: 0]p: copy_x_back: 0.146 [ms]
[OGL LOG][lduLduBase.H:330] 
Statistics:
	Time per iteration: 589 [mu s]
	Time per residual norm calculation: 137.000000 [mu s]
	Time per iteration and DOF: 0.589000 [ns]
	Retrieve results bandwidth 1.712000 [GByte/s]
[OGL LOG][Proc: 0]p: solve_multi_gpu: 244.238 [ms]
BJhipGKOCG:  Solving for p, Initial residual = 0.0121927, Final residual = 5.38842e-05, No Iterations 409
piso step 247.644 [ms]
 contErrors 
time step continuity errors : sum local = 7.99082e-09, global = 1.76598e-21, cumulative = -5.71562e-20
piso setup 6.24 [ms]
 correctNonOrthogonal 
 setRef 
 startSolve 
[OGL LOG][Proc: 0]: global_index_init: 0.052 [ms]
[OGL LOG][Proc: 0]p_local_coeffs: call_update: 0 [ms]
[OGL LOG][Proc: 0]p_non_local_coeffs: call_update: 0 [ms]
[OGL LOG][Proc: 0]p: update_local_matrix_data: 0.534 [ms]
[OGL LOG][Proc: 0]p: update_non_local_matrix_data: 0.017 [ms]
[OGL LOG][Proc: 0]p_matrix: call_update: 1.767 [ms]
[OGL LOG][Proc: 0]p_rhs: call_update: 0.304 [ms]
[OGL LOG][Preconditioner.H:121] Generate preconditioner BJ MaxBlockSize 1
[OGL LOG][Proc: 0]p: init_precond: 0.137 [ms]
[OGL LOG][StoppingCriterion.H:373] Creating stopping criterion with minIter 245 frequency 6
[OGL LOG][Proc: 0]p: generate_solver: 0.002 [ms]
[OGL LOG][Proc: 0]p: solve: 164.655 [ms]
[OGL LOG][Proc: 0]p: copy_x_back: 0.146 [ms]
[OGL LOG][lduLduBase.H:330] 
Statistics:
	Time per iteration: 569 [mu s]
	Time per residual norm calculation: 132.000000 [mu s]
	Time per iteration and DOF: 0.569000 [ns]
	Retrieve results bandwidth 1.712000 [GByte/s]
[OGL LOG][Proc: 0]p: solve_multi_gpu: 167.472 [ms]
BJhipGKOCG:  Solving for p, Initial residual = 0.0113425, Final residual = 9.8696e-05, No Iterations 289
piso step 171.559 [ms]
 contErrors 
time step continuity errors : sum local = 1.40231e-08, global = -3.74339e-21, cumulative = -6.08996e-20
ExecutionTime = 15.3 s  ClockTime = 15 s

Time = 0.0085

Courant Number mean: 0.0704319 max: 0.477442
momentum setup 3.745 [ms]
DILUPBiCGStab:  Solving for Ux, Initial residual = 0.0046005, Final residual = 1.54978e-05, No Iterations 5
DILUPBiCGStab:  Solving for Uy, Initial residual = 0.00988612, Final residual = 2.82278e-05, No Iterations 5
DILUPBiCGStab:  Solving for Uz, Initial residual = 0.0202527, Final residual = 6.75391e-05, No Iterations 5
piso setup 5.792 [ms]
 correctNonOrthogonal 
 setRef 
 startSolve 
[OGL LOG][Proc: 0]: global_index_init: 0.046 [ms]
[OGL LOG][Proc: 0]p_local_coeffs: call_update: 0 [ms]
[OGL LOG][Proc: 0]p_non_local_coeffs: call_update: 0 [ms]
[OGL LOG][Proc: 0]p: update_local_matrix_data: 0.529 [ms]
[OGL LOG][Proc: 0]p: update_non_local_matrix_data: 0.018 [ms]
[OGL LOG][Proc: 0]p_matrix: call_update: 2.049 [ms]
[OGL LOG][Proc: 0]p_rhs: call_update: 0.236 [ms]
[OGL LOG][Preconditioner.H:121] Generate preconditioner BJ MaxBlockSize 1
[OGL LOG][Proc: 0]p: init_precond: 0.132 [ms]
[OGL LOG][StoppingCriterion.H:373] Creating stopping criterion with minIter 173 frequency 5
[OGL LOG][Proc: 0]p: generate_solver: 0.002 [ms]
[OGL LOG][Proc: 0]p: solve: 167.564 [ms]
[OGL LOG][Proc: 0]p: copy_x_back: 0.162 [ms]
[OGL LOG][lduLduBase.H:330] 
Statistics:
	Time per iteration: 575 [mu s]
	Time per residual norm calculation: 134.000000 [mu s]
	Time per iteration and DOF: 0.575000 [ns]
	Retrieve results bandwidth 1.543000 [GByte/s]
[OGL LOG][Proc: 0]p: solve_multi_gpu: 170.394 [ms]
BJhipGKOCG:  Solving for p, Initial residual = 0.0106535, Final residual = 9.33487e-05, No Iterations 291
piso step 173.874 [ms]
 contErrors 
time step continuity errors : sum local = 1.37813e-08, global = -1.37467e-21, cumulative = -6.22743e-20
piso setup 5.524 [ms]
 correctNonOrthogonal 
 setRef 
 startSolve 
[OGL LOG][Proc: 0]: global_index_init: 0.054 [ms]
[OGL LOG][Proc: 0]p_local_coeffs: call_update: 0 [ms]
[OGL LOG][Proc: 0]p_non_local_coeffs: call_update: 0 [ms]
[OGL LOG][Proc: 0]p: update_local_matrix_data: 0.72 [ms]
[OGL LOG][Proc: 0]p: update_non_local_matrix_data: 0.019 [ms]
[OGL LOG][Proc: 0]p_matrix: call_update: 2.034 [ms]
[OGL LOG][Proc: 0]p_rhs: call_update: 0.258 [ms]
[OGL LOG][Preconditioner.H:121] Generate preconditioner BJ MaxBlockSize 1
[OGL LOG][Proc: 0]p: init_precond: 0.13 [ms]
[OGL LOG][StoppingCriterion.H:373] Creating stopping criterion with minIter 174 frequency 5
[OGL LOG][Proc: 0]p: generate_solver: 0.001 [ms]
[OGL LOG][Proc: 0]p: solve: 163.757 [ms]
[OGL LOG][Proc: 0]p: copy_x_back: 0.155 [ms]
[OGL LOG][lduLduBase.H:330] 
Statistics:
	Time per iteration: 572 [mu s]
	Time per residual norm calculation: 133.000000 [mu s]
	Time per iteration and DOF: 0.572000 [ns]
	Retrieve results bandwidth 1.612000 [GByte/s]
[OGL LOG][Proc: 0]p: solve_multi_gpu: 166.613 [ms]
BJhipGKOCG:  Solving for p, Initial residual = 0.00996408, Final residual = 9.20543e-05, No Iterations 286
piso step 170.693 [ms]
 contErrors 
time step continuity errors : sum local = 1.30151e-08, global = -1.04757e-21, cumulative = -6.33218e-20
ExecutionTime = 15.71 s  ClockTime = 15 s

Time = 0.009

Courant Number mean: 0.0715955 max: 0.477901
momentum setup 3.601 [ms]
DILUPBiCGStab:  Solving for Ux, Initial residual = 0.00425568, Final residual = 1.43277e-05, No Iterations 5
DILUPBiCGStab:  Solving for Uy, Initial residual = 0.00916477, Final residual = 2.60642e-05, No Iterations 5
DILUPBiCGStab:  Solving for Uz, Initial residual = 0.0188033, Final residual = 6.40388e-05, No Iterations 5
piso setup 5.88 [ms]
 correctNonOrthogonal 
 setRef 
 startSolve 
[OGL LOG][Proc: 0]: global_index_init: 0.056 [ms]
[OGL LOG][Proc: 0]p_local_coeffs: call_update: 0 [ms]
[OGL LOG][Proc: 0]p_non_local_coeffs: call_update: 0 [ms]
[OGL LOG][Proc: 0]p: update_local_matrix_data: 0.544 [ms]
[OGL LOG][Proc: 0]p: update_non_local_matrix_data: 0.019 [ms]
[OGL LOG][Proc: 0]p_matrix: call_update: 1.704 [ms]
[OGL LOG][Proc: 0]p_rhs: call_update: 0.336 [ms]
[OGL LOG][Preconditioner.H:121] Generate preconditioner BJ MaxBlockSize 1
[OGL LOG][Proc: 0]p: init_precond: 0.132 [ms]
[OGL LOG][StoppingCriterion.H:373] Creating stopping criterion with minIter 171 frequency 5
[OGL LOG][Proc: 0]p: generate_solver: 0.002 [ms]
[OGL LOG][Proc: 0]p: solve: 182.965 [ms]
[OGL LOG][Proc: 0]p: copy_x_back: 0.135 [ms]
[OGL LOG][lduLduBase.H:330] 
Statistics:
	Time per iteration: 639 [mu s]
	Time per residual norm calculation: 133.000000 [mu s]
	Time per iteration and DOF: 0.639000 [ns]
	Retrieve results bandwidth 1.851000 [GByte/s]
[OGL LOG][Proc: 0]p: solve_multi_gpu: 185.857 [ms]
BJhipGKOCG:  Solving for p, Initial residual = 0.00961266, Final residual = 9.27724e-05, No Iterations 286
piso step 189.284 [ms]
 contErrors 
time step continuity errors : sum local = 1.37806e-08, global = 2.50243e-21, cumulative = -6.08194e-20
piso setup 6.646 [ms]
 correctNonOrthogonal 
 setRef 
 startSolve 
[OGL LOG][Proc: 0]: global_index_init: 0.054 [ms]
[OGL LOG][Proc: 0]p_local_coeffs: call_update: 0 [ms]
[OGL LOG][Proc: 0]p_non_local_coeffs: call_update: 0 [ms]
[OGL LOG][Proc: 0]p: update_local_matrix_data: 0.674 [ms]
[OGL LOG][Proc: 0]p: update_non_local_matrix_data: 0.017 [ms]
[OGL LOG][Proc: 0]p_matrix: call_update: 1.7 [ms]
[OGL LOG][Proc: 0]p_rhs: call_update: 0.323 [ms]
[OGL LOG][Preconditioner.H:121] Generate preconditioner BJ MaxBlockSize 1
[OGL LOG][Proc: 0]p: init_precond: 0.138 [ms]
[OGL LOG][StoppingCriterion.H:373] Creating stopping criterion with minIter 171 frequency 5
[OGL LOG][Proc: 0]p: generate_solver: 0.002 [ms]
[OGL LOG][Proc: 0]p: solve: 209.553 [ms]
[OGL LOG][Proc: 0]p: copy_x_back: 0.144 [ms]
[OGL LOG][lduLduBase.H:330] 
Statistics:
	Time per iteration: 745 [mu s]
	Time per residual norm calculation: 135.000000 [mu s]
	Time per iteration and DOF: 0.745000 [ns]
	Retrieve results bandwidth 1.736000 [GByte/s]
[OGL LOG][Proc: 0]p: solve_multi_gpu: 212.512 [ms]
BJhipGKOCG:  Solving for p, Initial residual = 0.00906641, Final residual = 9.53906e-05, No Iterations 281
piso step 216.41 [ms]
 contErrors 
time step continuity errors : sum local = 1.36399e-08, global = 2.64309e-21, cumulative = -5.81763e-20
ExecutionTime = 16.18 s  ClockTime = 16 s

Time = 0.0095

Courant Number mean: 0.0726827 max: 0.478315
momentum setup 3.499 [ms]
DILUPBiCGStab:  Solving for Ux, Initial residual = 0.00395268, Final residual = 1.32704e-05, No Iterations 5
DILUPBiCGStab:  Solving for Uy, Initial residual = 0.00851565, Final residual = 2.41955e-05, No Iterations 5
DILUPBiCGStab:  Solving for Uz, Initial residual = 0.0177556, Final residual = 6.09241e-05, No Iterations 5
piso setup 5.835 [ms]
 correctNonOrthogonal 
 setRef 
 startSolve 
[OGL LOG][Proc: 0]: global_index_init: 0.059 [ms]
[OGL LOG][Proc: 0]p_local_coeffs: call_update: 0 [ms]
[OGL LOG][Proc: 0]p_non_local_coeffs: call_update: 0 [ms]
[OGL LOG][Proc: 0]p: update_local_matrix_data: 0.512 [ms]
[OGL LOG][Proc: 0]p: update_non_local_matrix_data: 0.019 [ms]
[OGL LOG][Proc: 0]p_matrix: call_update: 1.716 [ms]
[OGL LOG][Proc: 0]p_rhs: call_update: 0.443 [ms]
[OGL LOG][Preconditioner.H:121] Generate preconditioner BJ MaxBlockSize 1
[OGL LOG][Proc: 0]p: init_precond: 0.135 [ms]
[OGL LOG][StoppingCriterion.H:373] Creating stopping criterion with minIter 168 frequency 4
[OGL LOG][Proc: 0]p: generate_solver: 0.002 [ms]
[OGL LOG][Proc: 0]p: solve: 206.573 [ms]
[OGL LOG][Proc: 0]p: copy_x_back: 0.194 [ms]
[OGL LOG][lduLduBase.H:330] 
Statistics:
	Time per iteration: 695 [mu s]
	Time per residual norm calculation: 135.000000 [mu s]
	Time per iteration and DOF: 0.695000 [ns]
	Retrieve results bandwidth 1.288000 [GByte/s]
[OGL LOG][Proc: 0]p: solve_multi_gpu: 209.716 [ms]
BJhipGKOCG:  Solving for p, Initial residual = 0.00880381, Final residual = 9.75447e-05, No Iterations 297
piso step 213.695 [ms]
 contErrors 
time step continuity errors : sum local = 1.49086e-08, global = 1.05927e-20, cumulative = -4.75837e-20
piso setup 5.753 [ms]
 correctNonOrthogonal 
 setRef 
 startSolve 
[OGL LOG][Proc: 0]: global_index_init: 0.046 [ms]
[OGL LOG][Proc: 0]p_local_coeffs: call_update: 0 [ms]
[OGL LOG][Proc: 0]p_non_local_coeffs: call_update: 0 [ms]
[OGL LOG][Proc: 0]p: update_local_matrix_data: 0.763 [ms]
[OGL LOG][Proc: 0]p: update_non_local_matrix_data: 0.024 [ms]
[OGL LOG][Proc: 0]p_matrix: call_update: 1.986 [ms]
[OGL LOG][Proc: 0]p_rhs: call_update: 0.069 [ms]
[OGL LOG][Preconditioner.H:121] Generate preconditioner BJ MaxBlockSize 1
[OGL LOG][Proc: 0]p: init_precond: 0.137 [ms]
[OGL LOG][StoppingCriterion.H:373] Creating stopping criterion with minIter 178 frequency 4
[OGL LOG][Proc: 0]p: generate_solver: 0.001 [ms]
[OGL LOG][Proc: 0]p: solve: 163.581 [ms]
[OGL LOG][Proc: 0]p: copy_x_back: 0.151 [ms]
[OGL LOG][lduLduBase.H:330] 
Statistics:
	Time per iteration: 573 [mu s]
	Time per residual norm calculation: 135.000000 [mu s]
	Time per iteration and DOF: 0.573000 [ns]
	Retrieve results bandwidth 1.655000 [GByte/s]
[OGL LOG][Proc: 0]p: solve_multi_gpu: 166.169 [ms]
BJhipGKOCG:  Solving for p, Initial residual = 0.00833527, Final residual = 9.5865e-05, No Iterations 285
piso step 170.041 [ms]
 contErrors 
time step continuity errors : sum local = 1.37361e-08, global = -1.05604e-20, cumulative = -5.81441e-20
ExecutionTime = 16.62 s  ClockTime = 16 s

Time = 0.01

Courant Number mean: 0.0737004 max: 0.478693
momentum setup 3.839 [ms]
DILUPBiCGStab:  Solving for Ux, Initial residual = 0.00367715, Final residual = 1.23636e-05, No Iterations 5
DILUPBiCGStab:  Solving for Uy, Initial residual = 0.00795591, Final residual = 2.25726e-05, No Iterations 5
DILUPBiCGStab:  Solving for Uz, Initial residual = 0.0166239, Final residual = 6.02086e-05, No Iterations 5
piso setup 5.907 [ms]
 correctNonOrthogonal 
 setRef 
 startSolve 
[OGL LOG][Proc: 0]: global_index_init: 0.055 [ms]
[OGL LOG][Proc: 0]p_local_coeffs: call_update: 0 [ms]
[OGL LOG][Proc: 0]p_non_local_coeffs: call_update: 0 [ms]
[OGL LOG][Proc: 0]p: update_local_matrix_data: 0.547 [ms]
[OGL LOG][Proc: 0]p: update_non_local_matrix_data: 0.017 [ms]
[OGL LOG][Proc: 0]p_matrix: call_update: 2.065 [ms]
[OGL LOG][Proc: 0]p_rhs: call_update: 0.243 [ms]
[OGL LOG][Preconditioner.H:121] Generate preconditioner BJ MaxBlockSize 1
[OGL LOG][Proc: 0]p: init_precond: 0.134 [ms]
[OGL LOG][StoppingCriterion.H:373] Creating stopping criterion with minIter 171 frequency 5
[OGL LOG][Proc: 0]p: generate_solver: 0.002 [ms]
[OGL LOG][Proc: 0]p: solve: 174.509 [ms]
[OGL LOG][Proc: 0]p: copy_x_back: 0.146 [ms]
[OGL LOG][lduLduBase.H:330] 
Statistics:
	Time per iteration: 579 [mu s]
	Time per residual norm calculation: 139.000000 [mu s]
	Time per iteration and DOF: 0.579000 [ns]
	Retrieve results bandwidth 1.712000 [GByte/s]
[OGL LOG][Proc: 0]p: solve_multi_gpu: 177.408 [ms]
BJhipGKOCG:  Solving for p, Initial residual = 0.00830315, Final residual = 9.24125e-05, No Iterations 301
piso step 180.884 [ms]
 contErrors 
time step continuity errors : sum local = 1.44391e-08, global = 1.20245e-20, cumulative = -4.61196e-20
piso setup 5.738 [ms]
 correctNonOrthogonal 
 setRef 
 startSolve 
[OGL LOG][Proc: 0]: global_index_init: 0.048 [ms]
[OGL LOG][Proc: 0]p_local_coeffs: call_update: 0 [ms]
[OGL LOG][Proc: 0]p_non_local_coeffs: call_update: 0 [ms]
[OGL LOG][Proc: 0]p: update_local_matrix_data: 0.757 [ms]
[OGL LOG][Proc: 0]p: update_non_local_matrix_data: 0.019 [ms]
[OGL LOG][Proc: 0]p_matrix: call_update: 2.16 [ms]
[OGL LOG][Proc: 0]p_rhs: call_update: 0.232 [ms]
[OGL LOG][Preconditioner.H:121] Generate preconditioner BJ MaxBlockSize 1
[OGL LOG][Proc: 0]p: init_precond: 0.126 [ms]
[OGL LOG][StoppingCriterion.H:373] Creating stopping criterion with minIter 180 frequency 5
[OGL LOG][Proc: 0]p: generate_solver: 0.002 [ms]
[OGL LOG][Proc: 0]p: solve: 177.228 [ms]
[OGL LOG][Proc: 0]p: copy_x_back: 0.162 [ms]
[OGL LOG][lduLduBase.H:330] 
Statistics:
	Time per iteration: 609 [mu s]
	Time per residual norm calculation: 135.000000 [mu s]
	Time per iteration and DOF: 0.609000 [ns]
	Retrieve results bandwidth 1.543000 [GByte/s]
[OGL LOG][Proc: 0]p: solve_multi_gpu: 180.16 [ms]
BJhipGKOCG:  Solving for p, Initial residual = 0.00788632, Final residual = 9.93286e-05, No Iterations 291
piso step 183.984 [ms]
 contErrors 
time step continuity errors : sum local = 1.43813e-08, global = -1.00404e-21, cumulative = -4.71236e-20
ExecutionTime = 17.05 s  ClockTime = 17 s

End

Finalising parallel run
