/*---------------------------------------------------------------------------*\
| =========                 |                                                 |
| \\      /  F ield         | OpenFOAM: The Open Source CFD Toolbox           |
|  \\    /   O peration     | Version:  2306                                  |
|   \\  /    A nd           | Website:  www.openfoam.com                      |
|    \\/     M anipulation  |                                                 |
\*---------------------------------------------------------------------------*/
Build  : a6e826bd55-20230630 OPENFOAM=2306 version=v2306
Arch   : "LSB;label=32;scalar=64"
Exec   : simpleFoam -parallel -case /home/greole/data/code/exasim_project/micro_benchmarks/WindsorBody/workspace/7d1e4e748c7e839be606b73aaa599e73/case
Date   : Aug 27 2023
Time   : 13:35:37
Host   : nla-gpu2.ianm.kit.edu
PID    : 3067804
I/O    : uncollated
Case   : /home/greole/data/code/exasim_project/micro_benchmarks/WindsorBody/workspace/7d1e4e748c7e839be606b73aaa599e73/case
nProcs : 16
Hosts  :
(
    (nla-gpu2.ianm.kit.edu 16)
)
Pstream initialized with:
    floatTransfer      : false
    nProcsSimpleSum    : 0
    nonBlockingExchange: 0 (tuning: 0)
    exchange algorithm : -1
    commsType          : nonBlocking
    polling iterations : 0
trapFpe: Floating point exception trapping enabled (FOAM_SIGFPE).
fileModificationChecking : Monitoring run-time modified files using timeStampMaster (fileModificationSkew 5, maxFileModificationPolls 20)
allowSystemOperations : Allowing user-supplied system call operations

// * * * * * * * * * * * * * * * * * * * * * * * * * * * * * * * * * * * * * //
Create time

--> FOAM Warning : 
    From void* Foam::dlLibraryTable::openLibrary(const Foam::fileName&, bool)
    in file db/dynamicLibrary/dlLibraryTable/dlLibraryTable.C at line 188
    Could not load "libpetscFoam.so"
libpetscFoam.so: cannot open shared object file: No such file or directory
Create mesh for time = 0


SIMPLE: convergence criteria
    field p	 tolerance 1e-08
    field U	 tolerance 1e-08
    field k	 tolerance 1e-08
    field omega	 tolerance 1e-08
    field nuTilda	 tolerance 1e-08

Reading field p

Reading field U

Reading/calculating face flux field phi

Selecting incompressible transport model Newtonian
Selecting turbulence model type RAS
Selecting RAS turbulence model SpalartAllmaras
Selecting patchDistMethod meshWave
ft2 term: inactive
RAS
{
    RASModel        SpalartAllmaras;
    turbulence      on;
    printCoeffs     on;
    sigmaNut        0.66666;
    kappa           0.41;
    Cb1             0.1355;
    Cb2             0.622;
    Cw2             0.3;
    Cw3             2;
    Cv1             7.1;
    Cs              0.3;
    ck              0.07000000000000001;
    ft2             false;
    Ct3             1.2;
    Ct4             0.5;
}

No MRF models present

Creating finite volume options from "system/fvOptions"

Selecting finite volume options type velocityDampingConstraint
    Source: velocityDamping
    - selecting all cells
    - selected 50457088 cell(s) with volume 222.6066441268596

Starting time loop

--> FOAM Warning : 
    From bool Foam::functionObjectList::read()
    in file db/functionObjects/functionObjectList/functionObjectList.C at line 1035
    Reading "system/controlDict" at line 2 to 41
    Entry 'lref' is not a dictionary
--> FOAM Warning : 
    From bool Foam::functionObjectList::read()
    in file db/functionObjects/functionObjectList/functionObjectList.C at line 1035
    Reading "system/controlDict" at line 2 to 41
    Entry 'Aref' is not a dictionary
--> FOAM Warning : 
    From bool Foam::functionObjectList::read()
    in file db/functionObjects/functionObjectList/functionObjectList.C at line 1035
    Reading "system/controlDict" at line 2 to 41
    Entry 'yawAngle' is not a dictionary
--> FOAM Warning : 
    From bool Foam::functionObjectList::read()
    in file db/functionObjects/functionObjectList/functionObjectList.C at line 1035
    Reading "system/controlDict" at line 2 to 41
    Entry 'lDomain' is not a dictionary
--> FOAM Warning : 
    From bool Foam::functionObjectList::read()
    in file db/functionObjects/functionObjectList/functionObjectList.C at line 1035
    Reading "system/controlDict" at line 2 to 41
    Entry 'bDomain' is not a dictionary
--> FOAM Warning : 
    From bool Foam::functionObjectList::read()
    in file db/functionObjects/functionObjectList/functionObjectList.C at line 1035
    Reading "system/controlDict" at line 2 to 41
    Entry 'hDomain' is not a dictionary
--> FOAM Warning : 
    From bool Foam::functionObjectList::read()
    in file db/functionObjects/functionObjectList/functionObjectList.C at line 1035
    Reading "system/controlDict" at line 2 to 41
    Entry 'xCenter' is not a dictionary
--> FOAM Warning : 
    From bool Foam::functionObjectList::read()
    in file db/functionObjects/functionObjectList/functionObjectList.C at line 1035
    Reading "system/controlDict" at line 2 to 41
    Entry 'yCenter' is not a dictionary
--> FOAM Warning : 
    From bool Foam::functionObjectList::read()
    in file db/functionObjects/functionObjectList/functionObjectList.C at line 1035
    Reading "system/controlDict" at line 2 to 41
    Entry 'zCenter' is not a dictionary
--> FOAM Warning : 
    From bool Foam::functionObjectList::read()
    in file db/functionObjects/functionObjectList/functionObjectList.C at line 1035
    Reading "system/controlDict" at line 2 to 41
    Entry 'inletPatch' is not a dictionary
--> FOAM Warning : 
    From bool Foam::functionObjectList::read()
    in file db/functionObjects/functionObjectList/functionObjectList.C at line 1035
    Reading "system/controlDict" at line 2 to 41
    Entry 'outletPatch' is not a dictionary
--> FOAM Warning : 
    From bool Foam::functionObjectList::read()
    in file db/functionObjects/functionObjectList/functionObjectList.C at line 1035
    Reading "system/controlDict" at line 2 to 41
    Entry 'wallPatches' is not a dictionary
--> FOAM Warning : 
    From bool Foam::functionObjectList::read()
    in file db/functionObjects/functionObjectList/functionObjectList.C at line 1035
    Reading "system/controlDict" at line 2 to 41
    Entry 'forcesWallPatches' is not a dictionary
--> FOAM Warning : 
    From bool Foam::functionObjectList::read()
    in file db/functionObjects/functionObjectList/functionObjectList.C at line 1035
    Reading "system/controlDict" at line 2 to 41
    Entry 'symmPatches' is not a dictionary
--> FOAM Warning : 
    From bool Foam::functionObjectList::read()
    in file db/functionObjects/functionObjectList/functionObjectList.C at line 1035
    Reading "system/controlDict" at line 2 to 41
    Entry 'Uinf' is not a dictionary
--> FOAM Warning : 
    From bool Foam::functionObjectList::read()
    in file db/functionObjects/functionObjectList/functionObjectList.C at line 1035
    Reading "system/controlDict" at line 2 to 41
    Entry 'UinfMag' is not a dictionary
--> FOAM Warning : 
    From bool Foam::functionObjectList::read()
    in file db/functionObjects/functionObjectList/functionObjectList.C at line 1035
    Reading "system/controlDict" at line 2 to 41
    Entry 'nu' is not a dictionary
--> FOAM Warning : 
    From bool Foam::functionObjectList::read()
    in file db/functionObjects/functionObjectList/functionObjectList.C at line 1035
    Reading "system/controlDict" at line 2 to 41
    Entry 'pref' is not a dictionary
--> FOAM Warning : 
    From bool Foam::functionObjectList::read()
    in file db/functionObjects/functionObjectList/functionObjectList.C at line 1035
    Reading "system/controlDict" at line 2 to 41
    Entry 'viscRatio' is not a dictionary
--> FOAM Warning : 
    From bool Foam::functionObjectList::read()
    in file db/functionObjects/functionObjectList/functionObjectList.C at line 1035
    Reading "system/controlDict" at line 2 to 41
    Entry 'Tu' is not a dictionary
--> FOAM Warning : 
    From bool Foam::functionObjectList::read()
    in file db/functionObjects/functionObjectList/functionObjectList.C at line 1035
    Reading "system/controlDict" at line 2 to 41
    Entry 'LESturbModel' is not a dictionary
--> FOAM Warning : 
    From bool Foam::functionObjectList::read()
    in file db/functionObjects/functionObjectList/functionObjectList.C at line 1035
    Reading "system/controlDict" at line 2 to 41
    Entry 'RASturbModel' is not a dictionary
--> FOAM Warning : 
    From bool Foam::functionObjectList::read()
    in file db/functionObjects/functionObjectList/functionObjectList.C at line 1035
    Reading "system/controlDict" at line 2 to 41
    Entry 'deltaTurb' is not a dictionary
--> FOAM Warning : 
    From bool Foam::functionObjectList::read()
    in file db/functionObjects/functionObjectList/functionObjectList.C at line 1035
    Reading "system/controlDict" at line 2 to 41
    Entry 'dt' is not a dictionary
--> FOAM Warning : 
    From bool Foam::functionObjectList::read()
    in file db/functionObjects/functionObjectList/functionObjectList.C at line 1035
    Reading "system/controlDict" at line 2 to 41
    Entry 'tAvg' is not a dictionary
--> FOAM Warning : 
    From bool Foam::functionObjectList::read()
    in file db/functionObjects/functionObjectList/functionObjectList.C at line 1035
    Reading "system/controlDict" at line 2 to 41
    Entry 'tEnd' is not a dictionary
--> FOAM Warning : 
    From bool Foam::functionObjectList::read()
    in file db/functionObjects/functionObjectList/functionObjectList.C at line 1035
    Reading "system/controlDict" at line 2 to 41
    Entry 'writeInterval_' is not a dictionary
--> FOAM Warning : 
    From bool Foam::functionObjectList::read()
    in file db/functionObjects/functionObjectList/functionObjectList.C at line 1035
    Reading "system/controlDict" at line 2 to 41
    Entry 'nCores' is not a dictionary
--> FOAM Warning : 
    From bool Foam::functionObjectList::read()
    in file db/functionObjects/functionObjectList/functionObjectList.C at line 1035
    Reading "system/controlDict" at line 2 to 41
    Entry 'interpScheme' is not a dictionary
--> FOAM Warning : 
    From bool Foam::functionObjectList::read()
    in file db/functionObjects/functionObjectList/functionObjectList.C at line 1035
    Reading "system/controlDict" at line 2 to 41
    Entry 'probeField' is not a dictionary
wallShearStress wallShearStress:
    processing wall patches: 
        Windsor_Body
        CFDWT_Floor
        Windsor_Pins
        Windsor_Base
        Windsor_Body_2
        CFDWT_Floor_2
        Windsor_Pins_2
        Windsor_Base_2
        Windsor_Body_3
        CFDWT_Floor_3
        Windsor_Pins_3
        Windsor_Base_3
        Windsor_Body_4
        CFDWT_Floor_4
        Windsor_Pins_4
        Windsor_Base_4
        Windsor_Body_5
        CFDWT_Floor_5
        Windsor_Pins_5
        Windsor_Base_5
        Windsor_Body_6
        CFDWT_Floor_6
        Windsor_Pins_6
        Windsor_Base_6
        Windsor_Body_7
        CFDWT_Floor_7
        Windsor_Pins_7
        Windsor_Base_7
        Windsor_Body_8
        CFDWT_Floor_8
        Windsor_Pins_8
        Windsor_Base_8

pressure calc_cp:
    Operating mode: staticCoeff
    Not including hydrostatic effects

forceCoeffs forceCoeffsAll:
    rho: rhoInf
    Freestream density (rhoInf) set to 1
    Not including porosity effects
    magUInf: 40
    lRef   : 0.6375
    Aref   : 0.1124
    rhoInf : 1
    Selecting all coefficients
    - Drag force: Cd
    - Drag force front: Cd(f)
    - Drag force rear: Cd(r)
    - Lift force: Cl
    - Lift force front: Cl(f)
    - Lift force rear: Cl(r)
    - Pitch moment: CmPitch
    - Roll moment: CmRoll
    - Yaw moment: CmYaw
    - Side force: Cs
    - Side force front: Cs(f)
    - Side force rear: Cs(r)


forceCoeffs dragCoeffBase:
    rho: rhoInf
    Freestream density (rhoInf) set to 1
    Not including porosity effects
    magUInf: 40
    lRef   : 0.6375
    Aref   : 0.1124
    rhoInf : 1
    Selecting coefficients:
    - Drag force: Cd


Time = 1

velocityDampingConstraint velocityDamping damped 0 (0%) of cells, with max limit 300
[INFO] MatrixAssemblyU: 4480.28 [ms]
smoothSolver:  Solving for Ux, Initial residual = 0.9999999999992707, Final residual = 0.08730578115069276, No Iterations 15
smoothSolver:  Solving for Uy, Initial residual = 1, Final residual = 0.08967552546614814, No Iterations 31
smoothSolver:  Solving for Uz, Initial residual = 1, Final residual = 0.03285817547784978, No Iterations 2
[INFO] MomentumPredictor: 4534.596 [ms]
[INFO] MatrixAssemblyPI: 712.1369999999999 [ms]
[INFO] MatrixAssemblyPII: 347.198 [ms]
DICPCG:  Solving for p, Initial residual = 1, Final residual = 0.009923382053073649, No Iterations 420
[INFO] SolveP: 43166.427 [ms]
time step continuity errors : sum local = 0.003640935012489186, global = 8.262980338839864e-05, cumulative = 8.262980338839864e-05
[INFO] postSolveP: 186.809 [ms]
smoothSolver:  Solving for nuTilda, Initial residual = 0.9999999962241544, Final residual = 0.06428822225267178, No Iterations 3
[INFO] TimeStep: 56163.009 [ms]
ExecutionTime = 118.42 s  ClockTime = 118 s

--> FOAM Warning : 
    From virtual bool Foam::functionObjects::fieldSelection::checkSelection()
    in file functionObjects/fieldSelections/fieldSelection/fieldSelection.C at line 166
    Field k not found
--> FOAM Warning : 
    From virtual bool Foam::functionObjects::fieldSelection::checkSelection()
    in file functionObjects/fieldSelections/fieldSelection/fieldSelection.C at line 166
    Field gammaInt not found
--> FOAM Warning : 
    From virtual bool Foam::functionObjects::fieldSelection::checkSelection()
    in file functionObjects/fieldSelections/fieldSelection/fieldSelection.C at line 166
    Field omega not found
--> FOAM Warning : 
    From virtual bool Foam::functionObjects::fieldSelection::checkSelection()
    in file functionObjects/fieldSelections/fieldSelection/fieldSelection.C at line 166
    Field ReThetat not found
--> FOAM Warning : 
    From virtual bool Foam::functionObjects::fieldSelection::checkSelection()
    in file functionObjects/fieldSelections/fieldSelection/fieldSelection.C at line 166
    Field epsilon not found
--> FOAM Warning : 
    From virtual bool Foam::functionObjects::solverFieldSelection::updateSelection()
    in file functionObjects/fieldSelections/solverFieldSelection/solverFieldSelection.C at line 85
    Valid solver fields are: 3(U nuTilda p)Time = 2

velocityDampingConstraint velocityDamping damped 0 (0%) of cells, with max limit 300
[INFO] MatrixAssemblyU: 4333.313 [ms]
smoothSolver:  Solving for Ux, Initial residual = 0.213082854325188, Final residual = 0.01839827049793161, No Iterations 13
smoothSolver:  Solving for Uy, Initial residual = 0.3543350788519272, Final residual = 0.03300152386992468, No Iterations 13
smoothSolver:  Solving for Uz, Initial residual = 0.3287654883460556, Final residual = 0.02812554905680267, No Iterations 13
[INFO] MomentumPredictor: 3771.51 [ms]
[INFO] MatrixAssemblyPI: 714.806 [ms]
[INFO] MatrixAssemblyPII: 346.175 [ms]
DICPCG:  Solving for p, Initial residual = 0.2097866320858616, Final residual = 0.002095399189587228, No Iterations 339
[INFO] SolveP: 35144.925 [ms]
time step continuity errors : sum local = 0.04294519565214322, global = 0.001752208915609566, cumulative = 0.001834838718997964
[INFO] postSolveP: 185.651 [ms]
smoothSolver:  Solving for nuTilda, Initial residual = 0.4060170231085282, Final residual = 0.02532715181937322, No Iterations 1
[INFO] TimeStep: 47113.771 [ms]
ExecutionTime = 168.85 s  ClockTime = 169 s

Time = 3

velocityDampingConstraint velocityDamping damped 6644 (0.01%) of cells, with max limit 300
[INFO] MatrixAssemblyU: 4464.541 [ms]
smoothSolver:  Solving for Ux, Initial residual = 0.1247593944624481, Final residual = 0.01177000107475495, No Iterations 9
smoothSolver:  Solving for Uy, Initial residual = 0.205466096332449, Final residual = 0.01964242428172277, No Iterations 10
smoothSolver:  Solving for Uz, Initial residual = 0.2190715869957517, Final residual = 0.02141330460026763, No Iterations 9
[INFO] MomentumPredictor: 2884.5 [ms]
[INFO] MatrixAssemblyPI: 712.4349999999999 [ms]
[INFO] MatrixAssemblyPII: 347.99 [ms]
DICPCG:  Solving for p, Initial residual = 0.1187912087825052, Final residual = 0.001175050443610752, No Iterations 187
[INFO] SolveP: 19337.704 [ms]
time step continuity errors : sum local = 0.01312044969866337, global = -0.000956720430061141, cumulative = 0.0008781182889368234
[INFO] postSolveP: 186.719 [ms]
smoothSolver:  Solving for nuTilda, Initial residual = 0.2090960534912886, Final residual = 0.01313018943102427, No Iterations 2
[INFO] TimeStep: 30630.447 [ms]
ExecutionTime = 202.95 s  ClockTime = 203 s

Time = 4

velocityDampingConstraint velocityDamping damped 0 (0%) of cells, with max limit 300
[INFO] MatrixAssemblyU: 4449.204 [ms]
smoothSolver:  Solving for Ux, Initial residual = 0.05384393901704958, Final residual = 0.004959169805266129, No Iterations 11
smoothSolver:  Solving for Uy, Initial residual = 0.1227446336946845, Final residual = 0.01101972823708621, No Iterations 11
smoothSolver:  Solving for Uz, Initial residual = 0.1338373546722024, Final residual = 0.01309431096589076, No Iterations 10
[INFO] MomentumPredictor: 3208.101 [ms]
[INFO] MatrixAssemblyPI: 713.1 [ms]
[INFO] MatrixAssemblyPII: 346.913 [ms]
DICPCG:  Solving for p, Initial residual = 0.135101300659503, Final residual = 0.001344735825081638, No Iterations 108
[INFO] SolveP: 11245.278 [ms]
time step continuity errors : sum local = 0.01337909016690337, global = -0.002056070714756479, cumulative = -0.001177952425819656
[INFO] postSolveP: 185.68 [ms]
smoothSolver:  Solving for nuTilda, Initial residual = 0.1246955791063986, Final residual = 0.01050194698986905, No Iterations 2
[INFO] TimeStep: 22827.173 [ms]
ExecutionTime = 229.27 s  ClockTime = 230 s

Time = 5

velocityDampingConstraint velocityDamping damped 899 (0%) of cells, with max limit 300
[INFO] MatrixAssemblyU: 4419.044 [ms]
smoothSolver:  Solving for Ux, Initial residual = 0.04370952190282224, Final residual = 0.004194812692288188, No Iterations 10
smoothSolver:  Solving for Uy, Initial residual = 0.09771462495738152, Final residual = 0.009310076829475098, No Iterations 11
smoothSolver:  Solving for Uz, Initial residual = 0.1135866295233075, Final residual = 0.009566625071445442, No Iterations 11
[INFO] MomentumPredictor: 3213.476 [ms]
[INFO] MatrixAssemblyPI: 712.015 [ms]
[INFO] MatrixAssemblyPII: 346.952 [ms]
DICPCG:  Solving for p, Initial residual = 0.09736279034911458, Final residual = 0.0009532020953444845, No Iterations 230
[INFO] SolveP: 23802.132 [ms]
time step continuity errors : sum local = 0.007526691721573765, global = -0.0002289762183552497, cumulative = -0.001406928644174906
[INFO] postSolveP: 185.348 [ms]
smoothSolver:  Solving for nuTilda, Initial residual = 0.07087632200833613, Final residual = 0.0043087262961927, No Iterations 3
[INFO] TimeStep: 35422.187 [ms]
ExecutionTime = 268.1 s  ClockTime = 269 s

Time = 6

velocityDampingConstraint velocityDamping damped 0 (0%) of cells, with max limit 300
[INFO] MatrixAssemblyU: 4412.666 [ms]
smoothSolver:  Solving for Ux, Initial residual = 0.02995203025210201, Final residual = 0.002655580113686602, No Iterations 12
smoothSolver:  Solving for Uy, Initial residual = 0.0745676426781632, Final residual = 0.006865830784245027, No Iterations 12
smoothSolver:  Solving for Uz, Initial residual = 0.08079527568638503, Final residual = 0.006860784367410314, No Iterations 12
[INFO] MomentumPredictor: 3539.481 [ms]
[INFO] MatrixAssemblyPI: 712.0599999999999 [ms]
[INFO] MatrixAssemblyPII: 347.896 [ms]
DICPCG:  Solving for p, Initial residual = 0.09762355661062751, Final residual = 0.0009652205852719834, No Iterations 137
[INFO] SolveP: 14202.119 [ms]
time step continuity errors : sum local = 0.00702311167321579, global = 0.0006177058997534737, cumulative = -0.000789222744421432
[INFO] postSolveP: 185.945 [ms]
smoothSolver:  Solving for nuTilda, Initial residual = 0.06429665063759653, Final residual = 0.003002348639528632, No Iterations 3
[INFO] TimeStep: 26131.601 [ms]
ExecutionTime = 297.67 s  ClockTime = 298 s

Time = 7

velocityDampingConstraint velocityDamping damped 118 (0%) of cells, with max limit 300
[INFO] MatrixAssemblyU: 4363.492 [ms]
smoothSolver:  Solving for Ux, Initial residual = 0.02724165234099897, Final residual = 0.002430159372876212, No Iterations 12
smoothSolver:  Solving for Uy, Initial residual = 0.0674699959778471, Final residual = 0.006376378560871251, No Iterations 12
smoothSolver:  Solving for Uz, Initial residual = 0.07098404091395846, Final residual = 0.006186137030903807, No Iterations 12
[INFO] MomentumPredictor: 3526.819 [ms]
[INFO] MatrixAssemblyPI: 712.117 [ms]
[INFO] MatrixAssemblyPII: 348.168 [ms]
DICPCG:  Solving for p, Initial residual = 0.08321381678190927, Final residual = 0.0008292076131559286, No Iterations 122
[INFO] SolveP: 12692.015 [ms]
time step continuity errors : sum local = 0.006049127299298207, global = 0.0008183374226433931, cumulative = 2.911467822196113e-05
[INFO] postSolveP: 186.36 [ms]
smoothSolver:  Solving for nuTilda, Initial residual = 0.0490994803365979, Final residual = 0.003229529000785463, No Iterations 3
[INFO] TimeStep: 24558.248 [ms]
ExecutionTime = 325.62 s  ClockTime = 326 s

Time = 8

velocityDampingConstraint velocityDamping damped 0 (0%) of cells, with max limit 300
[INFO] MatrixAssemblyU: 4342.18 [ms]
smoothSolver:  Solving for Ux, Initial residual = 0.02311110419961827, Final residual = 0.002138194227157401, No Iterations 12
smoothSolver:  Solving for Uy, Initial residual = 0.05986404560465516, Final residual = 0.005872726951393195, No Iterations 12
smoothSolver:  Solving for Uz, Initial residual = 0.06175224052254018, Final residual = 0.005575514226665529, No Iterations 12
[INFO] MomentumPredictor: 3538.463 [ms]
[INFO] MatrixAssemblyPI: 713.004 [ms]
[INFO] MatrixAssemblyPII: 348.045 [ms]
DICPCG:  Solving for p, Initial residual = 0.07509697583501053, Final residual = 0.0007424497659207275, No Iterations 117
[INFO] SolveP: 12163.698 [ms]
time step continuity errors : sum local = 0.005524129430717999, global = 0.0009619509034963337, cumulative = 0.0009910655817182948
[INFO] postSolveP: 186.185 [ms]
smoothSolver:  Solving for nuTilda, Initial residual = 0.06542149459939751, Final residual = 0.005859496642486845, No Iterations 2
[INFO] TimeStep: 23941.534 [ms]
ExecutionTime = 352.95 s  ClockTime = 354 s

Time = 9

velocityDampingConstraint velocityDamping damped 0 (0%) of cells, with max limit 300
[INFO] MatrixAssemblyU: 4335.498 [ms]
smoothSolver:  Solving for Ux, Initial residual = 0.02035280760754119, Final residual = 0.001899886629492932, No Iterations 12
smoothSolver:  Solving for Uy, Initial residual = 0.05411666781375078, Final residual = 0.005393017079456703, No Iterations 12
smoothSolver:  Solving for Uz, Initial residual = 0.05502169262861817, Final residual = 0.005110127546084343, No Iterations 12
[INFO] MomentumPredictor: 3540.071 [ms]
[INFO] MatrixAssemblyPI: 712.182 [ms]
[INFO] MatrixAssemblyPII: 347.116 [ms]
DICPCG:  Solving for p, Initial residual = 0.06841223842356105, Final residual = 0.0006812021886813253, No Iterations 117
[INFO] SolveP: 12200.613 [ms]
time step continuity errors : sum local = 0.00514820104305537, global = 0.001146656669605334, cumulative = 0.002137722251323629
[INFO] postSolveP: 186.118 [ms]
smoothSolver:  Solving for nuTilda, Initial residual = 0.04412800449112436, Final residual = 0.003201016757450238, No Iterations 3
[INFO] TimeStep: 24047.587 [ms]
ExecutionTime = 380.37 s  ClockTime = 381 s

Time = 10

velocityDampingConstraint velocityDamping damped 0 (0%) of cells, with max limit 300
[INFO] MatrixAssemblyU: 4333.444 [ms]
smoothSolver:  Solving for Ux, Initial residual = 0.01833976592729307, Final residual = 0.001725448413870239, No Iterations 12
smoothSolver:  Solving for Uy, Initial residual = 0.0499821712934078, Final residual = 0.004974254866846539, No Iterations 12
smoothSolver:  Solving for Uz, Initial residual = 0.05043910419511975, Final residual = 0.004749551109026466, No Iterations 12
[INFO] MomentumPredictor: 3541.825 [ms]
[INFO] MatrixAssemblyPI: 713.463 [ms]
[INFO] MatrixAssemblyPII: 349.334 [ms]
DICPCG:  Solving for p, Initial residual = 0.06205803394211011, Final residual = 0.0006156813696751215, No Iterations 227
[INFO] SolveP: 23460.478 [ms]
time step continuity errors : sum local = 0.004645280240970793, global = 0.0001224875859192538, cumulative = 0.002260209837242883
[INFO] postSolveP: 185.317 [ms]
smoothSolver:  Solving for nuTilda, Initial residual = 0.06973530691468637, Final residual = 0.005487460502428818, No Iterations 2
[INFO] TimeStep: 35229.601 [ms]
ExecutionTime = 418.94 s  ClockTime = 420 s

Time = 11

velocityDampingConstraint velocityDamping damped 0 (0%) of cells, with max limit 300
[INFO] MatrixAssemblyU: 4333.539 [ms]
smoothSolver:  Solving for Ux, Initial residual = 0.01672993228597084, Final residual = 0.001600632429220857, No Iterations 12
smoothSolver:  Solving for Uy, Initial residual = 0.04751525378548821, Final residual = 0.004700149594571371, No Iterations 12
smoothSolver:  Solving for Uz, Initial residual = 0.04753448105913072, Final residual = 0.004515768290248236, No Iterations 12
[INFO] MomentumPredictor: 3554.168 [ms]
[INFO] MatrixAssemblyPI: 714.0890000000001 [ms]
[INFO] MatrixAssemblyPII: 347.327 [ms]
DICPCG:  Solving for p, Initial residual = 0.05451433536251076, Final residual = 0.0005446209653267392, No Iterations 106
[INFO] SolveP: 11058.99 [ms]
time step continuity errors : sum local = 0.004358327969165111, global = -0.0005037156136947238, cumulative = 0.001756494223548159
[INFO] postSolveP: 185.376 [ms]
smoothSolver:  Solving for nuTilda, Initial residual = 0.03912616449671671, Final residual = 0.003025873977216475, No Iterations 3
[INFO] TimeStep: 22914.458 [ms]
ExecutionTime = 445.22 s  ClockTime = 446 s

Time = 12

velocityDampingConstraint velocityDamping damped 0 (0%) of cells, with max limit 300
[INFO] MatrixAssemblyU: 4322.832 [ms]
smoothSolver:  Solving for Ux, Initial residual = 0.01551218463372832, Final residual = 0.0015130236532198, No Iterations 12
smoothSolver:  Solving for Uy, Initial residual = 0.04523375324385283, Final residual = 0.004434299445306716, No Iterations 12
smoothSolver:  Solving for Uz, Initial residual = 0.044747673023031, Final residual = 0.004268268990231909, No Iterations 12
[INFO] MomentumPredictor: 3541.81 [ms]
[INFO] MatrixAssemblyPI: 712.205 [ms]
[INFO] MatrixAssemblyPII: 347.818 [ms]
DICPCG:  Solving for p, Initial residual = 0.05164548096146021, Final residual = 0.0005141105966194484, No Iterations 112
[INFO] SolveP: 11656.897 [ms]
time step continuity errors : sum local = 0.004063120961824753, global = -0.000686600862799286, cumulative = 0.001069893360748873
[INFO] postSolveP: 185.881 [ms]
smoothSolver:  Solving for nuTilda, Initial residual = 0.0655231075954547, Final residual = 0.005099845224957818, No Iterations 2
[INFO] TimeStep: 23406.07 [ms]
ExecutionTime = 472 s  ClockTime = 473 s

Time = 13

velocityDampingConstraint velocityDamping damped 0 (0%) of cells, with max limit 300
[INFO] MatrixAssemblyU: 4320.795 [ms]
smoothSolver:  Solving for Ux, Initial residual = 0.01449268566515076, Final residual = 0.001440914472910331, No Iterations 12
smoothSolver:  Solving for Uy, Initial residual = 0.04331103483237875, Final residual = 0.004233722054805098, No Iterations 12
smoothSolver:  Solving for Uz, Initial residual = 0.04292919003834064, Final residual = 0.004120600959582046, No Iterations 12
[INFO] MomentumPredictor: 3541.229 [ms]
[INFO] MatrixAssemblyPI: 712.524 [ms]
[INFO] MatrixAssemblyPII: 347.481 [ms]
DICPCG:  Solving for p, Initial residual = 0.04909363366512572, Final residual = 0.0004854405931332023, No Iterations 114
[INFO] SolveP: 11882.163 [ms]
time step continuity errors : sum local = 0.003813832170810308, global = -0.0007465971722095891, cumulative = 0.0003232961885392836
[INFO] postSolveP: 185.373 [ms]
smoothSolver:  Solving for nuTilda, Initial residual = 0.03470100956709474, Final residual = 0.002828299545655963, No Iterations 3
[INFO] TimeStep: 23708.128 [ms]
ExecutionTime = 499.07 s  ClockTime = 500 s

Time = 14

velocityDampingConstraint velocityDamping damped 0 (0%) of cells, with max limit 300
[INFO] MatrixAssemblyU: 4319.389 [ms]
smoothSolver:  Solving for Ux, Initial residual = 0.01367669288307685, Final residual = 0.001171375721968614, No Iterations 13
smoothSolver:  Solving for Uy, Initial residual = 0.04150976372829158, Final residual = 0.004072016254948599, No Iterations 12
smoothSolver:  Solving for Uz, Initial residual = 0.04196032847583607, Final residual = 0.004046945634852419, No Iterations 12
[INFO] MomentumPredictor: 3625.585 [ms]
[INFO] MatrixAssemblyPI: 713.412 [ms]
[INFO] MatrixAssemblyPII: 347.065 [ms]
DICPCG:  Solving for p, Initial residual = 0.04695996482256193, Final residual = 0.0004669560779915695, No Iterations 105
[INFO] SolveP: 10950.953 [ms]
time step continuity errors : sum local = 0.00365865044623557, global = -0.0007457265261160194, cumulative = -0.0004224303375767358
[INFO] postSolveP: 185.853 [ms]
smoothSolver:  Solving for nuTilda, Initial residual = 0.05813732903278489, Final residual = 0.004799621061322226, No Iterations 2
[INFO] TimeStep: 22778.561 [ms]
ExecutionTime = 525.2 s  ClockTime = 527 s

Time = 15

velocityDampingConstraint velocityDamping damped 0 (0%) of cells, with max limit 300
[INFO] MatrixAssemblyU: 4319.236 [ms]
smoothSolver:  Solving for Ux, Initial residual = 0.01282415941796232, Final residual = 0.001109190934987639, No Iterations 13
smoothSolver:  Solving for Uy, Initial residual = 0.040122456203854, Final residual = 0.003964772270422356, No Iterations 12
smoothSolver:  Solving for Uz, Initial residual = 0.04166736724861792, Final residual = 0.004048676924017878, No Iterations 12
[INFO] MomentumPredictor: 3638.829 [ms]
[INFO] MatrixAssemblyPI: 716.172 [ms]
[INFO] MatrixAssemblyPII: 348.897 [ms]
DICPCG:  Solving for p, Initial residual = 0.04559534051731692, Final residual = 0.0004485005305078808, No Iterations 105
[INFO] SolveP: 10943.622 [ms]
time step continuity errors : sum local = 0.00351270416369413, global = -0.0006724414437713886, cumulative = -0.001094871781348125
[INFO] postSolveP: 185.69 [ms]
smoothSolver:  Solving for nuTilda, Initial residual = 0.03134414096143118, Final residual = 0.002661352436448386, No Iterations 3
[INFO] TimeStep: 22866.728 [ms]
ExecutionTime = 551.4299999999999 s  ClockTime = 553 s

Time = 16

velocityDampingConstraint velocityDamping damped 0 (0%) of cells, with max limit 300
[INFO] MatrixAssemblyU: 4313.564 [ms]
smoothSolver:  Solving for Ux, Initial residual = 0.01220111986581495, Final residual = 0.001054596473169618, No Iterations 13
smoothSolver:  Solving for Uy, Initial residual = 0.03922973759617722, Final residual = 0.003896662290221471, No Iterations 12
smoothSolver:  Solving for Uz, Initial residual = 0.04157297923998312, Final residual = 0.00404995398123978, No Iterations 12
[INFO] MomentumPredictor: 3622.804 [ms]
[INFO] MatrixAssemblyPI: 715.345 [ms]
[INFO] MatrixAssemblyPII: 348.367 [ms]
DICPCG:  Solving for p, Initial residual = 0.04445623680987489, Final residual = 0.0004413437206746176, No Iterations 100
[INFO] SolveP: 10409.619 [ms]
time step continuity errors : sum local = 0.003456316991074976, global = -0.0005108599638600744, cumulative = -0.001605731745208199
[INFO] postSolveP: 186.322 [ms]
smoothSolver:  Solving for nuTilda, Initial residual = 0.05169395014425474, Final residual = 0.004551559473912574, No Iterations 2
[INFO] TimeStep: 22229.965 [ms]
ExecutionTime = 577.02 s  ClockTime = 579 s

Time = 17

velocityDampingConstraint velocityDamping damped 0 (0%) of cells, with max limit 300
[INFO] MatrixAssemblyU: 4306.532 [ms]
smoothSolver:  Solving for Ux, Initial residual = 0.01158845820944076, Final residual = 0.001006847374996866, No Iterations 13
smoothSolver:  Solving for Uy, Initial residual = 0.03871071019338235, Final residual = 0.003869128876266489, No Iterations 12
smoothSolver:  Solving for Uz, Initial residual = 0.04153691043574287, Final residual = 0.004055612491360919, No Iterations 12
[INFO] MomentumPredictor: 3625.356 [ms]
[INFO] MatrixAssemblyPI: 712.481 [ms]
[INFO] MatrixAssemblyPII: 347.217 [ms]
DICPCG:  Solving for p, Initial residual = 0.04411968882568447, Final residual = 0.000441185855406342, No Iterations 98
[INFO] SolveP: 10235.18 [ms]
time step continuity errors : sum local = 0.00346542334744479, global = -0.0002905157121284266, cumulative = -0.001896247457336626
[INFO] postSolveP: 185.698 [ms]
smoothSolver:  Solving for nuTilda, Initial residual = 0.02888747947281626, Final residual = 0.002512816980291785, No Iterations 3
[INFO] TimeStep: 22123.899 [ms]
ExecutionTime = 602.5 s  ClockTime = 604 s

Time = 18

velocityDampingConstraint velocityDamping damped 0 (0%) of cells, with max limit 300
[INFO] MatrixAssemblyU: 4300.597 [ms]
smoothSolver:  Solving for Ux, Initial residual = 0.01124626212416975, Final residual = 0.0009672343847541528, No Iterations 13
smoothSolver:  Solving for Uy, Initial residual = 0.03859272397525341, Final residual = 0.003301153926339276, No Iterations 13
smoothSolver:  Solving for Uz, Initial residual = 0.04176127464957354, Final residual = 0.004060649326977638, No Iterations 12
[INFO] MomentumPredictor: 3708.994 [ms]
[INFO] MatrixAssemblyPI: 712.795 [ms]
[INFO] MatrixAssemblyPII: 347.755 [ms]
DICPCG:  Solving for p, Initial residual = 0.04412259984440214, Final residual = 0.0004348492725963571, No Iterations 106
[INFO] SolveP: 11037.331 [ms]
time step continuity errors : sum local = 0.003430435977731807, global = -2.650786718457518e-05, cumulative = -0.001922755324521201
[INFO] postSolveP: 185.276 [ms]
smoothSolver:  Solving for nuTilda, Initial residual = 0.04637133054256058, Final residual = 0.004301529732255008, No Iterations 2
[INFO] TimeStep: 22921.264 [ms]
ExecutionTime = 628.76 s  ClockTime = 631 s

Time = 19

velocityDampingConstraint velocityDamping damped 0 (0%) of cells, with max limit 300
[INFO] MatrixAssemblyU: 4301.321 [ms]
smoothSolver:  Solving for Ux, Initial residual = 0.01090378716302358, Final residual = 0.0009373000188055991, No Iterations 13
smoothSolver:  Solving for Uy, Initial residual = 0.03885526833565617, Final residual = 0.003319532964597893, No Iterations 13
smoothSolver:  Solving for Uz, Initial residual = 0.042534758239448, Final residual = 0.004106871062394935, No Iterations 12
[INFO] MomentumPredictor: 3731.755 [ms]
[INFO] MatrixAssemblyPI: 714.2089999999999 [ms]
[INFO] MatrixAssemblyPII: 345.975 [ms]
DICPCG:  Solving for p, Initial residual = 0.04439061003576292, Final residual = 0.0004411230171594064, No Iterations 113
[INFO] SolveP: 11782.851 [ms]
time step continuity errors : sum local = 0.003498979096919438, global = 0.0002612084763507017, cumulative = -0.001661546848170499
[INFO] postSolveP: 185.555 [ms]
smoothSolver:  Solving for nuTilda, Initial residual = 0.02696093615703766, Final residual = 0.002363907558599109, No Iterations 3
[INFO] TimeStep: 23769.08 [ms]
ExecutionTime = 655.87 s  ClockTime = 658 s

Time = 20

velocityDampingConstraint velocityDamping damped 0 (0%) of cells, with max limit 300
[INFO] MatrixAssemblyU: 4301.213 [ms]
smoothSolver:  Solving for Ux, Initial residual = 0.01072862509227851, Final residual = 0.0009178408918882339, No Iterations 13
smoothSolver:  Solving for Uy, Initial residual = 0.03923957676208549, Final residual = 0.003917683666074952, No Iterations 12
smoothSolver:  Solving for Uz, Initial residual = 0.04314639626263887, Final residual = 0.004138819967718288, No Iterations 12
[INFO] MomentumPredictor: 3628.306 [ms]
[INFO] MatrixAssemblyPI: 711.917 [ms]
[INFO] MatrixAssemblyPII: 347.026 [ms]
DICPCG:  Solving for p, Initial residual = 0.04429782138874522, Final residual = 0.0004365121154314522, No Iterations 120
[INFO] SolveP: 12478.226 [ms]
time step continuity errors : sum local = 0.003495743026316132, global = 0.0005255927181949729, cumulative = -0.001135954129975526
[INFO] postSolveP: 185.919 [ms]
smoothSolver:  Solving for nuTilda, Initial residual = 0.0418378394452858, Final residual = 0.004047726976329671, No Iterations 2
[INFO] TimeStep: 24284.156 [ms]
ExecutionTime = 683.48 s  ClockTime = 686 s

Time = 21

velocityDampingConstraint velocityDamping damped 0 (0%) of cells, with max limit 300
[INFO] MatrixAssemblyU: 4297.055 [ms]
smoothSolver:  Solving for Ux, Initial residual = 0.01052599033543403, Final residual = 0.000903631535909815, No Iterations 13
smoothSolver:  Solving for Uy, Initial residual = 0.03985990759028107, Final residual = 0.003963356498978762, No Iterations 12
smoothSolver:  Solving for Uz, Initial residual = 0.0434770128302755, Final residual = 0.004135477687832342, No Iterations 12
[INFO] MomentumPredictor: 3631.238 [ms]
[INFO] MatrixAssemblyPI: 712.932 [ms]
[INFO] MatrixAssemblyPII: 347.149 [ms]
DICPCG:  Solving for p, Initial residual = 0.04431189679031056, Final residual = 0.0004350938893074015, No Iterations 129
[INFO] SolveP: 13458.306 [ms]
time step continuity errors : sum local = 0.003530360683138889, global = 0.0007316012241178314, cumulative = -0.0004043529058576948
[INFO] postSolveP: 185.849 [ms]
smoothSolver:  Solving for nuTilda, Initial residual = 0.02516864511987529, Final residual = 0.00221871823177367, No Iterations 3
[INFO] TimeStep: 25343.898 [ms]
ExecutionTime = 712.16 s  ClockTime = 714 s

Time = 22

velocityDampingConstraint velocityDamping damped 0 (0%) of cells, with max limit 300
[INFO] MatrixAssemblyU: 4295.752 [ms]
smoothSolver:  Solving for Ux, Initial residual = 0.01048885282035034, Final residual = 0.001046968355308974, No Iterations 12
smoothSolver:  Solving for Uy, Initial residual = 0.04049744509003837, Final residual = 0.003985717905320052, No Iterations 12
smoothSolver:  Solving for Uz, Initial residual = 0.04339333258315281, Final residual = 0.004094834258828877, No Iterations 12
[INFO] MomentumPredictor: 3542.164 [ms]
[INFO] MatrixAssemblyPI: 712.159 [ms]
[INFO] MatrixAssemblyPII: 347.763 [ms]
DICPCG:  Solving for p, Initial residual = 0.04402302391632292, Final residual = 0.0004372723464852381, No Iterations 234
[INFO] SolveP: 24173.697 [ms]
time step continuity errors : sum local = 0.003602123646053955, global = 2.622376419753366e-05, cumulative = -0.0003781291416601611
[INFO] postSolveP: 186.478 [ms]
smoothSolver:  Solving for nuTilda, Initial residual = 0.03797149657189951, Final residual = 0.002018223736550227, No Iterations 3
[INFO] TimeStep: 35965.356 [ms]
ExecutionTime = 751.42 s  ClockTime = 754 s

Time = 23

velocityDampingConstraint velocityDamping damped 0 (0%) of cells, with max limit 300
[INFO] MatrixAssemblyU: 4295.054 [ms]
smoothSolver:  Solving for Ux, Initial residual = 0.01040775207706092, Final residual = 0.001038711278151783, No Iterations 12
smoothSolver:  Solving for Uy, Initial residual = 0.04129351902881976, Final residual = 0.00399015664690461, No Iterations 12
smoothSolver:  Solving for Uz, Initial residual = 0.04314405047553947, Final residual = 0.004015333640381824, No Iterations 12
[INFO] MomentumPredictor: 3556.281 [ms]
[INFO] MatrixAssemblyPI: 715.181 [ms]
[INFO] MatrixAssemblyPII: 347.162 [ms]
DICPCG:  Solving for p, Initial residual = 0.04248410298282532, Final residual = 0.0004239491057524363, No Iterations 113
[INFO] SolveP: 11777.857 [ms]
time step continuity errors : sum local = 0.003655064779765172, global = -7.631962376219429e-05, cumulative = -0.0004544487654223554
[INFO] postSolveP: 185.521 [ms]
smoothSolver:  Solving for nuTilda, Initial residual = 0.02334643107008699, Final residual = 0.002087469530518938, No Iterations 3
[INFO] TimeStep: 23583.773 [ms]
ExecutionTime = 778.34 s  ClockTime = 781 s

Time = 24

velocityDampingConstraint velocityDamping damped 0 (0%) of cells, with max limit 300
[INFO] MatrixAssemblyU: 4296.442 [ms]
smoothSolver:  Solving for Ux, Initial residual = 0.01039185907171715, Final residual = 0.001034108548341773, No Iterations 12
smoothSolver:  Solving for Uy, Initial residual = 0.0417816533957152, Final residual = 0.004020928660167717, No Iterations 12
smoothSolver:  Solving for Uz, Initial residual = 0.04250727090172296, Final residual = 0.003928937764787587, No Iterations 12
[INFO] MomentumPredictor: 3543.502 [ms]
[INFO] MatrixAssemblyPI: 712.596 [ms]
[INFO] MatrixAssemblyPII: 347.717 [ms]
DICPCG:  Solving for p, Initial residual = 0.0425875910759557, Final residual = 0.0004241035468308702, No Iterations 116
[INFO] SolveP: 12031.368 [ms]
time step continuity errors : sum local = 0.00366782922901935, global = -1.419309262096683e-05, cumulative = -0.0004686418580433223
[INFO] postSolveP: 185.267 [ms]
smoothSolver:  Solving for nuTilda, Initial residual = 0.03446785341124938, Final residual = 0.001909052724572431, No Iterations 3
[INFO] TimeStep: 23822.681 [ms]
ExecutionTime = 805.5 s  ClockTime = 808 s

Time = 25

velocityDampingConstraint velocityDamping damped 0 (0%) of cells, with max limit 300
[INFO] MatrixAssemblyU: 4294.768 [ms]
smoothSolver:  Solving for Ux, Initial residual = 0.0103317645613613, Final residual = 0.0008846967299401708, No Iterations 13
smoothSolver:  Solving for Uy, Initial residual = 0.04259211349869724, Final residual = 0.004114610793205951, No Iterations 12
smoothSolver:  Solving for Uz, Initial residual = 0.04223738765842288, Final residual = 0.003897544698060528, No Iterations 12
[INFO] MomentumPredictor: 3627.544 [ms]
[INFO] MatrixAssemblyPI: 712.599 [ms]
[INFO] MatrixAssemblyPII: 346.932 [ms]
DICPCG:  Solving for p, Initial residual = 0.04219898644456355, Final residual = 0.0004141176400913932, No Iterations 121
[INFO] SolveP: 12601.29 [ms]
time step continuity errors : sum local = 0.00361952146185729, global = 2.601940625413158e-05, cumulative = -0.0004426224517891907
[INFO] postSolveP: 185.467 [ms]
smoothSolver:  Solving for nuTilda, Initial residual = 0.02150413698772339, Final residual = 0.001956156785728701, No Iterations 3
[INFO] TimeStep: 24475.673 [ms]
ExecutionTime = 833.3 s  ClockTime = 836 s

Time = 26

velocityDampingConstraint velocityDamping damped 0 (0%) of cells, with max limit 300
[INFO] MatrixAssemblyU: 4293.92 [ms]
smoothSolver:  Solving for Ux, Initial residual = 0.01040309212337237, Final residual = 0.001037513428980259, No Iterations 12
smoothSolver:  Solving for Uy, Initial residual = 0.04357440304787462, Final residual = 0.004270905691677694, No Iterations 12
smoothSolver:  Solving for Uz, Initial residual = 0.04230404105953215, Final residual = 0.003945222548904117, No Iterations 12
[INFO] MomentumPredictor: 3540.536 [ms]
[INFO] MatrixAssemblyPI: 713.047 [ms]
[INFO] MatrixAssemblyPII: 348.853 [ms]
DICPCG:  Solving for p, Initial residual = 0.04187994843935715, Final residual = 0.0004163273086636818, No Iterations 115
[INFO] SolveP: 11952.933 [ms]
time step continuity errors : sum local = 0.003680530014616901, global = 0.000101137491731309, cumulative = -0.0003414849600578817
[INFO] postSolveP: 185.829 [ms]
smoothSolver:  Solving for nuTilda, Initial residual = 0.0314938075112936, Final residual = 0.001803487567171013, No Iterations 3
[INFO] TimeStep: 23742.62 [ms]
ExecutionTime = 860.39 s  ClockTime = 863 s

Time = 27

velocityDampingConstraint velocityDamping damped 0 (0%) of cells, with max limit 300
[INFO] MatrixAssemblyU: 4289.906 [ms]
smoothSolver:  Solving for Ux, Initial residual = 0.0104154366259617, Final residual = 0.001039377165090216, No Iterations 12
smoothSolver:  Solving for Uy, Initial residual = 0.04462353762965964, Final residual = 0.004440549743303113, No Iterations 12
smoothSolver:  Solving for Uz, Initial residual = 0.04262546852702961, Final residual = 0.004027084134339506, No Iterations 12
[INFO] MomentumPredictor: 3573.268 [ms]
[INFO] MatrixAssemblyPI: 712.272 [ms]
[INFO] MatrixAssemblyPII: 347.923 [ms]
DICPCG:  Solving for p, Initial residual = 0.04224632288180118, Final residual = 0.0004188974368758209, No Iterations 114
[INFO] SolveP: 11905.418 [ms]
time step continuity errors : sum local = 0.003741338014092314, global = 0.0002584785675885606, cumulative = -8.300639246932109e-05
[INFO] postSolveP: 184.571 [ms]
smoothSolver:  Solving for nuTilda, Initial residual = 0.0198209962926651, Final residual = 0.001831088062033469, No Iterations 3
[INFO] TimeStep: 23717.982 [ms]
ExecutionTime = 887.4400000000001 s  ClockTime = 890 s

Time = 28

velocityDampingConstraint velocityDamping damped 0 (0%) of cells, with max limit 300
[INFO] MatrixAssemblyU: 4289.01 [ms]
smoothSolver:  Solving for Ux, Initial residual = 0.01056283987788677, Final residual = 0.001042831915145269, No Iterations 12
smoothSolver:  Solving for Uy, Initial residual = 0.04599410684098582, Final residual = 0.003942266892796192, No Iterations 13
smoothSolver:  Solving for Uz, Initial residual = 0.04363191165637926, Final residual = 0.00414011978962066, No Iterations 12
[INFO] MomentumPredictor: 3622.131 [ms]
[INFO] MatrixAssemblyPI: 712.4349999999999 [ms]
[INFO] MatrixAssemblyPII: 346.57 [ms]
DICPCG:  Solving for p, Initial residual = 0.04321430399181662, Final residual = 0.0004206356162510049, No Iterations 107
[INFO] SolveP: 11142.945 [ms]
time step continuity errors : sum local = 0.003802090854742144, global = 0.0004445087089247325, cumulative = 0.0003615023164554114
[INFO] postSolveP: 185.563 [ms]
smoothSolver:  Solving for nuTilda, Initial residual = 0.02896444730130965, Final residual = 0.001696790883549076, No Iterations 3
[INFO] TimeStep: 23001.677 [ms]
ExecutionTime = 913.77 s  ClockTime = 917 s

Time = 29

velocityDampingConstraint velocityDamping damped 0 (0%) of cells, with max limit 300
[INFO] MatrixAssemblyU: 4284.958 [ms]
smoothSolver:  Solving for Ux, Initial residual = 0.01060264281408823, Final residual = 0.001044364118894679, No Iterations 12
smoothSolver:  Solving for Uy, Initial residual = 0.04755843660511316, Final residual = 0.004078714389570085, No Iterations 13
smoothSolver:  Solving for Uz, Initial residual = 0.04506455151972783, Final residual = 0.004282267275108381, No Iterations 12
[INFO] MomentumPredictor: 3621.212 [ms]
[INFO] MatrixAssemblyPI: 714.419 [ms]
[INFO] MatrixAssemblyPII: 346.378 [ms]
DICPCG:  Solving for p, Initial residual = 0.04418938000242441, Final residual = 0.0004368460870279509, No Iterations 106
[INFO] SolveP: 11046.334 [ms]
time step continuity errors : sum local = 0.003995440359329957, global = 0.0006371103095535276, cumulative = 0.000998612626008939
[INFO] postSolveP: 185.473 [ms]
smoothSolver:  Solving for nuTilda, Initial residual = 0.01834028141856051, Final residual = 0.001707836543043652, No Iterations 3
[INFO] TimeStep: 22903.059 [ms]
ExecutionTime = 940.01 s  ClockTime = 943 s

Time = 30

velocityDampingConstraint velocityDamping damped 0 (0%) of cells, with max limit 300
[INFO] MatrixAssemblyU: 4280.137 [ms]
smoothSolver:  Solving for Ux, Initial residual = 0.01080141064728525, Final residual = 0.001050016302207843, No Iterations 12
smoothSolver:  Solving for Uy, Initial residual = 0.049644635001825, Final residual = 0.004227953801251583, No Iterations 13
smoothSolver:  Solving for Uz, Initial residual = 0.04667852430454516, Final residual = 0.004418632234739391, No Iterations 12
[INFO] MomentumPredictor: 3621.295 [ms]
[INFO] MatrixAssemblyPI: 715.963 [ms]
[INFO] MatrixAssemblyPII: 349.324 [ms]
DICPCG:  Solving for p, Initial residual = 0.04508906367934954, Final residual = 0.0004448347910523795, No Iterations 99
[INFO] SolveP: 10333.958 [ms]
time step continuity errors : sum local = 0.004124182984377279, global = 0.0008133199506004064, cumulative = 0.001811932576609345
[INFO] postSolveP: 186.661 [ms]
smoothSolver:  Solving for nuTilda, Initial residual = 0.02677412154542689, Final residual = 0.001589740179292678, No Iterations 3
[INFO] TimeStep: 22190.762 [ms]
ExecutionTime = 965.53 s  ClockTime = 969 s

Time = 31

velocityDampingConstraint velocityDamping damped 0 (0%) of cells, with max limit 300
[INFO] MatrixAssemblyU: 4277.975 [ms]
smoothSolver:  Solving for Ux, Initial residual = 0.01086155018954029, Final residual = 0.001056053741497965, No Iterations 12
smoothSolver:  Solving for Uy, Initial residual = 0.05193419115873375, Final residual = 0.005170269860716268, No Iterations 12
smoothSolver:  Solving for Uz, Initial residual = 0.04834298524652918, Final residual = 0.004572743884232225, No Iterations 12
[INFO] MomentumPredictor: 3555.368 [ms]
[INFO] MatrixAssemblyPI: 713.027 [ms]
[INFO] MatrixAssemblyPII: 347.521 [ms]
DICPCG:  Solving for p, Initial residual = 0.04630673320953396, Final residual = 0.0004627659203151964, No Iterations 99
[INFO] SolveP: 10322.55 [ms]
time step continuity errors : sum local = 0.004345817260139702, global = 0.0009390782382232322, cumulative = 0.002751010814832578
[INFO] postSolveP: 185.534 [ms]
smoothSolver:  Solving for nuTilda, Initial residual = 0.01707745314119642, Final residual = 0.00158952444633085, No Iterations 3
[INFO] TimeStep: 22103.087 [ms]
ExecutionTime = 990.96 s  ClockTime = 994 s

Time = 32

velocityDampingConstraint velocityDamping damped 0 (0%) of cells, with max limit 300
[INFO] MatrixAssemblyU: 4274.386 [ms]
smoothSolver:  Solving for Ux, Initial residual = 0.0109776845541432, Final residual = 0.001062553634101538, No Iterations 12
smoothSolver:  Solving for Uy, Initial residual = 0.05433980154130699, Final residual = 0.00540847450533806, No Iterations 12
smoothSolver:  Solving for Uz, Initial residual = 0.04988283045317291, Final residual = 0.004772453957937369, No Iterations 12
[INFO] MomentumPredictor: 3545.585 [ms]
[INFO] MatrixAssemblyPI: 712.302 [ms]
[INFO] MatrixAssemblyPII: 346.078 [ms]
DICPCG:  Solving for p, Initial residual = 0.0478251316899907, Final residual = 0.0004642815053692174, No Iterations 101
[INFO] SolveP: 10528.492 [ms]
time step continuity errors : sum local = 0.004414682741194934, global = 0.0009753701315397855, cumulative = 0.003726380946372363
[INFO] postSolveP: 185.757 [ms]
smoothSolver:  Solving for nuTilda, Initial residual = 0.02486998040790769, Final residual = 0.001487746039972012, No Iterations 3
[INFO] TimeStep: 22295.551 [ms]
ExecutionTime = 1016.58 s  ClockTime = 1020 s

Time = 33

velocityDampingConstraint velocityDamping damped 0 (0%) of cells, with max limit 300
[INFO] MatrixAssemblyU: 4270.703 [ms]
smoothSolver:  Solving for Ux, Initial residual = 0.01092388885919823, Final residual = 0.00106823588019547, No Iterations 12
smoothSolver:  Solving for Uy, Initial residual = 0.05664982591207667, Final residual = 0.005631001273808845, No Iterations 12
smoothSolver:  Solving for Uz, Initial residual = 0.05201850878712245, Final residual = 0.005041402126313739, No Iterations 12
[INFO] MomentumPredictor: 3547.358 [ms]
[INFO] MatrixAssemblyPI: 712.937 [ms]
[INFO] MatrixAssemblyPII: 346.644 [ms]
DICPCG:  Solving for p, Initial residual = 0.0496678497184472, Final residual = 0.0004936859072662454, No Iterations 97
[INFO] SolveP: 10129.079 [ms]
time step continuity errors : sum local = 0.004750372677692966, global = 0.0009637535620987833, cumulative = 0.004690134508471147
[INFO] postSolveP: 185.356 [ms]
smoothSolver:  Solving for nuTilda, Initial residual = 0.01598778205427896, Final residual = 0.001480303647575724, No Iterations 3
[INFO] TimeStep: 21888.147 [ms]
ExecutionTime = 1041.79 s  ClockTime = 1045 s

Time = 34

velocityDampingConstraint velocityDamping damped 0 (0%) of cells, with max limit 300
[INFO] MatrixAssemblyU: 4266.391 [ms]
smoothSolver:  Solving for Ux, Initial residual = 0.0110330835418214, Final residual = 0.001077514575621355, No Iterations 12
smoothSolver:  Solving for Uy, Initial residual = 0.05913439612257115, Final residual = 0.005876881156375151, No Iterations 12
smoothSolver:  Solving for Uz, Initial residual = 0.05449803092499073, Final residual = 0.005330132935186775, No Iterations 12
[INFO] MomentumPredictor: 3543.136 [ms]
[INFO] MatrixAssemblyPI: 714.135 [ms]
[INFO] MatrixAssemblyPII: 347.078 [ms]
DICPCG:  Solving for p, Initial residual = 0.05181926993729286, Final residual = 0.0005098902385301896, No Iterations 95
[INFO] SolveP: 9909.075999999999 [ms]
time step continuity errors : sum local = 0.004961004982487859, global = 0.0008871532699754615, cumulative = 0.005577287778446608
[INFO] postSolveP: 186.337 [ms]
smoothSolver:  Solving for nuTilda, Initial residual = 0.02322860566171436, Final residual = 0.001393749804320619, No Iterations 3
[INFO] TimeStep: 21660.82 [ms]
ExecutionTime = 1066.76 s  ClockTime = 1070 s

Time = 35

velocityDampingConstraint velocityDamping damped 0 (0%) of cells, with max limit 300
[INFO] MatrixAssemblyU: 4264.581 [ms]
smoothSolver:  Solving for Ux, Initial residual = 0.01108824776675926, Final residual = 0.001090079301046632, No Iterations 12
smoothSolver:  Solving for Uy, Initial residual = 0.06167092011533092, Final residual = 0.005244328998022796, No Iterations 13
smoothSolver:  Solving for Uz, Initial residual = 0.05702787080049675, Final residual = 0.005597188271139767, No Iterations 12
[INFO] MomentumPredictor: 3637.27 [ms]
[INFO] MatrixAssemblyPI: 713.925 [ms]
[INFO] MatrixAssemblyPII: 348.255 [ms]
DICPCG:  Solving for p, Initial residual = 0.0536387038705065, Final residual = 0.0005179397839764898, No Iterations 94
[INFO] SolveP: 9811.714 [ms]
time step continuity errors : sum local = 0.005097085198287651, global = 0.0007605757696213597, cumulative = 0.006337863548067968
[INFO] postSolveP: 185.406 [ms]
smoothSolver:  Solving for nuTilda, Initial residual = 0.01501978772852479, Final residual = 0.001382742135844736, No Iterations 3
[INFO] TimeStep: 21655.495 [ms]
ExecutionTime = 1091.74 s  ClockTime = 1095 s

Time = 36

velocityDampingConstraint velocityDamping damped 0 (0%) of cells, with max limit 300
[INFO] MatrixAssemblyU: 4261.751 [ms]
smoothSolver:  Solving for Ux, Initial residual = 0.01136276798190078, Final residual = 0.001112068694808769, No Iterations 12
smoothSolver:  Solving for Uy, Initial residual = 0.06369054675108599, Final residual = 0.005498264303682432, No Iterations 13
smoothSolver:  Solving for Uz, Initial residual = 0.05968410907856261, Final residual = 0.005858493501963067, No Iterations 12
[INFO] MomentumPredictor: 3627.921 [ms]
[INFO] MatrixAssemblyPI: 715.995 [ms]
[INFO] MatrixAssemblyPII: 346.039 [ms]
DICPCG:  Solving for p, Initial residual = 0.05498809348064082, Final residual = 0.0005356177446604702, No Iterations 93
[INFO] SolveP: 9686.593000000001 [ms]
time step continuity errors : sum local = 0.005317664315815224, global = 0.0005819040931686291, cumulative = 0.006919767641236597
[INFO] postSolveP: 185.746 [ms]
smoothSolver:  Solving for nuTilda, Initial residual = 0.02181418704399807, Final residual = 0.001307887688615626, No Iterations 3
[INFO] TimeStep: 21521.098 [ms]
ExecutionTime = 1116.57 s  ClockTime = 1120 s

Time = 37

velocityDampingConstraint velocityDamping damped 0 (0%) of cells, with max limit 300
[INFO] MatrixAssemblyU: 4264.557 [ms]
smoothSolver:  Solving for Ux, Initial residual = 0.01158123953788411, Final residual = 0.001138267306614305, No Iterations 12
smoothSolver:  Solving for Uy, Initial residual = 0.06552912403125016, Final residual = 0.005739128106712965, No Iterations 13
smoothSolver:  Solving for Uz, Initial residual = 0.06230375080374444, Final residual = 0.006078952512146077, No Iterations 12
[INFO] MomentumPredictor: 3618.427 [ms]
[INFO] MatrixAssemblyPI: 711.9109999999999 [ms]
[INFO] MatrixAssemblyPII: 348.023 [ms]
DICPCG:  Solving for p, Initial residual = 0.05677437775735273, Final residual = 0.000565145805754153, No Iterations 89
[INFO] SolveP: 9301.924000000001 [ms]
time step continuity errors : sum local = 0.005656515162178793, global = 0.0003844855908834318, cumulative = 0.007304253232120029
[INFO] postSolveP: 185.237 [ms]
smoothSolver:  Solving for nuTilda, Initial residual = 0.01420621988496694, Final residual = 0.001295750740327103, No Iterations 3
[INFO] TimeStep: 21124.226 [ms]
ExecutionTime = 1141.01 s  ClockTime = 1145 s

Time = 38

velocityDampingConstraint velocityDamping damped 0 (0%) of cells, with max limit 300
[INFO] MatrixAssemblyU: 4256.376 [ms]
smoothSolver:  Solving for Ux, Initial residual = 0.01190250853409438, Final residual = 0.001161415689230338, No Iterations 12
smoothSolver:  Solving for Uy, Initial residual = 0.06709894213767333, Final residual = 0.005923093102633774, No Iterations 13
smoothSolver:  Solving for Uz, Initial residual = 0.06511609910156808, Final residual = 0.006279660352224358, No Iterations 12
[INFO] MomentumPredictor: 3623.19 [ms]
[INFO] MatrixAssemblyPI: 711.643 [ms]
[INFO] MatrixAssemblyPII: 347.649 [ms]
DICPCG:  Solving for p, Initial residual = 0.05753372471699791, Final residual = 0.0005553491220251475, No Iterations 89
[INFO] SolveP: 9288.241 [ms]
time step continuity errors : sum local = 0.005589677949196468, global = 0.00016784835938887, cumulative = 0.007472101591508899
[INFO] postSolveP: 185.859 [ms]
smoothSolver:  Solving for nuTilda, Initial residual = 0.02058941971897726, Final residual = 0.00123218389231991, No Iterations 3
[INFO] TimeStep: 21102.93 [ms]
ExecutionTime = 1165.43 s  ClockTime = 1169 s

Time = 39

velocityDampingConstraint velocityDamping damped 0 (0%) of cells, with max limit 300
[INFO] MatrixAssemblyU: 4253.828 [ms]
smoothSolver:  Solving for Ux, Initial residual = 0.01200280615713652, Final residual = 0.001174338134936537, No Iterations 12
smoothSolver:  Solving for Uy, Initial residual = 0.06863160610474479, Final residual = 0.006094438780690444, No Iterations 13
smoothSolver:  Solving for Uz, Initial residual = 0.06767760171308694, Final residual = 0.00650326368568664, No Iterations 12
[INFO] MomentumPredictor: 3636.49 [ms]
[INFO] MatrixAssemblyPI: 711.804 [ms]
[INFO] MatrixAssemblyPII: 347.328 [ms]
DICPCG:  Solving for p, Initial residual = 0.05764192218963039, Final residual = 0.0005631258531121615, No Iterations 88
[INFO] SolveP: 9207.064 [ms]
time step continuity errors : sum local = 0.00569202586520569, global = -5.678654671259364e-05, cumulative = 0.007415315044796306
[INFO] postSolveP: 185.552 [ms]
smoothSolver:  Solving for nuTilda, Initial residual = 0.01354666695034183, Final residual = 0.001221751133969427, No Iterations 3
[INFO] TimeStep: 21031.089 [ms]
ExecutionTime = 1189.76 s  ClockTime = 1194 s

Time = 40

velocityDampingConstraint velocityDamping damped 0 (0%) of cells, with max limit 300
[INFO] MatrixAssemblyU: 4252.631 [ms]
smoothSolver:  Solving for Ux, Initial residual = 0.01214660539371728, Final residual = 0.001185385251307537, No Iterations 12
smoothSolver:  Solving for Uy, Initial residual = 0.06984448559983171, Final residual = 0.006255501883251883, No Iterations 13
smoothSolver:  Solving for Uz, Initial residual = 0.06954865648125887, Final residual = 0.006743562121703725, No Iterations 12
[INFO] MomentumPredictor: 3635.552 [ms]
[INFO] MatrixAssemblyPI: 713.192 [ms]
[INFO] MatrixAssemblyPII: 347.492 [ms]
DICPCG:  Solving for p, Initial residual = 0.05782685377194082, Final residual = 0.0005704263016540612, No Iterations 87
[INFO] SolveP: 9066.066000000001 [ms]
time step continuity errors : sum local = 0.005774918232190321, global = -0.0002759688868240885, cumulative = 0.007139346157972217
[INFO] postSolveP: 186.67 [ms]
smoothSolver:  Solving for nuTilda, Initial residual = 0.01948530193830778, Final residual = 0.001168677979047287, No Iterations 3
[INFO] TimeStep: 20888.787 [ms]
ExecutionTime = 1213.95 s  ClockTime = 1218 s

Time = 41

velocityDampingConstraint velocityDamping damped 0 (0%) of cells, with max limit 300
[INFO] MatrixAssemblyU: 4247.642 [ms]
smoothSolver:  Solving for Ux, Initial residual = 0.01208419197390446, Final residual = 0.001195760199768156, No Iterations 12
smoothSolver:  Solving for Uy, Initial residual = 0.07047156287198629, Final residual = 0.006415133621619822, No Iterations 13
smoothSolver:  Solving for Uz, Initial residual = 0.07073199392227204, Final residual = 0.006951504139572212, No Iterations 12
[INFO] MomentumPredictor: 3624.89 [ms]
[INFO] MatrixAssemblyPI: 712.615 [ms]
[INFO] MatrixAssemblyPII: 347.442 [ms]
DICPCG:  Solving for p, Initial residual = 0.05737454471521097, Final residual = 0.0005702783352754543, No Iterations 84
[INFO] SolveP: 8790.019 [ms]
time step continuity errors : sum local = 0.00577528802120702, global = -0.0004690862709873917, cumulative = 0.006670259886984825
[INFO] postSolveP: 185.682 [ms]
smoothSolver:  Solving for nuTilda, Initial residual = 0.01295461468694781, Final residual = 0.001160228657456309, No Iterations 3
[INFO] TimeStep: 20598.466 [ms]
ExecutionTime = 1237.86 s  ClockTime = 1242 s

Time = 42

velocityDampingConstraint velocityDamping damped 0 (0%) of cells, with max limit 300
[INFO] MatrixAssemblyU: 4243.887 [ms]
smoothSolver:  Solving for Ux, Initial residual = 0.01212467427372525, Final residual = 0.001202889743385324, No Iterations 12
smoothSolver:  Solving for Uy, Initial residual = 0.07099215537356666, Final residual = 0.006604112559589087, No Iterations 13
smoothSolver:  Solving for Uz, Initial residual = 0.07132009979154015, Final residual = 0.006063162664990206, No Iterations 13
[INFO] MomentumPredictor: 3702.129 [ms]
[INFO] MatrixAssemblyPI: 711.905 [ms]
[INFO] MatrixAssemblyPII: 347.585 [ms]
DICPCG:  Solving for p, Initial residual = 0.05698472681220939, Final residual = 0.0005683682955212305, No Iterations 84
[INFO] SolveP: 8800.843999999999 [ms]
time step continuity errors : sum local = 0.005747713507683201, global = -0.000662384587002857, cumulative = 0.006007875299981968
[INFO] postSolveP: 186.449 [ms]
smoothSolver:  Solving for nuTilda, Initial residual = 0.01847409865829757, Final residual = 0.001113760023337136, No Iterations 3
[INFO] TimeStep: 20678.629 [ms]
ExecutionTime = 1261.84 s  ClockTime = 1266 s

Time = 43

velocityDampingConstraint velocityDamping damped 0 (0%) of cells, with max limit 300
[INFO] MatrixAssemblyU: 4244.169 [ms]
smoothSolver:  Solving for Ux, Initial residual = 0.01202943600845154, Final residual = 0.001029972149518809, No Iterations 13
smoothSolver:  Solving for Uy, Initial residual = 0.0717529293366902, Final residual = 0.00683037369066793, No Iterations 13
smoothSolver:  Solving for Uz, Initial residual = 0.07096273037985457, Final residual = 0.006150344535989616, No Iterations 13
[INFO] MomentumPredictor: 3800.038 [ms]
[INFO] MatrixAssemblyPI: 713.597 [ms]
[INFO] MatrixAssemblyPII: 347.364 [ms]
DICPCG:  Solving for p, Initial residual = 0.05626309938648257, Final residual = 0.0005593237524991481, No Iterations 85
[INFO] SolveP: 8896.607 [ms]
time step continuity errors : sum local = 0.005636322801589343, global = -0.0008593911313769973, cumulative = 0.005148484168604971
[INFO] postSolveP: 186.263 [ms]
smoothSolver:  Solving for nuTilda, Initial residual = 0.01236597634534253, Final residual = 0.001104059095239015, No Iterations 3
[INFO] TimeStep: 20875.094 [ms]
ExecutionTime = 1286.02 s  ClockTime = 1290 s

Time = 44

velocityDampingConstraint velocityDamping damped 0 (0%) of cells, with max limit 300
[INFO] MatrixAssemblyU: 4241.689 [ms]
smoothSolver:  Solving for Ux, Initial residual = 0.0120362594817437, Final residual = 0.001037735195682445, No Iterations 13
smoothSolver:  Solving for Uy, Initial residual = 0.0722709030939345, Final residual = 0.007042444690152877, No Iterations 13
smoothSolver:  Solving for Uz, Initial residual = 0.07029327851579419, Final residual = 0.006223783920026198, No Iterations 13
[INFO] MomentumPredictor: 3786.73 [ms]
[INFO] MatrixAssemblyPI: 714.978 [ms]
[INFO] MatrixAssemblyPII: 348.777 [ms]
DICPCG:  Solving for p, Initial residual = 0.05561721928287219, Final residual = 0.0005504020323149905, No Iterations 106
[INFO] SolveP: 11028.205 [ms]
time step continuity errors : sum local = 0.005503386650208821, global = -0.001041062042146117, cumulative = 0.004107422126458854
[INFO] postSolveP: 186.756 [ms]
smoothSolver:  Solving for nuTilda, Initial residual = 0.01753091636003913, Final residual = 0.001061382914832556, No Iterations 3
[INFO] TimeStep: 22997.942 [ms]
ExecutionTime = 1312.3 s  ClockTime = 1317 s

Time = 45

velocityDampingConstraint velocityDamping damped 0 (0%) of cells, with max limit 300
[INFO] MatrixAssemblyU: 4238.886 [ms]
smoothSolver:  Solving for Ux, Initial residual = 0.01189983819365687, Final residual = 0.001046676551750275, No Iterations 13
smoothSolver:  Solving for Uy, Initial residual = 0.07243871630633059, Final residual = 0.007186451071888334, No Iterations 13
smoothSolver:  Solving for Uz, Initial residual = 0.06948988483189711, Final residual = 0.00629490806596309, No Iterations 13
[INFO] MomentumPredictor: 3777.437 [ms]
[INFO] MatrixAssemblyPI: 712.312 [ms]
[INFO] MatrixAssemblyPII: 347.442 [ms]
DICPCG:  Solving for p, Initial residual = 0.0552599915904098, Final residual = 0.0005394863947629654, No Iterations 87
[INFO] SolveP: 9095.161 [ms]
time step continuity errors : sum local = 0.005321503100433738, global = -0.001195431154655648, cumulative = 0.002911990971803206
[INFO] postSolveP: 185.205 [ms]
smoothSolver:  Solving for nuTilda, Initial residual = 0.0118051427668904, Final residual = 0.001050322025408237, No Iterations 3
[INFO] TimeStep: 21040.57 [ms]
ExecutionTime = 1336.64 s  ClockTime = 1341 s

Time = 46

velocityDampingConstraint velocityDamping damped 0 (0%) of cells, with max limit 300
[INFO] MatrixAssemblyU: 4232.396 [ms]
smoothSolver:  Solving for Ux, Initial residual = 0.01177151300702963, Final residual = 0.001050306200386067, No Iterations 13
smoothSolver:  Solving for Uy, Initial residual = 0.07221550572100426, Final residual = 0.006176378046918397, No Iterations 14
smoothSolver:  Solving for Uz, Initial residual = 0.06814916104232138, Final residual = 0.006338834544978612, No Iterations 13
[INFO] MomentumPredictor: 3871.664 [ms]
[INFO] MatrixAssemblyPI: 711.602 [ms]
[INFO] MatrixAssemblyPII: 349.235 [ms]
DICPCG:  Solving for p, Initial residual = 0.05457739749789751, Final residual = 0.000543030206755355, No Iterations 216
[INFO] SolveP: 22345.943 [ms]
time step continuity errors : sum local = 0.005305656363236729, global = -0.0003088330302714127, cumulative = 0.002603157941531794
[INFO] postSolveP: 186.167 [ms]
smoothSolver:  Solving for nuTilda, Initial residual = 0.01664889700222986, Final residual = 0.001013073661224569, No Iterations 3
[INFO] TimeStep: 34382.406 [ms]
ExecutionTime = 1374.27 s  ClockTime = 1379 s

Time = 47

velocityDampingConstraint velocityDamping damped 0 (0%) of cells, with max limit 300
[INFO] MatrixAssemblyU: 4235.558 [ms]
smoothSolver:  Solving for Ux, Initial residual = 0.01173670755147458, Final residual = 0.001058232459930837, No Iterations 13
smoothSolver:  Solving for Uy, Initial residual = 0.07225537048607464, Final residual = 0.006183396789655847, No Iterations 14
smoothSolver:  Solving for Uz, Initial residual = 0.06723229210707049, Final residual = 0.006399902742401297, No Iterations 13
[INFO] MomentumPredictor: 3878.506 [ms]
[INFO] MatrixAssemblyPI: 713.64 [ms]
[INFO] MatrixAssemblyPII: 346.963 [ms]
DICPCG:  Solving for p, Initial residual = 0.05591497629286967, Final residual = 0.0005468927863867822, No Iterations 85
[INFO] SolveP: 8899.772000000001 [ms]
time step continuity errors : sum local = 0.005108138899646994, global = 0.0006059053191629279, cumulative = 0.003209063260694721
[INFO] postSolveP: 185.259 [ms]
smoothSolver:  Solving for nuTilda, Initial residual = 0.01128646591697694, Final residual = 0.001003511484409667, No Iterations 3
[INFO] TimeStep: 20941.729 [ms]
ExecutionTime = 1398.51 s  ClockTime = 1403 s

Time = 48

velocityDampingConstraint velocityDamping damped 0 (0%) of cells, with max limit 300
[INFO] MatrixAssemblyU: 4227.598 [ms]
smoothSolver:  Solving for Ux, Initial residual = 0.01164802373723119, Final residual = 0.001063284834546166, No Iterations 13
smoothSolver:  Solving for Uy, Initial residual = 0.07143991987446385, Final residual = 0.006146604090201226, No Iterations 14
smoothSolver:  Solving for Uz, Initial residual = 0.06567897671859702, Final residual = 0.006374220696741847, No Iterations 13
[INFO] MomentumPredictor: 3878.935 [ms]
[INFO] MatrixAssemblyPI: 713.178 [ms]
[INFO] MatrixAssemblyPII: 347.046 [ms]
DICPCG:  Solving for p, Initial residual = 0.05493904506028614, Final residual = 0.0005467602620329967, No Iterations 128
[INFO] SolveP: 13296.788 [ms]
time step continuity errors : sum local = 0.00508666278343793, global = 0.001033000003806789, cumulative = 0.004242063264501511
[INFO] postSolveP: 185.586 [ms]
smoothSolver:  Solving for nuTilda, Initial residual = 0.0158676522380727, Final residual = 0.0009721828234840434, No Iterations 3
[INFO] TimeStep: 25334.347 [ms]
ExecutionTime = 1427.13 s  ClockTime = 1432 s

Time = 49

velocityDampingConstraint velocityDamping damped 0 (0%) of cells, with max limit 300
[INFO] MatrixAssemblyU: 4229.342 [ms]
smoothSolver:  Solving for Ux, Initial residual = 0.01151146076153341, Final residual = 0.00106855976947342, No Iterations 13
smoothSolver:  Solving for Uy, Initial residual = 0.07091018774355955, Final residual = 0.006140411190523686, No Iterations 14
smoothSolver:  Solving for Uz, Initial residual = 0.06473307875705894, Final residual = 0.006367765314172111, No Iterations 13
[INFO] MomentumPredictor: 3868.285 [ms]
[INFO] MatrixAssemblyPI: 712.062 [ms]
[INFO] MatrixAssemblyPII: 347.901 [ms]
DICPCG:  Solving for p, Initial residual = 0.05377979769046545, Final residual = 0.0005368408234848414, No Iterations 94
[INFO] SolveP: 9819.030000000001 [ms]
time step continuity errors : sum local = 0.005022082553035273, global = 0.001268845533820547, cumulative = 0.005510908798322058
[INFO] postSolveP: 185.381 [ms]
smoothSolver:  Solving for nuTilda, Initial residual = 0.01085446740367913, Final residual = 0.0009660232024768285, No Iterations 3
[INFO] TimeStep: 21844.179 [ms]
ExecutionTime = 1452.26 s  ClockTime = 1457 s

Time = 50

velocityDampingConstraint velocityDamping damped 0 (0%) of cells, with max limit 300
[INFO] MatrixAssemblyU: 4228.257 [ms]
smoothSolver:  Solving for Ux, Initial residual = 0.01148361467373054, Final residual = 0.001068946023567041, No Iterations 13
smoothSolver:  Solving for Uy, Initial residual = 0.06957941542472458, Final residual = 0.006039993342215807, No Iterations 14
smoothSolver:  Solving for Uz, Initial residual = 0.06371650643859178, Final residual = 0.006315730423671364, No Iterations 13
[INFO] MomentumPredictor: 3868.714 [ms]
[INFO] MatrixAssemblyPI: 712.853 [ms]
[INFO] MatrixAssemblyPII: 347.357 [ms]
DICPCG:  Solving for p, Initial residual = 0.05308424862210442, Final residual = 0.0005301772791165141, No Iterations 218
[INFO] SolveP: 22537.405 [ms]
time step continuity errors : sum local = 0.00494713390381438, global = 4.7538006830836e-06, cumulative = 0.005515662599005142
[INFO] postSolveP: 185.928 [ms]
smoothSolver:  Solving for nuTilda, Initial residual = 0.01518545103463258, Final residual = 0.0009399430287909313, No Iterations 3
[INFO] TimeStep: 34567.646 [ms]
ExecutionTime = 1490.07 s  ClockTime = 1495 s

End

Finalising parallel run
